data_image0
_chemical_formula_structural       Cu8H32C36O16
_chemical_formula_sum              "Cu8 H32 C36 O16"
_cell_length_a       5.14373
_cell_length_b       9.93432
_cell_length_c       16.2478
_cell_angle_alpha    89.9996
_cell_angle_beta     89.9995
_cell_angle_gamma    90.0005

_space_group_name_H-M_alt    "P 1"
_space_group_IT_number       1

loop_
  _space_group_symop_operation_xyz
  'x, y, z'

loop_
  _atom_site_type_symbol
  _atom_site_label
  _atom_site_symmetry_multiplicity
  _atom_site_fract_x
  _atom_site_fract_y
  _atom_site_fract_z
  _atom_site_occupancy
  Cu  Cu1       1.0  0.28526  0.24371  0.07612  1.0000
  Cu  Cu2       1.0  0.71475  0.74370  0.42388  1.0000
  Cu  Cu3       1.0  0.21473  0.75628  0.57612  1.0000
  Cu  Cu4       1.0  0.78524  0.25632  0.92388  1.0000
  Cu  Cu5       1.0  0.21465  0.75631  0.92388  1.0000
  Cu  Cu6       1.0  0.78535  0.25629  0.57613  1.0000
  Cu  Cu7       1.0  0.28535  0.24369  0.42388  1.0000
  Cu  Cu8       1.0  0.71467  0.74371  0.07612  1.0000
  H   H1        1.0  0.65315  0.75574  0.85202  1.0000
  H   H2        1.0  0.34685  0.25574  0.64799  1.0000
  H   H3        1.0  0.84684  0.24425  0.35202  1.0000
  H   H4        1.0  0.15317  0.74426  0.14798  1.0000
  H   H5        1.0  0.32606  0.96575  0.84992  1.0000
  H   H6        1.0  0.67392  0.46577  0.65006  1.0000
  H   H7        1.0  0.17392  0.03423  0.34993  1.0000
  H   H8        1.0  0.82607  0.53424  0.15006  1.0000
  H   H9        1.0  0.45581  0.56550  0.75001  1.0000
  H   H10       1.0  0.54417  0.06551  0.75001  1.0000
  H   H11       1.0  0.04418  0.43449  0.25001  1.0000
  H   H12       1.0  0.95586  0.93449  0.25000  1.0000
  H   H13       1.0  0.92680  0.90319  0.74999  1.0000
  H   H14       1.0  0.07321  0.40321  0.75000  1.0000
  H   H15       1.0  0.57321  0.09679  0.24999  1.0000
  H   H16       1.0  0.42679  0.59681  0.25000  1.0000
  H   H17       1.0  0.65321  0.75574  0.64801  1.0000
  H   H18       1.0  0.34678  0.25578  0.85200  1.0000
  H   H19       1.0  0.84677  0.24425  0.14801  1.0000
  H   H20       1.0  0.15325  0.74423  0.35199  1.0000
  H   H21       1.0  0.99488  0.64885  0.80524  1.0000
  H   H22       1.0  0.00509  0.14886  0.69477  1.0000
  H   H23       1.0  0.50511  0.35113  0.30524  1.0000
  H   H24       1.0  0.49493  0.85115  0.19476  1.0000
  H   H25       1.0  0.99489  0.64884  0.69475  1.0000
  H   H26       1.0  0.00512  0.14886  0.80525  1.0000
  H   H27       1.0  0.50511  0.35115  0.19476  1.0000
  H   H28       1.0  0.49491  0.85115  0.30524  1.0000
  H   H29       1.0  0.32614  0.96574  0.65008  1.0000
  H   H30       1.0  0.67389  0.46577  0.84991  1.0000
  H   H31       1.0  0.17388  0.03425  0.15008  1.0000
  H   H32       1.0  0.82610  0.53425  0.34991  1.0000
  C   C1        1.0  0.04113  0.24375  0.17472  1.0000
  C   C2        1.0  0.95887  0.74374  0.32528  1.0000
  C   C3        1.0  0.45887  0.75623  0.67472  1.0000
  C   C4        1.0  0.54114  0.25627  0.82529  1.0000
  C   C5        1.0  0.21049  0.13361  0.17577  1.0000
  C   C6        1.0  0.78952  0.63360  0.32422  1.0000
  C   C7        1.0  0.28952  0.86638  0.67577  1.0000
  C   C8        1.0  0.71050  0.36641  0.82422  1.0000
  C   C9        1.0  0.12576  0.47656  0.97737  1.0000
  C   C10       1.0  0.87416  0.97653  0.52264  1.0000
  C   C11       1.0  0.37422  0.52343  0.47736  1.0000
  C   C12       1.0  0.62582  0.02347  0.02263  1.0000
  C   C13       1.0  0.37404  0.52348  0.02265  1.0000
  C   C14       1.0  0.62592  0.02345  0.47736  1.0000
  C   C15       1.0  0.12596  0.47651  0.52264  1.0000
  C   C16       1.0  0.87407  0.97655  0.97735  1.0000
  C   C17       1.0  0.45879  0.75623  0.82531  1.0000
  C   C18       1.0  0.54117  0.25623  0.67470  1.0000
  C   C19       1.0  0.04120  0.24377  0.32531  1.0000
  C   C20       1.0  0.95882  0.74378  0.17469  1.0000
  C   C21       1.0  0.28952  0.86640  0.82422  1.0000
  C   C22       1.0  0.71049  0.36639  0.67577  1.0000
  C   C23       1.0  0.21047  0.13359  0.32422  1.0000
  C   C24       1.0  0.78952  0.63361  0.17577  1.0000
  C   C25       1.0  0.38444  0.66902  0.75001  1.0000
  C   C26       1.0  0.61554  0.16902  0.74998  1.0000
  C   C27       1.0  0.11556  0.33097  0.25002  1.0000
  C   C28       1.0  0.88446  0.83097  0.24999  1.0000
  C   C29       1.0  0.10761  0.84534  0.74999  1.0000
  C   C30       1.0  0.89236  0.34536  0.75002  1.0000
  C   C31       1.0  0.39238  0.15465  0.24999  1.0000
  C   C32       1.0  0.60764  0.65465  0.25000  1.0000
  C   C33       1.0  0.08745  0.69001  0.75000  1.0000
  C   C34       1.0  0.91255  0.19002  0.75001  1.0000
  C   C35       1.0  0.41253  0.30999  0.25000  1.0000
  C   C36       1.0  0.58749  0.81001  0.25000  1.0000
  O   O1        1.0  0.07253  0.35016  0.98556  1.0000
  O   O2        1.0  0.92742  0.85012  0.51445  1.0000
  O   O3        1.0  0.42745  0.64985  0.48554  1.0000
  O   O4        1.0  0.57257  0.14987  0.01446  1.0000
  O   O5        1.0  0.50173  0.43926  0.06293  1.0000
  O   O6        1.0  0.49825  0.93925  0.43707  1.0000
  O   O7        1.0  0.99829  0.56072  0.56292  1.0000
  O   O8        1.0  0.00177  0.06076  0.93707  1.0000
  O   O9        1.0  0.99809  0.56077  0.93708  1.0000
  O   O10       1.0  0.00182  0.06073  0.56293  1.0000
  O   O11       1.0  0.50190  0.43924  0.43707  1.0000
  O   O12       1.0  0.49813  0.93927  0.06292  1.0000
  O   O13       1.0  0.42734  0.64988  0.01445  1.0000
  O   O14       1.0  0.57264  0.14986  0.48555  1.0000
  O   O15       1.0  0.07269  0.35011  0.51445  1.0000
  O   O16       1.0  0.92736  0.85016  0.98555  1.0000
