data_image0
_chemical_formula_structural       Ag8H16C24N8O20
_chemical_formula_sum              "Ag8 H16 C24 N8 O20"
_cell_length_a       7.50054
_cell_length_b       7.39245
_cell_length_c       16.144
_cell_angle_alpha    90
_cell_angle_beta     89.9996
_cell_angle_gamma    114.795

_space_group_name_H-M_alt    "P 1"
_space_group_IT_number       1

loop_
  _space_group_symop_operation_xyz
  'x, y, z'

loop_
  _atom_site_type_symbol
  _atom_site_label
  _atom_site_symmetry_multiplicity
  _atom_site_fract_x
  _atom_site_fract_y
  _atom_site_fract_z
  _atom_site_occupancy
  Ag  Ag1       1.0  0.45585  0.03209  0.89032  1.0000
  Ag  Ag2       1.0  0.04416  0.96792  0.39032  1.0000
  Ag  Ag3       1.0  0.54415  0.96790  0.10967  1.0000
  Ag  Ag4       1.0  0.95584  0.03208  0.60968  1.0000
  Ag  Ag5       1.0  0.86518  0.26021  0.39721  1.0000
  Ag  Ag6       1.0  0.63482  0.73979  0.89720  1.0000
  Ag  Ag7       1.0  0.13482  0.73979  0.60279  1.0000
  Ag  Ag8       1.0  0.36518  0.26022  0.10279  1.0000
  H   H1        1.0  0.83553  0.45235  0.89486  1.0000
  H   H2        1.0  0.66448  0.54764  0.39487  1.0000
  H   H3        1.0  0.16446  0.54764  0.10514  1.0000
  H   H4        1.0  0.33554  0.45236  0.60513  1.0000
  H   H5        1.0  0.06225  0.70388  0.79262  1.0000
  H   H6        1.0  0.43775  0.29613  0.29261  1.0000
  H   H7        1.0  0.93774  0.29611  0.20739  1.0000
  H   H8        1.0  0.56226  0.70388  0.70739  1.0000
  H   H9        1.0  0.14855  0.84514  0.00705  1.0000
  H   H10       1.0  0.35146  0.15486  0.50705  1.0000
  H   H11       1.0  0.85145  0.15486  0.99295  1.0000
  H   H12       1.0  0.64854  0.84514  0.49295  1.0000
  H   H13       1.0  0.20862  0.67416  0.97612  1.0000
  H   H14       1.0  0.29138  0.32584  0.47612  1.0000
  H   H15       1.0  0.79138  0.32584  0.02388  1.0000
  H   H16       1.0  0.70862  0.67416  0.52388  1.0000
  C   C1        1.0  0.74857  0.35022  0.56975  1.0000
  C   C2        1.0  0.75144  0.64978  0.06975  1.0000
  C   C3        1.0  0.25143  0.64978  0.43025  1.0000
  C   C4        1.0  0.24856  0.35023  0.93025  1.0000
  C   C5        1.0  0.76491  0.37133  0.66300  1.0000
  C   C6        1.0  0.73509  0.62868  0.16300  1.0000
  C   C7        1.0  0.23509  0.62867  0.33700  1.0000
  C   C8        1.0  0.26491  0.37133  0.83700  1.0000
  C   C9        1.0  0.81421  0.42928  0.82830  1.0000
  C   C10       1.0  0.68579  0.57072  0.32830  1.0000
  C   C11       1.0  0.18578  0.57071  0.17171  1.0000
  C   C12       1.0  0.31422  0.42928  0.67170  1.0000
  C   C13       1.0  0.63765  0.23167  0.71951  1.0000
  C   C14       1.0  0.86235  0.76833  0.21951  1.0000
  C   C15       1.0  0.36234  0.76832  0.28049  1.0000
  C   C16       1.0  0.13766  0.23168  0.78049  1.0000
  C   C17       1.0  0.93935  0.56836  0.77243  1.0000
  C   C18       1.0  0.56065  0.43164  0.27244  1.0000
  C   C19       1.0  0.06064  0.43163  0.22757  1.0000
  C   C20       1.0  0.43936  0.56837  0.72757  1.0000
  C   C21       1.0  0.46266  0.04727  0.69053  1.0000
  C   C22       1.0  0.03733  0.95273  0.19053  1.0000
  C   C23       1.0  0.53733  0.95273  0.30947  1.0000
  C   C24       1.0  0.96268  0.04728  0.80948  1.0000
  N   N1        1.0  0.66635  0.26164  0.80149  1.0000
  N   N2        1.0  0.83365  0.73836  0.30150  1.0000
  N   N3        1.0  0.33364  0.73835  0.19851  1.0000
  N   N4        1.0  0.16636  0.26164  0.69850  1.0000
  N   N5        1.0  0.91603  0.53782  0.69046  1.0000
  N   N6        1.0  0.58398  0.46218  0.19046  1.0000
  N   N7        1.0  0.08396  0.46218  0.30955  1.0000
  N   N8        1.0  0.41603  0.53782  0.80954  1.0000
  O   O1        1.0  0.65442  0.43121  0.53184  1.0000
  O   O2        1.0  0.84558  0.56879  0.03184  1.0000
  O   O3        1.0  0.34559  0.56879  0.46816  1.0000
  O   O4        1.0  0.15441  0.43121  0.96816  1.0000
  O   O5        1.0  0.84622  0.26319  0.53758  1.0000
  O   O6        1.0  0.65378  0.73682  0.03758  1.0000
  O   O7        1.0  0.15377  0.73680  0.46242  1.0000
  O   O8        1.0  0.34623  0.26319  0.96242  1.0000
  O   O9        1.0  0.44157  0.02414  0.61244  1.0000
  O   O10       1.0  0.05842  0.97586  0.11244  1.0000
  O   O11       1.0  0.55843  0.97586  0.38756  1.0000
  O   O12       1.0  0.94159  0.02414  0.88756  1.0000
  O   O13       1.0  0.34925  0.93291  0.74448  1.0000
  O   O14       1.0  0.15075  0.06710  0.24448  1.0000
  O   O15       1.0  0.65073  0.06709  0.25552  1.0000
  O   O16       1.0  0.84926  0.93292  0.75552  1.0000
  O   O17       1.0  0.25968  0.82000  0.98736  1.0000
  O   O18       1.0  0.24033  0.17999  0.48736  1.0000
  O   O19       1.0  0.74032  0.17999  0.01264  1.0000
  O   O20       1.0  0.75967  0.82001  0.51264  1.0000
