data_image0
_chemical_formula_structural       Ag8H8C24N8O16
_chemical_formula_sum              "Ag8 H8 C24 N8 O16"
_cell_length_a       7.75664
_cell_length_b       7.75333
_cell_length_c       11.7282
_cell_angle_alpha    90.0001
_cell_angle_beta     90.0004
_cell_angle_gamma    90.031

_space_group_name_H-M_alt    "P 1"
_space_group_IT_number       1

loop_
  _space_group_symop_operation_xyz
  'x, y, z'

loop_
  _atom_site_type_symbol
  _atom_site_label
  _atom_site_symmetry_multiplicity
  _atom_site_fract_x
  _atom_site_fract_y
  _atom_site_fract_z
  _atom_site_occupancy
  Ag  Ag1       1.0  0.91333  0.87989  0.10888  1.0000
  Ag  Ag2       1.0  0.08667  0.12011  0.60888  1.0000
  Ag  Ag3       1.0  0.11971  0.91228  0.85892  1.0000
  Ag  Ag4       1.0  0.88030  0.08773  0.35893  1.0000
  Ag  Ag5       1.0  0.57210  0.52913  0.19994  1.0000
  Ag  Ag6       1.0  0.42790  0.47087  0.69994  1.0000
  Ag  Ag7       1.0  0.47066  0.57100  0.94992  1.0000
  Ag  Ag8       1.0  0.52935  0.42900  0.44992  1.0000
  H   H1        1.0  0.27816  0.06761  0.39451  1.0000
  H   H2        1.0  0.72185  0.93238  0.89451  1.0000
  H   H3        1.0  0.93381  0.27747  0.14516  1.0000
  H   H4        1.0  0.06619  0.72252  0.64516  1.0000
  H   H5        1.0  0.50732  0.83913  0.42139  1.0000
  H   H6        1.0  0.49269  0.16086  0.92139  1.0000
  H   H7        1.0  0.16223  0.50676  0.17255  1.0000
  H   H8        1.0  0.83776  0.49324  0.67255  1.0000
  C   C1        1.0  0.85645  0.67102  0.34208  1.0000
  C   C2        1.0  0.14355  0.32898  0.84207  1.0000
  C   C3        1.0  0.32992  0.85615  0.09145  1.0000
  C   C4        1.0  0.67007  0.14385  0.59145  1.0000
  C   C5        1.0  0.03911  0.71811  0.37588  1.0000
  C   C6        1.0  0.96089  0.28189  0.87587  1.0000
  C   C7        1.0  0.28306  0.03877  0.12553  1.0000
  C   C8        1.0  0.71694  0.96122  0.62553  1.0000
  C   C9        1.0  0.24614  0.93081  0.39336  1.0000
  C   C10       1.0  0.75386  0.06919  0.89336  1.0000
  C   C11       1.0  0.07056  0.24558  0.14381  1.0000
  C   C12       1.0  0.92944  0.75441  0.64381  1.0000
  C   C13       1.0  0.37137  0.80619  0.41385  1.0000
  C   C14       1.0  0.62863  0.19380  0.91384  1.0000
  C   C15       1.0  0.19513  0.37087  0.16456  1.0000
  C   C16       1.0  0.80487  0.62913  0.66456  1.0000
  C   C17       1.0  0.16187  0.59512  0.41051  1.0000
  C   C18       1.0  0.83813  0.40489  0.91051  1.0000
  C   C19       1.0  0.40615  0.16158  0.16021  1.0000
  C   C20       1.0  0.59385  0.83842  0.66021  1.0000
  C   C21       1.0  0.10601  0.41273  0.43633  1.0000
  C   C22       1.0  0.89399  0.58728  0.93632  1.0000
  C   C23       1.0  0.58850  0.10578  0.18578  1.0000
  C   C24       1.0  0.41150  0.89422  0.68578  1.0000
  N   N1        1.0  0.08113  0.88702  0.37335  1.0000
  N   N2        1.0  0.91888  0.11298  0.87335  1.0000
  N   N3        1.0  0.11423  0.08067  0.12330  1.0000
  N   N4        1.0  0.88576  0.91933  0.62330  1.0000
  N   N5        1.0  0.32761  0.64019  0.42654  1.0000
  N   N6        1.0  0.67239  0.35981  0.92654  1.0000
  N   N7        1.0  0.36112  0.32725  0.17679  1.0000
  N   N8        1.0  0.63888  0.67274  0.67679  1.0000
  O   O1        1.0  0.83876  0.63070  0.23660  1.0000
  O   O2        1.0  0.16124  0.36931  0.73660  1.0000
  O   O3        1.0  0.37013  0.83853  0.98595  1.0000
  O   O4        1.0  0.62987  0.16147  0.48595  1.0000
  O   O5        1.0  0.73965  0.68487  0.41526  1.0000
  O   O6        1.0  0.26035  0.31514  0.91526  1.0000
  O   O7        1.0  0.31587  0.73922  0.16457  1.0000
  O   O8        1.0  0.68413  0.26078  0.66457  1.0000
  O   O9        1.0  0.95195  0.37671  0.41166  1.0000
  O   O10       1.0  0.04805  0.62329  0.91166  1.0000
  O   O11       1.0  0.62424  0.95157  0.16132  1.0000
  O   O12       1.0  0.37576  0.04843  0.66131  1.0000
  O   O13       1.0  0.21593  0.31311  0.48303  1.0000
  O   O14       1.0  0.78407  0.68689  0.98303  1.0000
  O   O15       1.0  0.68843  0.21597  0.23206  1.0000
  O   O16       1.0  0.31157  0.78403  0.73205  1.0000
