data_image0
_chemical_formula_structural       H24Pb2C28N8O12
_chemical_formula_sum              "H24 Pb2 C28 N8 O12"
_cell_length_a       8.81853
_cell_length_b       10.0289
_cell_length_c       10.0266
_cell_angle_alpha    68.3973
_cell_angle_beta     75.9071
_cell_angle_gamma    75.8982

_space_group_name_H-M_alt    "P 1"
_space_group_IT_number       1

loop_
  _space_group_symop_operation_xyz
  'x, y, z'

loop_
  _atom_site_type_symbol
  _atom_site_label
  _atom_site_symmetry_multiplicity
  _atom_site_fract_x
  _atom_site_fract_y
  _atom_site_fract_z
  _atom_site_occupancy
  H   H1        1.0  0.79426  0.12030  0.32028  1.0000
  H   H2        1.0  0.29422  0.32032  0.12036  1.0000
  H   H3        1.0  0.20573  0.87979  0.67972  1.0000
  H   H4        1.0  0.70575  0.67957  0.87968  1.0000
  H   H5        1.0  0.91557  0.26037  0.06821  1.0000
  H   H6        1.0  0.41553  0.06823  0.26050  1.0000
  H   H7        1.0  0.08437  0.73957  0.93181  1.0000
  H   H8        1.0  0.58461  0.93172  0.73961  1.0000
  H   H9        1.0  0.96843  0.73839  0.52474  1.0000
  H   H10       1.0  0.46844  0.52451  0.73830  1.0000
  H   H11       1.0  0.03165  0.26169  0.47539  1.0000
  H   H12       1.0  0.53164  0.47546  0.26179  1.0000
  H   H13       1.0  0.77843  0.83204  0.48058  1.0000
  H   H14       1.0  0.27830  0.48080  0.83206  1.0000
  H   H15       1.0  0.22163  0.16780  0.51946  1.0000
  H   H16       1.0  0.72180  0.51918  0.16794  1.0000
  H   H17       1.0  0.88492  0.90752  0.55440  1.0000
  H   H18       1.0  0.38522  0.55453  0.90729  1.0000
  H   H19       1.0  0.11479  0.09257  0.44567  1.0000
  H   H20       1.0  0.61474  0.44557  0.09272  1.0000
  H   H21       1.0  0.12830  0.26687  0.85240  1.0000
  H   H22       1.0  0.62809  0.85237  0.26688  1.0000
  H   H23       1.0  0.87186  0.73318  0.14758  1.0000
  H   H24       1.0  0.37179  0.14753  0.73311  1.0000
  Pb  Pb1       1.0  0.24990  0.61487  0.38495  1.0000
  Pb  Pb2       1.0  0.74989  0.38500  0.61481  1.0000
  C   C1        1.0  0.97312  0.92817  0.33073  1.0000
  C   C2        1.0  0.47306  0.33076  0.92818  1.0000
  C   C3        1.0  0.02677  0.07186  0.66928  1.0000
  C   C4        1.0  0.52696  0.66924  0.07186  1.0000
  C   C5        1.0  0.90166  0.07272  0.26161  1.0000
  C   C6        1.0  0.40153  0.26163  0.07271  1.0000
  C   C7        1.0  0.09831  0.92734  0.73839  1.0000
  C   C8        1.0  0.59843  0.73832  0.92727  1.0000
  C   C9        1.0  0.96872  0.14917  0.12391  1.0000
  C   C10       1.0  0.46858  0.12392  0.14916  1.0000
  C   C11       1.0  0.03125  0.85086  0.87608  1.0000
  C   C12       1.0  0.53143  0.87604  0.85083  1.0000
  C   C13       1.0  0.10927  0.08334  0.05284  1.0000
  C   C14       1.0  0.60919  0.05290  0.08329  1.0000
  C   C15       1.0  0.89062  0.91670  0.94708  1.0000
  C   C16       1.0  0.39079  0.94707  0.91659  1.0000
  C   C17       1.0  0.17692  0.93906  0.12911  1.0000
  C   C18       1.0  0.67682  0.12917  0.93906  1.0000
  C   C19       1.0  0.82302  0.06097  0.87087  1.0000
  C   C20       1.0  0.32322  0.87089  0.06093  1.0000
  C   C21       1.0  0.89852  0.84596  0.48021  1.0000
  C   C22       1.0  0.39851  0.48022  0.84591  1.0000
  C   C23       1.0  0.10146  0.15407  0.51985  1.0000
  C   C24       1.0  0.60156  0.51978  0.15415  1.0000
  C   C25       1.0  0.18257  0.15700  0.90941  1.0000
  C   C26       1.0  0.68244  0.90944  0.15700  1.0000
  C   C27       1.0  0.81745  0.84302  0.09055  1.0000
  C   C28       1.0  0.31752  0.09053  0.84295  1.0000
  N   N1        1.0  0.10615  0.86470  0.26475  1.0000
  N   N2        1.0  0.60611  0.26479  0.86475  1.0000
  N   N3        1.0  0.89374  0.13529  0.73526  1.0000
  N   N4        1.0  0.39403  0.73529  0.13536  1.0000
  N   N5        1.0  0.04878  0.49553  0.24404  1.0000
  N   N6        1.0  0.54868  0.24418  0.49548  1.0000
  N   N7        1.0  0.95133  0.50454  0.75597  1.0000
  N   N8        1.0  0.45129  0.75577  0.50446  1.0000
  O   O1        1.0  0.18738  0.52783  0.18504  1.0000
  O   O2        1.0  0.68745  0.18526  0.52746  1.0000
  O   O3        1.0  0.81277  0.47216  0.81506  1.0000
  O   O4        1.0  0.31255  0.81470  0.47248  1.0000
  O   O5        1.0  0.97475  0.53959  0.35141  1.0000
  O   O6        1.0  0.47476  0.35145  0.53971  1.0000
  O   O7        1.0  0.02534  0.46048  0.64860  1.0000
  O   O8        1.0  0.52528  0.64855  0.46017  1.0000
  O   O9        1.0  0.98867  0.42396  0.19842  1.0000
  O   O10       1.0  0.48834  0.19859  0.42402  1.0000
  O   O11       1.0  0.01145  0.57621  0.80153  1.0000
  O   O12       1.0  0.51162  0.80130  0.57599  1.0000
