data_image0
_chemical_formula_structural       Ag2H28C32N10O10
_chemical_formula_sum              "Ag2 H28 C32 N10 O10"
_cell_length_a       8.11464
_cell_length_b       8.87067
_cell_length_c       12.4039
_cell_angle_alpha    86.0872
_cell_angle_beta     80.9503
_cell_angle_gamma    66.1888

_space_group_name_H-M_alt    "P 1"
_space_group_IT_number       1

loop_
  _space_group_symop_operation_xyz
  'x, y, z'

loop_
  _atom_site_type_symbol
  _atom_site_label
  _atom_site_symmetry_multiplicity
  _atom_site_fract_x
  _atom_site_fract_y
  _atom_site_fract_z
  _atom_site_occupancy
  Ag  Ag1       1.0  0.36208  0.53683  0.91481  1.0000
  Ag  Ag2       1.0  0.63793  0.46317  0.08519  1.0000
  H   H1        1.0  0.35526  0.20667  0.88699  1.0000
  H   H2        1.0  0.64474  0.79333  0.11301  1.0000
  H   H3        1.0  0.48623  0.97313  0.75657  1.0000
  H   H4        1.0  0.51378  0.02686  0.24343  1.0000
  H   H5        1.0  0.82084  0.21535  0.58550  1.0000
  H   H6        1.0  0.17916  0.78465  0.41450  1.0000
  H   H7        1.0  0.66803  0.44252  0.71753  1.0000
  H   H8        1.0  0.33197  0.55748  0.28247  1.0000
  H   H9        1.0  0.85709  0.95258  0.51561  1.0000
  H   H10       1.0  0.14292  0.04742  0.48439  1.0000
  H   H11       1.0  0.57312  0.81088  0.60975  1.0000
  H   H12       1.0  0.42688  0.18912  0.39025  1.0000
  H   H13       1.0  0.03486  0.59903  0.08795  1.0000
  H   H14       1.0  0.96514  0.40097  0.91205  1.0000
  H   H15       1.0  0.84875  0.80610  0.23192  1.0000
  H   H16       1.0  0.15124  0.19390  0.76808  1.0000
  H   H17       1.0  0.15205  0.09918  0.10351  1.0000
  H   H18       1.0  0.84795  0.90082  0.89650  1.0000
  H   H19       1.0  0.33745  0.87218  0.97297  1.0000
  H   H20       1.0  0.66255  0.12782  0.02704  1.0000
  H   H21       1.0  0.75812  0.06926  0.31314  1.0000
  H   H22       1.0  0.24188  0.93074  0.68686  1.0000
  H   H23       1.0  0.98548  0.27219  0.23026  1.0000
  H   H24       1.0  0.01451  0.72781  0.76974  1.0000
  H   H25       1.0  0.92748  0.48321  0.33915  1.0000
  H   H26       1.0  0.07251  0.51680  0.66085  1.0000
  H   H27       1.0  0.59698  0.59324  0.50049  1.0000
  H   H28       1.0  0.40302  0.40676  0.49951  1.0000
  C   C1        1.0  0.45324  0.20583  0.81578  1.0000
  C   C2        1.0  0.54676  0.79417  0.18422  1.0000
  C   C3        1.0  0.52704  0.07659  0.74252  1.0000
  C   C4        1.0  0.47296  0.92341  0.25748  1.0000
  C   C5        1.0  0.65931  0.07712  0.65432  1.0000
  C   C6        1.0  0.34069  0.92288  0.34568  1.0000
  C   C7        1.0  0.71324  0.20971  0.64806  1.0000
  C   C8        1.0  0.28676  0.79029  0.35194  1.0000
  C   C9        1.0  0.62965  0.33751  0.72275  1.0000
  C   C10       1.0  0.37035  0.66249  0.27724  1.0000
  C   C11       1.0  0.74177  0.94798  0.57253  1.0000
  C   C12       1.0  0.25823  0.05202  0.42746  1.0000
  C   C13       1.0  0.68830  0.82566  0.55898  1.0000
  C   C14       1.0  0.31171  0.17434  0.44102  1.0000
  C   C15       1.0  0.05623  0.71129  0.09501  1.0000
  C   C16       1.0  0.94377  0.28871  0.90499  1.0000
  C   C17       1.0  0.95090  0.82873  0.17340  1.0000
  C   C18       1.0  0.04910  0.17127  0.82660  1.0000
  C   C19       1.0  0.98029  0.97311  0.17984  1.0000
  C   C20       1.0  0.01971  0.02689  0.82016  1.0000
  C   C21       1.0  0.12150  0.99006  0.10507  1.0000
  C   C22       1.0  0.87850  0.00994  0.89493  1.0000
  C   C23       1.0  0.22435  0.86586  0.03073  1.0000
  C   C24       1.0  0.77565  0.13414  0.96927  1.0000
  C   C25       1.0  0.86500  0.09601  0.26122  1.0000
  C   C26       1.0  0.13500  0.90398  0.73878  1.0000
  C   C27       1.0  0.87961  0.23878  0.27729  1.0000
  C   C28       1.0  0.12039  0.76122  0.72272  1.0000
  C   C29       1.0  0.79067  0.70352  0.47258  1.0000
  C   C30       1.0  0.20933  0.29647  0.52742  1.0000
  C   C31       1.0  0.75665  0.35416  0.36284  1.0000
  C   C32       1.0  0.24335  0.64584  0.63716  1.0000
  N   N1        1.0  0.49965  0.33716  0.80530  1.0000
  N   N2        1.0  0.50035  0.66284  0.19470  1.0000
  N   N3        1.0  0.19293  0.72810  0.02490  1.0000
  N   N4        1.0  0.80707  0.27190  0.97510  1.0000
  N   N5        1.0  0.80896  0.47718  0.37911  1.0000
  N   N6        1.0  0.19104  0.52282  0.62089  1.0000
  N   N7        1.0  0.71774  0.59304  0.45794  1.0000
  N   N8        1.0  0.28226  0.40696  0.54206  1.0000
  N   N9        1.0  0.71533  0.66914  0.83521  1.0000
  N   N10       1.0  0.28467  0.33086  0.16479  1.0000
  O   O1        1.0  0.93407  0.69678  0.41469  1.0000
  O   O2        1.0  0.06593  0.30322  0.58531  1.0000
  O   O3        1.0  0.61825  0.34216  0.41654  1.0000
  O   O4        1.0  0.38175  0.65784  0.58346  1.0000
  O   O5        1.0  0.82409  0.59570  0.75194  1.0000
  O   O6        1.0  0.17590  0.40430  0.24806  1.0000
  O   O7        1.0  0.77641  0.68747  0.91955  1.0000
  O   O8        1.0  0.22360  0.31253  0.08045  1.0000
  O   O9        1.0  0.54472  0.72243  0.83394  1.0000
  O   O10       1.0  0.45528  0.27757  0.16606  1.0000
