data_image0
_chemical_formula_structural       Cu4H16C8O12
_chemical_formula_sum              "Cu4 H16 C8 O12"
_cell_length_a       3.83643
_cell_length_b       7.76899
_cell_length_c       12.8265
_cell_angle_alpha    89.9989
_cell_angle_beta     97.2279
_cell_angle_gamma    90.0024

_space_group_name_H-M_alt    "P 1"
_space_group_IT_number       1

loop_
  _space_group_symop_operation_xyz
  'x, y, z'

loop_
  _atom_site_type_symbol
  _atom_site_label
  _atom_site_symmetry_multiplicity
  _atom_site_fract_x
  _atom_site_fract_y
  _atom_site_fract_z
  _atom_site_occupancy
  Cu  Cu1       1.0  0.28388  0.56492  0.39817  1.0000
  Cu  Cu2       1.0  0.71612  0.06492  0.10184  1.0000
  Cu  Cu3       1.0  0.71614  0.43508  0.60184  1.0000
  Cu  Cu4       1.0  0.28390  0.93508  0.89816  1.0000
  H   H1        1.0  0.19967  0.27630  0.24861  1.0000
  H   H2        1.0  0.80028  0.77628  0.25138  1.0000
  H   H3        1.0  0.80036  0.72370  0.75138  1.0000
  H   H4        1.0  0.19968  0.22372  0.74861  1.0000
  H   H5        1.0  0.93927  0.19885  0.44302  1.0000
  H   H6        1.0  0.06071  0.69886  0.05699  1.0000
  H   H7        1.0  0.06071  0.80115  0.55698  1.0000
  H   H8        1.0  0.93929  0.30113  0.94302  1.0000
  H   H9        1.0  0.27568  0.11784  0.53863  1.0000
  H   H10       1.0  0.72432  0.61783  0.96138  1.0000
  H   H11       1.0  0.72431  0.88217  0.46137  1.0000
  H   H12       1.0  0.27569  0.38214  0.03863  1.0000
  H   H13       1.0  0.35245  0.13168  0.40463  1.0000
  H   H14       1.0  0.64753  0.63169  0.09537  1.0000
  H   H15       1.0  0.64754  0.86831  0.59537  1.0000
  H   H16       1.0  0.35249  0.36832  0.90464  1.0000
  C   C1        1.0  0.94369  0.34193  0.24106  1.0000
  C   C2        1.0  0.05629  0.84192  0.25894  1.0000
  C   C3        1.0  0.05631  0.65809  0.75894  1.0000
  C   C4        1.0  0.94373  0.15811  0.74105  1.0000
  C   C5        1.0  0.22518  0.19562  0.46675  1.0000
  C   C6        1.0  0.77481  0.69562  0.03326  1.0000
  C   C7        1.0  0.77481  0.80438  0.53325  1.0000
  C   C8        1.0  0.22519  0.30438  0.96675  1.0000
  O   O1        1.0  0.90269  0.47355  0.29744  1.0000
  O   O2        1.0  0.09729  0.97354  0.20255  1.0000
  O   O3        1.0  0.09733  0.52645  0.70255  1.0000
  O   O4        1.0  0.90272  0.02643  0.79745  1.0000
  O   O5        1.0  0.69603  0.28517  0.17474  1.0000
  O   O6        1.0  0.30392  0.78517  0.32526  1.0000
  O   O7        1.0  0.30399  0.71484  0.82526  1.0000
  O   O8        1.0  0.69605  0.21483  0.67474  1.0000
  O   O9        1.0  0.35584  0.36421  0.48835  1.0000
  O   O10       1.0  0.64414  0.86420  0.01164  1.0000
  O   O11       1.0  0.64414  0.63580  0.51164  1.0000
  O   O12       1.0  0.35585  0.13579  0.98835  1.0000
