data_image0
_chemical_formula_structural       Dy4H32C28N8O36
_chemical_formula_sum              "Dy4 H32 C28 N8 O36"
_cell_length_a       7.4087
_cell_length_b       12.4617
_cell_length_c       13.019
_cell_angle_alpha    90
_cell_angle_beta     90
_cell_angle_gamma    94.1393

_space_group_name_H-M_alt    "P 1"
_space_group_IT_number       1

loop_
  _space_group_symop_operation_xyz
  'x, y, z'

loop_
  _atom_site_type_symbol
  _atom_site_label
  _atom_site_symmetry_multiplicity
  _atom_site_fract_x
  _atom_site_fract_y
  _atom_site_fract_z
  _atom_site_occupancy
  Dy  Dy1       1.0  0.90193  0.83113  0.83195  1.0000
  Dy  Dy2       1.0  0.59807  0.66887  0.33196  1.0000
  Dy  Dy3       1.0  0.09807  0.16887  0.16804  1.0000
  Dy  Dy4       1.0  0.40193  0.33113  0.66804  1.0000
  H   H1        1.0  0.66986  0.78935  0.07651  1.0000
  H   H2        1.0  0.83013  0.71065  0.57651  1.0000
  H   H3        1.0  0.33013  0.21065  0.92348  1.0000
  H   H4        1.0  0.16988  0.28935  0.42348  1.0000
  H   H5        1.0  0.76643  0.41849  0.98547  1.0000
  H   H6        1.0  0.73359  0.08151  0.48548  1.0000
  H   H7        1.0  0.23360  0.58151  0.01453  1.0000
  H   H8        1.0  0.26641  0.91849  0.51453  1.0000
  H   H9        1.0  0.20733  0.70457  0.90749  1.0000
  H   H10       1.0  0.29266  0.79543  0.40749  1.0000
  H   H11       1.0  0.79267  0.29543  0.09251  1.0000
  H   H12       1.0  0.70732  0.20457  0.59251  1.0000
  H   H13       1.0  0.18888  0.81353  0.96478  1.0000
  H   H14       1.0  0.31111  0.68647  0.46479  1.0000
  H   H15       1.0  0.81111  0.18647  0.03522  1.0000
  H   H16       1.0  0.68888  0.31353  0.53522  1.0000
  H   H17       1.0  0.24710  0.86891  0.70656  1.0000
  H   H18       1.0  0.25290  0.63109  0.20656  1.0000
  H   H19       1.0  0.75290  0.13109  0.29344  1.0000
  H   H20       1.0  0.74709  0.36891  0.79345  1.0000
  H   H21       1.0  0.22286  0.74412  0.73595  1.0000
  H   H22       1.0  0.27714  0.75587  0.23595  1.0000
  H   H23       1.0  0.77714  0.25587  0.26405  1.0000
  H   H24       1.0  0.72286  0.24412  0.76405  1.0000
  H   H25       1.0  0.52180  0.88913  0.77783  1.0000
  H   H26       1.0  0.97819  0.61087  0.27783  1.0000
  H   H27       1.0  0.47820  0.11087  0.22217  1.0000
  H   H28       1.0  0.02180  0.38913  0.72218  1.0000
  H   H29       1.0  0.50292  0.76366  0.80803  1.0000
  H   H30       1.0  0.99708  0.73634  0.30803  1.0000
  H   H31       1.0  0.49708  0.23634  0.19197  1.0000
  H   H32       1.0  0.00291  0.26366  0.69197  1.0000
  C   C1        1.0  0.69277  0.70628  0.05719  1.0000
  C   C2        1.0  0.80723  0.79372  0.55719  1.0000
  C   C3        1.0  0.30724  0.29372  0.94281  1.0000
  C   C4        1.0  0.19277  0.20628  0.44280  1.0000
  C   C5        1.0  0.69114  0.52914  0.10557  1.0000
  C   C6        1.0  0.80886  0.97086  0.60557  1.0000
  C   C7        1.0  0.30888  0.47086  0.89443  1.0000
  C   C8        1.0  0.19112  0.02914  0.39443  1.0000
  C   C9        1.0  0.74451  0.50094  0.00696  1.0000
  C   C10       1.0  0.75550  0.99906  0.50696  1.0000
  C   C11       1.0  0.25551  0.49906  0.99304  1.0000
  C   C12       1.0  0.24449  0.00094  0.49304  1.0000
  C   C13       1.0  0.77750  0.58463  0.93682  1.0000
  C   C14       1.0  0.72251  0.91537  0.43682  1.0000
  C   C15       1.0  0.22251  0.41536  0.06318  1.0000
  C   C16       1.0  0.27749  0.08464  0.56317  1.0000
  C   C17       1.0  0.85842  0.56792  0.83057  1.0000
  C   C18       1.0  0.64157  0.93208  0.33058  1.0000
  C   C19       1.0  0.14156  0.43207  0.16943  1.0000
  C   C20       1.0  0.35843  0.06793  0.66942  1.0000
  C   C21       1.0  0.65710  0.44937  0.19296  1.0000
  C   C22       1.0  0.84289  0.05063  0.69297  1.0000
  C   C23       1.0  0.34290  0.55063  0.80703  1.0000
  C   C24       1.0  0.15711  0.94937  0.30703  1.0000
  C   C25       1.0  0.09745  0.01008  0.97862  1.0000
  C   C26       1.0  0.40254  0.48992  0.47864  1.0000
  C   C27       1.0  0.90254  0.98993  0.02136  1.0000
  C   C28       1.0  0.59746  0.51007  0.52138  1.0000
  N   N1        1.0  0.74924  0.68683  0.96158  1.0000
  N   N2        1.0  0.75076  0.81317  0.46158  1.0000
  N   N3        1.0  0.25076  0.31316  0.03842  1.0000
  N   N4        1.0  0.24924  0.18684  0.53842  1.0000
  N   N5        1.0  0.66742  0.63181  0.13083  1.0000
  N   N6        1.0  0.83258  0.86819  0.63083  1.0000
  N   N7        1.0  0.33259  0.36819  0.86917  1.0000
  N   N8        1.0  0.16741  0.13181  0.36917  1.0000
  O   O1        1.0  0.88717  0.65196  0.77623  1.0000
  O   O2        1.0  0.61282  0.84804  0.27624  1.0000
  O   O3        1.0  0.11282  0.34803  0.22376  1.0000
  O   O4        1.0  0.38718  0.15197  0.72376  1.0000
  O   O5        1.0  0.89720  0.47387  0.80753  1.0000
  O   O6        1.0  0.60279  0.02613  0.30753  1.0000
  O   O7        1.0  0.10279  0.52614  0.19247  1.0000
  O   O8        1.0  0.39721  0.97386  0.69247  1.0000
  O   O9        1.0  0.62741  0.48833  0.27988  1.0000
  O   O10       1.0  0.87259  0.01167  0.77988  1.0000
  O   O11       1.0  0.37258  0.51167  0.72012  1.0000
  O   O12       1.0  0.12741  0.98833  0.22012  1.0000
  O   O13       1.0  0.65879  0.34923  0.17303  1.0000
  O   O14       1.0  0.84120  0.15077  0.67304  1.0000
  O   O15       1.0  0.34121  0.65078  0.82697  1.0000
  O   O16       1.0  0.15879  0.84922  0.32697  1.0000
  O   O17       1.0  0.14221  0.94998  0.90584  1.0000
  O   O18       1.0  0.35780  0.55002  0.40585  1.0000
  O   O19       1.0  0.85779  0.05002  0.09413  1.0000
  O   O20       1.0  0.64221  0.44998  0.59415  1.0000
  O   O21       1.0  0.19608  0.08457  0.02055  1.0000
  O   O22       1.0  0.30394  0.41544  0.52057  1.0000
  O   O23       1.0  0.80393  0.91543  0.97943  1.0000
  O   O24       1.0  0.69608  0.58457  0.47944  1.0000
  O   O25       1.0  0.12040  0.74541  0.94841  1.0000
  O   O26       1.0  0.37960  0.75459  0.44841  1.0000
  O   O27       1.0  0.87961  0.25459  0.05158  1.0000
  O   O28       1.0  0.62039  0.24541  0.55159  1.0000
  O   O29       1.0  0.15633  0.80795  0.72152  1.0000
  O   O30       1.0  0.34367  0.69204  0.22153  1.0000
  O   O31       1.0  0.84367  0.19204  0.27847  1.0000
  O   O32       1.0  0.65633  0.30795  0.77848  1.0000
  O   O33       1.0  0.58708  0.82857  0.80456  1.0000
  O   O34       1.0  0.91291  0.67143  0.30457  1.0000
  O   O35       1.0  0.41292  0.17143  0.19544  1.0000
  O   O36       1.0  0.08708  0.32857  0.69544  1.0000
