data_image0
_chemical_formula_structural       CuH10C12N2Cl2O4
_chemical_formula_sum              "Cu1 H10 C12 N2 Cl2 O4"
_cell_length_a       3.75802
_cell_length_b       7.26379
_cell_length_c       12.5408
_cell_angle_alpha    76.1706
_cell_angle_beta     89.3326
_cell_angle_gamma    83.4581

_space_group_name_H-M_alt    "P 1"
_space_group_IT_number       1

loop_
  _space_group_symop_operation_xyz
  'x, y, z'

loop_
  _atom_site_type_symbol
  _atom_site_label
  _atom_site_symmetry_multiplicity
  _atom_site_fract_x
  _atom_site_fract_y
  _atom_site_fract_z
  _atom_site_occupancy
  Cu  Cu1       1.0  0.99999  0.99998  0.00001  1.0000
  H   H1        1.0  0.84994  0.64489  0.94781  1.0000
  H   H2        1.0  0.15008  0.35510  0.05218  1.0000
  H   H3        1.0  0.97568  0.48363  0.79499  1.0000
  H   H4        1.0  0.02433  0.51637  0.20500  1.0000
  H   H5        1.0  0.35222  0.00523  0.60748  1.0000
  H   H6        1.0  0.64777  0.99477  0.39252  1.0000
  H   H7        1.0  0.20135  0.14676  0.76991  1.0000
  H   H8        1.0  0.79864  0.85322  0.23009  1.0000
  H   H9        1.0  0.35150  0.39364  0.55828  1.0000
  H   H10       1.0  0.64852  0.60637  0.44170  1.0000
  C   C1        1.0  0.96281  0.71847  0.87116  1.0000
  C   C2        1.0  0.03717  0.28151  0.12885  1.0000
  C   C3        1.0  0.03218  0.63039  0.78496  1.0000
  C   C4        1.0  0.96782  0.36961  0.21505  1.0000
  C   C5        1.0  0.18326  0.73194  0.68966  1.0000
  C   C6        1.0  0.81671  0.26808  0.31035  1.0000
  C   C7        1.0  0.23815  0.92227  0.68125  1.0000
  C   C8        1.0  0.76185  0.07774  0.31876  1.0000
  C   C9        1.0  0.15646  0.00109  0.77050  1.0000
  C   C10       1.0  0.84354  0.99892  0.22950  1.0000
  C   C11       1.0  0.30657  0.63629  0.60133  1.0000
  C   C12       1.0  0.69346  0.36371  0.39865  1.0000
  N   N1        1.0  0.03202  0.89823  0.86471  1.0000
  N   N2        1.0  0.96799  0.10174  0.13528  1.0000
  Cl  Cl1       1.0  0.41705  0.75405  0.08588  1.0000
  Cl  Cl2       1.0  0.58296  0.24595  0.91413  1.0000
  O   O1        1.0  0.23082  0.45922  0.61664  1.0000
  O   O2        1.0  0.76913  0.54077  0.38337  1.0000
  O   O3        1.0  0.47785  0.71873  0.52144  1.0000
  O   O4        1.0  0.52219  0.28131  0.47854  1.0000
