data_image0
_chemical_formula_structural       La4H24C28N8O32
_chemical_formula_sum              "La4 H24 C28 N8 O32"
_cell_length_a       7.0622
_cell_length_b       9.92932
_cell_length_c       15.1287
_cell_angle_alpha    90.0002
_cell_angle_beta     89.9999
_cell_angle_gamma    99.3939

_space_group_name_H-M_alt    "P 1"
_space_group_IT_number       1

loop_
  _space_group_symop_operation_xyz
  'x, y, z'

loop_
  _atom_site_type_symbol
  _atom_site_label
  _atom_site_symmetry_multiplicity
  _atom_site_fract_x
  _atom_site_fract_y
  _atom_site_fract_z
  _atom_site_occupancy
  La  La1       1.0  0.20280  0.83741  0.86030  1.0000
  La  La2       1.0  0.29719  0.66260  0.36030  1.0000
  La  La3       1.0  0.79718  0.16258  0.13970  1.0000
  La  La4       1.0  0.70281  0.33741  0.63970  1.0000
  H   H1        1.0  0.49890  0.63136  0.73186  1.0000
  H   H2        1.0  0.00112  0.86865  0.23186  1.0000
  H   H3        1.0  0.50111  0.36865  0.26814  1.0000
  H   H4        1.0  0.99889  0.13135  0.76815  1.0000
  H   H5        1.0  0.25297  0.29136  0.95347  1.0000
  H   H6        1.0  0.24702  0.20864  0.45346  1.0000
  H   H7        1.0  0.74703  0.70862  0.04653  1.0000
  H   H8        1.0  0.75299  0.79136  0.54653  1.0000
  H   H9        1.0  0.36623  0.90833  0.66448  1.0000
  H   H10       1.0  0.13377  0.59167  0.16448  1.0000
  H   H11       1.0  0.63378  0.09166  0.33552  1.0000
  H   H12       1.0  0.86623  0.40833  0.83552  1.0000
  H   H13       1.0  0.49626  0.98216  0.73790  1.0000
  H   H14       1.0  0.00373  0.51784  0.23790  1.0000
  H   H15       1.0  0.50374  0.01783  0.26210  1.0000
  H   H16       1.0  0.99626  0.48217  0.76211  1.0000
  H   H17       1.0  0.74055  0.81682  0.89457  1.0000
  H   H18       1.0  0.75944  0.68318  0.39457  1.0000
  H   H19       1.0  0.25944  0.18318  0.10543  1.0000
  H   H20       1.0  0.24056  0.31683  0.60543  1.0000
  H   H21       1.0  0.81017  0.67013  0.90912  1.0000
  H   H22       1.0  0.68984  0.82988  0.40912  1.0000
  H   H23       1.0  0.18983  0.32986  0.09088  1.0000
  H   H24       1.0  0.31017  0.17014  0.59088  1.0000
  C   C1        1.0  0.44867  0.55600  0.78262  1.0000
  C   C2        1.0  0.05134  0.94400  0.28262  1.0000
  C   C3        1.0  0.55133  0.44400  0.21738  1.0000
  C   C4        1.0  0.94867  0.05600  0.71738  1.0000
  C   C5        1.0  0.40249  0.33334  0.82906  1.0000
  C   C6        1.0  0.09752  0.16667  0.32906  1.0000
  C   C7        1.0  0.59752  0.66666  0.17094  1.0000
  C   C8        1.0  0.90248  0.83334  0.67095  1.0000
  C   C9        1.0  0.31298  0.36877  0.90577  1.0000
  C   C10       1.0  0.18701  0.13124  0.40577  1.0000
  C   C11       1.0  0.68701  0.63123  0.09422  1.0000
  C   C12       1.0  0.81299  0.86877  0.59423  1.0000
  C   C13       1.0  0.30324  0.50665  0.91734  1.0000
  C   C14       1.0  0.19677  0.99337  0.41733  1.0000
  C   C15       1.0  0.69677  0.49335  0.08267  1.0000
  C   C16       1.0  0.80323  0.00664  0.58267  1.0000
  C   C17       1.0  0.22404  0.56524  0.99965  1.0000
  C   C18       1.0  0.27595  0.93478  0.49963  1.0000
  C   C19       1.0  0.77596  0.43477  0.00036  1.0000
  C   C20       1.0  0.72405  0.06524  0.50036  1.0000
  C   C21       1.0  0.41909  0.18620  0.80906  1.0000
  C   C22       1.0  0.08091  0.31379  0.30906  1.0000
  C   C23       1.0  0.58091  0.81379  0.19094  1.0000
  C   C24       1.0  0.91909  0.68621  0.69094  1.0000
  C   C25       1.0  0.58708  0.98011  0.97424  1.0000
  C   C26       1.0  0.91291  0.51987  0.47423  1.0000
  C   C27       1.0  0.41291  0.01985  0.02577  1.0000
  C   C28       1.0  0.08706  0.48014  0.52576  1.0000
  N   N1        1.0  0.36194  0.59871  0.85337  1.0000
  N   N2        1.0  0.13809  0.90130  0.35336  1.0000
  N   N3        1.0  0.63807  0.40129  0.14663  1.0000
  N   N4        1.0  0.86193  0.09871  0.64663  1.0000
  N   N5        1.0  0.47837  0.42769  0.76949  1.0000
  N   N6        1.0  0.02164  0.07231  0.26950  1.0000
  N   N7        1.0  0.52164  0.57231  0.23051  1.0000
  N   N8        1.0  0.97837  0.92770  0.73051  1.0000
  O   O1        1.0  0.17240  0.68052  0.99062  1.0000
  O   O2        1.0  0.32761  0.81951  0.49062  1.0000
  O   O3        1.0  0.82760  0.31949  0.00938  1.0000
  O   O4        1.0  0.67239  0.18051  0.50939  1.0000
  O   O5        1.0  0.21817  0.49872  0.07133  1.0000
  O   O6        1.0  0.28183  0.00127  0.57132  1.0000
  O   O7        1.0  0.78183  0.50127  0.92867  1.0000
  O   O8        1.0  0.71819  0.99873  0.42867  1.0000
  O   O9        1.0  0.55735  0.16450  0.75976  1.0000
  O   O10       1.0  0.94265  0.33551  0.25977  1.0000
  O   O11       1.0  0.44264  0.83550  0.24023  1.0000
  O   O12       1.0  0.05735  0.66449  0.74024  1.0000
  O   O13       1.0  0.29254  0.09672  0.84278  1.0000
  O   O14       1.0  0.20744  0.40329  0.34277  1.0000
  O   O15       1.0  0.70747  0.90327  0.15723  1.0000
  O   O16       1.0  0.79254  0.59674  0.65722  1.0000
  O   O17       1.0  0.54606  0.89276  0.91206  1.0000
  O   O18       1.0  0.95392  0.60720  0.41204  1.0000
  O   O19       1.0  0.45389  0.10720  0.08795  1.0000
  O   O20       1.0  0.04609  0.39277  0.58794  1.0000
  O   O21       1.0  0.75301  0.03390  0.99650  1.0000
  O   O22       1.0  0.74698  0.46608  0.49649  1.0000
  O   O23       1.0  0.24697  0.96609  0.00351  1.0000
  O   O24       1.0  0.25300  0.53390  0.50349  1.0000
  O   O25       1.0  0.42384  0.89071  0.72256  1.0000
  O   O26       1.0  0.07615  0.60929  0.22256  1.0000
  O   O27       1.0  0.57617  0.10929  0.27744  1.0000
  O   O28       1.0  0.92385  0.39071  0.77744  1.0000
  O   O29       1.0  0.85255  0.76727  0.89187  1.0000
  O   O30       1.0  0.64745  0.73273  0.39187  1.0000
  O   O31       1.0  0.14744  0.23272  0.10813  1.0000
  O   O32       1.0  0.35257  0.26729  0.60813  1.0000
