data_image0
_chemical_formula_structural       Mn2H32C36N4O12
_chemical_formula_sum              "Mn2 H32 C36 N4 O12"
_cell_length_a       7.05813
_cell_length_b       9.98207
_cell_length_c       11.8649
_cell_angle_alpha    88.8647
_cell_angle_beta     77.5054
_cell_angle_gamma    89.2389

_space_group_name_H-M_alt    "P 1"
_space_group_IT_number       1

loop_
  _space_group_symop_operation_xyz
  'x, y, z'

loop_
  _atom_site_type_symbol
  _atom_site_label
  _atom_site_symmetry_multiplicity
  _atom_site_fract_x
  _atom_site_fract_y
  _atom_site_fract_z
  _atom_site_occupancy
  Mn  Mn1       1.0  0.31938  0.02247  0.73776  1.0000
  Mn  Mn2       1.0  0.68062  0.97753  0.26225  1.0000
  H   H1        1.0  0.17588  0.28000  0.88326  1.0000
  H   H2        1.0  0.82412  0.71999  0.11674  1.0000
  H   H3        1.0  0.12281  0.35767  0.08974  1.0000
  H   H4        1.0  0.87719  0.64232  0.91027  1.0000
  H   H5        1.0  0.17598  0.19036  0.24166  1.0000
  H   H6        1.0  0.82402  0.80963  0.75834  1.0000
  H   H7        1.0  0.26310  0.95683  0.18618  1.0000
  H   H8        1.0  0.73689  0.04317  0.81382  1.0000
  H   H9        1.0  0.28797  0.76131  0.13365  1.0000
  H   H10       1.0  0.71204  0.23868  0.86635  1.0000
  H   H11       1.0  0.32940  0.53243  0.05510  1.0000
  H   H12       1.0  0.67059  0.46757  0.94489  1.0000
  H   H13       1.0  0.37469  0.50249  0.83960  1.0000
  H   H14       1.0  0.62530  0.49751  0.16040  1.0000
  H   H15       1.0  0.37226  0.70777  0.71475  1.0000
  H   H16       1.0  0.62774  0.29223  0.28525  1.0000
  H   H17       1.0  0.16620  0.41409  0.68163  1.0000
  H   H18       1.0  0.83380  0.58591  0.31837  1.0000
  H   H19       1.0  0.05756  0.65177  0.65973  1.0000
  H   H20       1.0  0.94245  0.34823  0.34027  1.0000
  H   H21       1.0  0.73498  0.69690  0.61323  1.0000
  H   H22       1.0  0.26504  0.30310  0.38676  1.0000
  H   H23       1.0  0.52162  0.50815  0.59190  1.0000
  H   H24       1.0  0.47839  0.49186  0.40809  1.0000
  H   H25       1.0  0.06827  0.96276  0.61056  1.0000
  H   H26       1.0  0.93173  0.03724  0.38944  1.0000
  H   H27       1.0  0.24420  0.85595  0.56867  1.0000
  H   H28       1.0  0.75581  0.14405  0.43132  1.0000
  H   H29       1.0  0.57123  0.88586  0.55456  1.0000
  H   H30       1.0  0.42878  0.11414  0.44544  1.0000
  H   H31       1.0  0.70247  0.98798  0.60766  1.0000
  H   H32       1.0  0.29753  0.01202  0.39234  1.0000
  C   C1        1.0  0.19282  0.21258  0.95392  1.0000
  C   C2        1.0  0.80718  0.78742  0.04608  1.0000
  C   C3        1.0  0.16547  0.25464  0.06767  1.0000
  C   C4        1.0  0.83453  0.74536  0.93234  1.0000
  C   C5        1.0  0.19235  0.16182  0.15223  1.0000
  C   C6        1.0  0.80765  0.83818  0.84777  1.0000
  C   C7        1.0  0.24020  0.02997  0.12123  1.0000
  C   C8        1.0  0.75980  0.97002  0.87877  1.0000
  C   C9        1.0  0.25916  0.99424  0.00602  1.0000
  C   C10       1.0  0.74083  0.00576  0.99399  1.0000
  C   C11       1.0  0.29773  0.85532  0.96589  1.0000
  C   C12       1.0  0.70226  0.14468  0.03411  1.0000
  C   C13       1.0  0.30225  0.74656  0.04160  1.0000
  C   C14       1.0  0.69775  0.25344  0.95840  1.0000
  C   C15       1.0  0.32722  0.61813  0.99704  1.0000
  C   C16       1.0  0.67277  0.38187  0.00296  1.0000
  C   C17       1.0  0.35139  0.60112  0.87826  1.0000
  C   C18       1.0  0.64860  0.39888  0.12173  1.0000
  C   C19       1.0  0.35002  0.71478  0.80827  1.0000
  C   C20       1.0  0.64997  0.28522  0.19173  1.0000
  C   C21       1.0  0.72264  0.35552  0.62549  1.0000
  C   C22       1.0  0.27736  0.64449  0.37451  1.0000
  C   C23       1.0  0.90603  0.32903  0.64972  1.0000
  C   C24       1.0  0.09397  0.67097  0.35028  1.0000
  C   C25       1.0  0.02393  0.43669  0.66376  1.0000
  C   C26       1.0  0.97607  0.56331  0.33624  1.0000
  C   C27       1.0  0.96330  0.56853  0.65153  1.0000
  C   C28       1.0  0.03671  0.43147  0.34847  1.0000
  C   C29       1.0  0.78256  0.59421  0.62504  1.0000
  C   C30       1.0  0.21745  0.40579  0.37496  1.0000
  C   C31       1.0  0.66269  0.48801  0.61269  1.0000
  C   C32       1.0  0.33732  0.51199  0.38731  1.0000
  C   C33       1.0  0.58486  0.24383  0.61971  1.0000
  C   C34       1.0  0.41514  0.75617  0.38029  1.0000
  C   C35       1.0  0.98263  0.18859  0.65647  1.0000
  C   C36       1.0  0.01737  0.81141  0.34353  1.0000
  N   N1        1.0  0.23865  0.08551  0.92376  1.0000
  N   N2        1.0  0.76134  0.91449  0.07624  1.0000
  N   N3        1.0  0.32268  0.83866  0.85074  1.0000
  N   N4        1.0  0.67731  0.16134  0.14926  1.0000
  O   O1        1.0  0.51400  0.18579  0.71607  1.0000
  O   O2        1.0  0.48600  0.81421  0.28393  1.0000
  O   O3        1.0  0.54590  0.21863  0.52290  1.0000
  O   O4        1.0  0.45410  0.78137  0.47710  1.0000
  O   O5        1.0  0.91801  0.09487  0.60384  1.0000
  O   O6        1.0  0.08200  0.90513  0.39617  1.0000
  O   O7        1.0  0.11321  0.17281  0.71481  1.0000
  O   O8        1.0  0.88678  0.82719  0.28519  1.0000
  O   O9        1.0  0.16513  0.90129  0.63656  1.0000
  O   O10       1.0  0.83487  0.09871  0.36344  1.0000
  O   O11       1.0  0.59316  0.92519  0.62693  1.0000
  O   O12       1.0  0.40684  0.07481  0.37307  1.0000
