data_image0
_chemical_formula_structural       Co2H24C36S4N4
_chemical_formula_sum              "Co2 H24 C36 S4 N4"
_cell_length_a       3.65378
_cell_length_b       12.8046
_cell_length_c       14.2832
_cell_angle_alpha    90.0063
_cell_angle_beta     90.0036
_cell_angle_gamma    93.2928

_space_group_name_H-M_alt    "P 1"
_space_group_IT_number       1

loop_
  _space_group_symop_operation_xyz
  'x, y, z'

loop_
  _atom_site_type_symbol
  _atom_site_label
  _atom_site_symmetry_multiplicity
  _atom_site_fract_x
  _atom_site_fract_y
  _atom_site_fract_z
  _atom_site_occupancy
  Co  Co1       1.0  0.00000  0.00000  0.50000  1.0000
  Co  Co2       1.0  1.00000  0.50000  1.00000  1.0000
  H   H1        1.0  0.67658  0.57710  0.28695  1.0000
  H   H2        1.0  0.32318  0.92289  0.78699  1.0000
  H   H3        1.0  0.32343  0.42290  0.71305  1.0000
  H   H4        1.0  0.67681  0.07711  0.21301  1.0000
  H   H5        1.0  0.27980  0.67184  0.55709  1.0000
  H   H6        1.0  0.72016  0.82819  0.05709  1.0000
  H   H7        1.0  0.72020  0.32816  0.44291  1.0000
  H   H8        1.0  0.27982  0.17181  0.94291  1.0000
  H   H9        1.0  0.01031  0.71094  0.18390  1.0000
  H   H10       1.0  0.98945  0.78907  0.68391  1.0000
  H   H11       1.0  0.98971  0.28906  0.81610  1.0000
  H   H12       1.0  0.01055  0.21093  0.31609  1.0000
  H   H13       1.0  0.22538  0.01976  0.29953  1.0000
  H   H14       1.0  0.77458  0.48028  0.79949  1.0000
  H   H15       1.0  0.77463  0.98024  0.70047  1.0000
  H   H16       1.0  0.22541  0.51972  0.20051  1.0000
  H   H17       1.0  0.34247  0.53500  0.43589  1.0000
  H   H18       1.0  0.65732  0.96501  0.93590  1.0000
  H   H19       1.0  0.65754  0.46500  0.56411  1.0000
  H   H20       1.0  0.34266  0.03499  0.06409  1.0000
  H   H21       1.0  0.25648  0.89677  0.16557  1.0000
  H   H22       1.0  0.74327  0.60326  0.66558  1.0000
  H   H23       1.0  0.74355  0.10323  0.83443  1.0000
  H   H24       1.0  0.25673  0.39674  0.33442  1.0000
  C   C1        1.0  0.59775  0.79021  0.48136  1.0000
  C   C2        1.0  0.40190  0.70986  0.98141  1.0000
  C   C3        1.0  0.40224  0.20979  0.51864  1.0000
  C   C4        1.0  0.59809  0.29014  0.01859  1.0000
  C   C5        1.0  0.81246  0.73780  0.32506  1.0000
  C   C6        1.0  0.18762  0.76219  0.82505  1.0000
  C   C7        1.0  0.18754  0.26221  0.67494  1.0000
  C   C8        1.0  0.81240  0.23780  0.17495  1.0000
  C   C9        1.0  0.79423  0.81427  0.39735  1.0000
  C   C10       1.0  0.20564  0.68576  0.89736  1.0000
  C   C11       1.0  0.20576  0.18574  0.60265  1.0000
  C   C12       1.0  0.79436  0.31424  0.10264  1.0000
  C   C13       1.0  0.65344  0.63592  0.34137  1.0000
  C   C14       1.0  0.34661  0.86407  0.84137  1.0000
  C   C15       1.0  0.34657  0.36408  0.65863  1.0000
  C   C16       1.0  0.65338  0.13592  0.15863  1.0000
  C   C17       1.0  0.43741  0.68966  0.49378  1.0000
  C   C18       1.0  0.56245  0.81038  0.99378  1.0000
  C   C19       1.0  0.56258  0.31034  0.50622  1.0000
  C   C20       1.0  0.43754  0.18962  0.00622  1.0000
  C   C21       1.0  0.98729  0.76787  0.24012  1.0000
  C   C22       1.0  0.01270  0.73213  0.74011  1.0000
  C   C23       1.0  0.01271  0.23213  0.75988  1.0000
  C   C24       1.0  0.98733  0.26786  0.25989  1.0000
  C   C25       1.0  0.10719  0.94008  0.30533  1.0000
  C   C26       1.0  0.89283  0.55996  0.80531  1.0000
  C   C27       1.0  0.89281  0.05992  0.69467  1.0000
  C   C28       1.0  0.10718  0.44004  0.19468  1.0000
  C   C29       1.0  0.47079  0.61291  0.42434  1.0000
  C   C30       1.0  0.52916  0.88711  0.92433  1.0000
  C   C31       1.0  0.52921  0.38709  0.57566  1.0000
  C   C32       1.0  0.47082  0.11289  0.07567  1.0000
  C   C33       1.0  0.12358  0.87003  0.23016  1.0000
  C   C34       1.0  0.87641  0.63000  0.73015  1.0000
  C   C35       1.0  0.87642  0.12997  0.76984  1.0000
  C   C36       1.0  0.12361  0.37000  0.26985  1.0000
  S   S1        1.0  0.55470  0.89279  0.55920  1.0000
  S   S2        1.0  0.44480  0.60731  0.05928  1.0000
  S   S3        1.0  0.44530  0.10721  0.44080  1.0000
  S   S4        1.0  0.55519  0.39269  0.94072  1.0000
  N   N1        1.0  0.95736  0.91375  0.38846  1.0000
  N   N2        1.0  0.04250  0.58625  0.88847  1.0000
  N   N3        1.0  0.04263  0.08625  0.61154  1.0000
  N   N4        1.0  0.95750  0.41375  0.11153  1.0000
