data_image0
_chemical_formula_structural       Cd2H20C28S4N8
_chemical_formula_sum              "Cd2 H20 C28 S4 N8"
_cell_length_a       8.9325
_cell_length_b       9.1284
_cell_length_c       9.91126
_cell_angle_alpha    100.243
_cell_angle_beta     99.4365
_cell_angle_gamma    103.01

_space_group_name_H-M_alt    "P 1"
_space_group_IT_number       1

loop_
  _space_group_symop_operation_xyz
  'x, y, z'

loop_
  _atom_site_type_symbol
  _atom_site_label
  _atom_site_symmetry_multiplicity
  _atom_site_fract_x
  _atom_site_fract_y
  _atom_site_fract_z
  _atom_site_occupancy
  Cd  Cd1       1.0  0.88803  0.09823  0.24761  1.0000
  Cd  Cd2       1.0  0.11197  0.90177  0.75239  1.0000
  H   H1        1.0  0.82968  0.54638  0.25526  1.0000
  H   H2        1.0  0.17032  0.45362  0.74474  1.0000
  H   H3        1.0  0.57308  0.52772  0.30917  1.0000
  H   H4        1.0  0.42692  0.47228  0.69083  1.0000
  H   H5        1.0  0.33855  0.37905  0.38247  1.0000
  H   H6        1.0  0.66145  0.62095  0.61752  1.0000
  H   H7        1.0  0.33410  0.11341  0.41902  1.0000
  H   H8        1.0  0.66590  0.88659  0.58098  1.0000
  H   H9        1.0  0.56148  0.00419  0.37467  1.0000
  H   H10       1.0  0.43852  0.99581  0.62533  1.0000
  H   H11       1.0  0.09437  0.65398  0.35313  1.0000
  H   H12       1.0  0.90562  0.34601  0.64687  1.0000
  H   H13       1.0  0.32774  0.80262  0.28532  1.0000
  H   H14       1.0  0.67226  0.19738  0.71468  1.0000
  H   H15       1.0  0.43411  0.68203  0.08969  1.0000
  H   H16       1.0  0.56589  0.31797  0.91031  1.0000
  H   H17       1.0  0.30683  0.40773  0.96357  1.0000
  H   H18       1.0  0.69317  0.59228  0.03643  1.0000
  H   H19       1.0  0.07048  0.26053  0.02706  1.0000
  H   H20       1.0  0.92952  0.73947  0.97294  1.0000
  C   C1        1.0  0.82404  0.42602  0.25985  1.0000
  C   C2        1.0  0.17596  0.57398  0.74015  1.0000
  C   C3        1.0  0.68716  0.34243  0.30391  1.0000
  C   C4        1.0  0.31284  0.65757  0.69609  1.0000
  C   C5        1.0  0.56563  0.41160  0.32593  1.0000
  C   C6        1.0  0.43437  0.58839  0.67406  1.0000
  C   C7        1.0  0.43625  0.32924  0.36742  1.0000
  C   C8        1.0  0.56374  0.67076  0.63258  1.0000
  C   C9        1.0  0.43346  0.18167  0.38773  1.0000
  C   C10       1.0  0.56654  0.81834  0.61226  1.0000
  C   C11       1.0  0.55890  0.12042  0.36286  1.0000
  C   C12       1.0  0.44110  0.87958  0.63714  1.0000
  C   C13       1.0  0.06542  0.44878  0.19180  1.0000
  C   C14       1.0  0.93458  0.55122  0.80820  1.0000
  C   C15       1.0  0.13938  0.60148  0.26592  1.0000
  C   C16       1.0  0.86062  0.39852  0.73408  1.0000
  C   C17       1.0  0.27163  0.68399  0.22868  1.0000
  C   C18       1.0  0.72836  0.31601  0.77132  1.0000
  C   C19       1.0  0.33180  0.61582  0.11926  1.0000
  C   C20       1.0  0.66820  0.38418  0.88074  1.0000
  C   C21       1.0  0.26027  0.46295  0.04817  1.0000
  C   C22       1.0  0.73973  0.53705  0.95183  1.0000
  C   C23       1.0  0.12784  0.37885  0.08405  1.0000
  C   C24       1.0  0.87216  0.62115  0.91595  1.0000
  C   C25       1.0  0.87013  0.81449  0.42749  1.0000
  C   C26       1.0  0.12987  0.18550  0.57250  1.0000
  C   C27       1.0  0.81874  0.98739  0.89732  1.0000
  C   C28       1.0  0.18128  0.01261  0.10268  1.0000
  S   S1        1.0  0.74417  0.81795  0.28945  1.0000
  S   S2        1.0  0.25583  0.18205  0.71055  1.0000
  S   S3        1.0  0.68368  0.99721  0.98790  1.0000
  S   S4        1.0  0.31633  0.00279  0.01211  1.0000
  N   N1        1.0  0.93078  0.36158  0.22526  1.0000
  N   N2        1.0  0.06922  0.63841  0.77474  1.0000
  N   N3        1.0  0.68212  0.19818  0.32171  1.0000
  N   N4        1.0  0.31788  0.80182  0.67829  1.0000
  N   N5        1.0  0.96018  0.80613  0.52574  1.0000
  N   N6        1.0  0.03982  0.19386  0.47426  1.0000
  N   N7        1.0  0.91429  0.98105  0.82820  1.0000
  N   N8        1.0  0.08571  0.01896  0.17180  1.0000
