data_image0
_chemical_formula_structural       H22Pb2C20S4N10
_chemical_formula_sum              "H22 Pb2 C20 S4 N10"
_cell_length_a       7.20226
_cell_length_b       9.62662
_cell_length_c       11.1854
_cell_angle_alpha    65.6608
_cell_angle_beta     83.8103
_cell_angle_gamma    69.5532

_space_group_name_H-M_alt    "P 1"
_space_group_IT_number       1

loop_
  _space_group_symop_operation_xyz
  'x, y, z'

loop_
  _atom_site_type_symbol
  _atom_site_label
  _atom_site_symmetry_multiplicity
  _atom_site_fract_x
  _atom_site_fract_y
  _atom_site_fract_z
  _atom_site_occupancy
  H   H1        1.0  0.67184  0.58164  0.92849  1.0000
  H   H2        1.0  0.32818  0.41836  0.07151  1.0000
  H   H3        1.0  0.09045  0.15585  0.55154  1.0000
  H   H4        1.0  0.90950  0.84416  0.44843  1.0000
  H   H5        1.0  0.06779  0.20162  0.31545  1.0000
  H   H6        1.0  0.93224  0.79840  0.68452  1.0000
  H   H7        1.0  0.54190  0.69439  0.61744  1.0000
  H   H8        1.0  0.45802  0.30559  0.38258  1.0000
  H   H9        1.0  0.33587  0.89474  0.70391  1.0000
  H   H10       1.0  0.66402  0.10526  0.29609  1.0000
  H   H11       1.0  0.76202  0.50065  0.39197  1.0000
  H   H12       1.0  0.23807  0.49938  0.60803  1.0000
  H   H13       1.0  0.64531  0.51196  0.53922  1.0000
  H   H14       1.0  0.35469  0.48800  0.46077  1.0000
  H   H15       1.0  0.81466  0.61520  0.46640  1.0000
  H   H16       1.0  0.18531  0.38482  0.53366  1.0000
  H   H17       1.0  0.88147  0.33837  0.05470  1.0000
  H   H18       1.0  0.11854  0.66162  0.94531  1.0000
  H   H19       1.0  0.75194  0.35290  0.19732  1.0000
  H   H20       1.0  0.24812  0.64709  0.80269  1.0000
  H   H21       1.0  0.94829  0.43458  0.14309  1.0000
  H   H22       1.0  0.05175  0.56542  0.85689  1.0000
  Pb  Pb1       1.0  0.23380  0.01829  0.10373  1.0000
  Pb  Pb2       1.0  0.76624  0.98171  0.89625  1.0000
  C   C1        1.0  0.41319  0.84035  0.41809  1.0000
  C   C2        1.0  0.58681  0.15965  0.58192  1.0000
  C   C3        1.0  0.43443  0.80650  0.55186  1.0000
  C   C4        1.0  0.56552  0.19349  0.44815  1.0000
  C   C5        1.0  0.31823  0.91972  0.60057  1.0000
  C   C6        1.0  0.68170  0.08028  0.39943  1.0000
  C   C7        1.0  0.18372  0.06489  0.51644  1.0000
  C   C8        1.0  0.81624  0.93512  0.48354  1.0000
  C   C9        1.0  0.17019  0.08997  0.38545  1.0000
  C   C10       1.0  0.82982  0.91004  0.61453  1.0000
  C   C11       1.0  0.53452  0.72665  0.36124  1.0000
  C   C12       1.0  0.46549  0.27334  0.63876  1.0000
  C   C13       1.0  0.69754  0.57922  0.44443  1.0000
  C   C14       1.0  0.30248  0.42079  0.55558  1.0000
  C   C15       1.0  0.57706  0.68178  0.06516  1.0000
  C   C16       1.0  0.42296  0.31821  0.93484  1.0000
  C   C17       1.0  0.82497  0.41427  0.11034  1.0000
  C   C18       1.0  0.17506  0.58572  0.88966  1.0000
  C   C19       1.0  0.13830  0.62257  0.21131  1.0000
  C   C20       1.0  0.86168  0.37746  0.78869  1.0000
  S   S1        1.0  0.42226  0.85949  0.94381  1.0000
  S   S2        1.0  0.57778  0.14051  0.05619  1.0000
  S   S3        1.0  0.99693  0.79812  0.21203  1.0000
  S   S4        1.0  0.00308  0.20191  0.78797  1.0000
  N   N1        1.0  0.28009  0.98139  0.33820  1.0000
  N   N2        1.0  0.71993  0.01861  0.66178  1.0000
  N   N3        1.0  0.49702  0.76012  0.23772  1.0000
  N   N4        1.0  0.50299  0.23987  0.76229  1.0000
  N   N5        1.0  0.60635  0.65107  0.19007  1.0000
  N   N6        1.0  0.39366  0.34891  0.80994  1.0000
  N   N7        1.0  0.68512  0.56566  0.02421  1.0000
  N   N8        1.0  0.31489  0.43433  0.97580  1.0000
  N   N9        1.0  0.23609  0.49463  0.21170  1.0000
  N   N10       1.0  0.76387  0.50539  0.78830  1.0000
