data_image0
_chemical_formula_structural       Cd2H52C56N16O8
_chemical_formula_sum              "Cd2 H52 C56 N16 O8"
_cell_length_a       8.32191
_cell_length_b       11.8669
_cell_length_c       14.4138
_cell_angle_alpha    90
_cell_angle_beta     105.193
_cell_angle_gamma    90

_space_group_name_H-M_alt    "P 1"
_space_group_IT_number       1

loop_
  _space_group_symop_operation_xyz
  'x, y, z'

loop_
  _atom_site_type_symbol
  _atom_site_label
  _atom_site_symmetry_multiplicity
  _atom_site_fract_x
  _atom_site_fract_y
  _atom_site_fract_z
  _atom_site_occupancy
  Cd  Cd1       1.0  0.00000  0.50000  0.50000  1.0000
  Cd  Cd2       1.0  0.00000  0.00000  1.00000  1.0000
  H   H1        1.0  0.49956  0.96717  0.32988  1.0000
  H   H2        1.0  0.50044  0.46717  0.17012  1.0000
  H   H3        1.0  0.50044  0.03283  0.67012  1.0000
  H   H4        1.0  0.49956  0.53283  0.82988  1.0000
  H   H5        1.0  0.62767  0.86080  0.62626  1.0000
  H   H6        1.0  0.37233  0.36081  0.87374  1.0000
  H   H7        1.0  0.37233  0.13919  0.37374  1.0000
  H   H8        1.0  0.62767  0.63919  0.12626  1.0000
  H   H9        1.0  0.82474  0.73136  0.58620  1.0000
  H   H10       1.0  0.17526  0.23136  0.91380  1.0000
  H   H11       1.0  0.17526  0.26864  0.41380  1.0000
  H   H12       1.0  0.82474  0.76864  0.08619  1.0000
  H   H13       1.0  0.75141  0.62652  0.29950  1.0000
  H   H14       1.0  0.24859  0.12652  0.20050  1.0000
  H   H15       1.0  0.24859  0.37348  0.70050  1.0000
  H   H16       1.0  0.75141  0.87348  0.79949  1.0000
  H   H17       1.0  0.84168  0.32806  0.93253  1.0000
  H   H18       1.0  0.15833  0.82807  0.56746  1.0000
  H   H19       1.0  0.15832  0.67193  0.06747  1.0000
  H   H20       1.0  0.84167  0.17193  0.43254  1.0000
  H   H21       1.0  0.90595  0.36348  0.10498  1.0000
  H   H22       1.0  0.09405  0.86348  0.39502  1.0000
  H   H23       1.0  0.09405  0.63652  0.89503  1.0000
  H   H24       1.0  0.90595  0.13652  0.60498  1.0000
  H   H25       1.0  0.94215  0.40673  0.26695  1.0000
  H   H26       1.0  0.05785  0.90673  0.23305  1.0000
  H   H27       1.0  0.05785  0.59327  0.73305  1.0000
  H   H28       1.0  0.94215  0.09327  0.76695  1.0000
  H   H29       1.0  0.24496  0.67510  0.40098  1.0000
  H   H30       1.0  0.75504  0.17510  0.09902  1.0000
  H   H31       1.0  0.75504  0.32490  0.59902  1.0000
  H   H32       1.0  0.24497  0.82490  0.90098  1.0000
  H   H33       1.0  0.47309  0.37767  0.43684  1.0000
  H   H34       1.0  0.52691  0.87766  0.06316  1.0000
  H   H35       1.0  0.52691  0.62234  0.56316  1.0000
  H   H36       1.0  0.47309  0.12233  0.93684  1.0000
  H   H37       1.0  0.41572  0.43569  0.31981  1.0000
  H   H38       1.0  0.58428  0.93569  0.18019  1.0000
  H   H39       1.0  0.58428  0.56431  0.68019  1.0000
  H   H40       1.0  0.41572  0.06431  0.81981  1.0000
  H   H41       1.0  0.56696  0.50544  0.41479  1.0000
  H   H42       1.0  0.43304  0.00544  0.08522  1.0000
  H   H43       1.0  0.43304  0.49457  0.58522  1.0000
  H   H44       1.0  0.56696  0.99456  0.91479  1.0000
  H   H45       1.0  0.54521  0.78550  0.29583  1.0000
  H   H46       1.0  0.45479  0.28550  0.20417  1.0000
  H   H47       1.0  0.45478  0.21450  0.70417  1.0000
  H   H48       1.0  0.54521  0.71451  0.79583  1.0000
  H   H49       1.0  0.24000  0.68689  0.22463  1.0000
  H   H50       1.0  0.76000  0.18689  0.27537  1.0000
  H   H51       1.0  0.76000  0.31311  0.77537  1.0000
  H   H52       1.0  0.24000  0.81311  0.72463  1.0000
  C   C1        1.0  0.49859  0.98052  0.40452  1.0000
  C   C2        1.0  0.50141  0.48052  0.09548  1.0000
  C   C3        1.0  0.50141  0.01948  0.59548  1.0000
  C   C4        1.0  0.49859  0.51948  0.90452  1.0000
  C   C5        1.0  0.57384  0.90085  0.47490  1.0000
  C   C6        1.0  0.42616  0.40085  0.02510  1.0000
  C   C7        1.0  0.42616  0.09915  0.52510  1.0000
  C   C8        1.0  0.57384  0.59916  0.97490  1.0000
  C   C9        1.0  0.57321  0.92235  0.57078  1.0000
  C   C10       1.0  0.42679  0.42235  0.92922  1.0000
  C   C11       1.0  0.42679  0.07765  0.42922  1.0000
  C   C12       1.0  0.57322  0.57765  0.07078  1.0000
  C   C13       1.0  0.65667  0.80130  0.45116  1.0000
  C   C14       1.0  0.34333  0.30130  0.04884  1.0000
  C   C15       1.0  0.34333  0.19870  0.54884  1.0000
  C   C16       1.0  0.65667  0.69870  0.95116  1.0000
  C   C17       1.0  0.77216  0.72927  0.50901  1.0000
  C   C18       1.0  0.22784  0.22927  0.99099  1.0000
  C   C19       1.0  0.22784  0.27073  0.49099  1.0000
  C   C20       1.0  0.77216  0.77073  0.00901  1.0000
  C   C21       1.0  0.74124  0.67405  0.36203  1.0000
  C   C22       1.0  0.25876  0.17405  0.13797  1.0000
  C   C23       1.0  0.25876  0.32595  0.63797  1.0000
  C   C24       1.0  0.74124  0.82595  0.86203  1.0000
  C   C25       1.0  0.90873  0.40471  0.96099  1.0000
  C   C26       1.0  0.09128  0.90471  0.53901  1.0000
  C   C27       1.0  0.09128  0.59529  0.03902  1.0000
  C   C28       1.0  0.90872  0.09529  0.46099  1.0000
  C   C29       1.0  0.94717  0.42404  0.05920  1.0000
  C   C30       1.0  0.05284  0.92404  0.44080  1.0000
  C   C31       1.0  0.05284  0.57595  0.94080  1.0000
  C   C32       1.0  0.94716  0.07595  0.55920  1.0000
  C   C33       1.0  0.03902  0.51945  0.10026  1.0000
  C   C34       1.0  0.96098  0.01945  0.39974  1.0000
  C   C35       1.0  0.96098  0.48055  0.89974  1.0000
  C   C36       1.0  0.03902  0.98055  0.60026  1.0000
  C   C37       1.0  0.07527  0.53825  0.20330  1.0000
  C   C38       1.0  0.92473  0.03825  0.29670  1.0000
  C   C39       1.0  0.92473  0.46175  0.79670  1.0000
  C   C40       1.0  0.07527  0.96175  0.70330  1.0000
  C   C41       1.0  0.02292  0.47975  0.27372  1.0000
  C   C42       1.0  0.97708  0.97975  0.22628  1.0000
  C   C43       1.0  0.97708  0.52025  0.72628  1.0000
  C   C44       1.0  0.02292  0.02025  0.77372  1.0000
  C   C45       1.0  0.17745  0.61742  0.34612  1.0000
  C   C46       1.0  0.82254  0.11742  0.15388  1.0000
  C   C47       1.0  0.82255  0.38258  0.65388  1.0000
  C   C48       1.0  0.17745  0.88258  0.84612  1.0000
  C   C49       1.0  0.65957  0.35467  0.36156  1.0000
  C   C50       1.0  0.34043  0.85467  0.13844  1.0000
  C   C51       1.0  0.34043  0.64533  0.63844  1.0000
  C   C52       1.0  0.65956  0.14533  0.86156  1.0000
  C   C53       1.0  0.52080  0.42385  0.38341  1.0000
  C   C54       1.0  0.47920  0.92385  0.11660  1.0000
  C   C55       1.0  0.47920  0.57615  0.61660  1.0000
  C   C56       1.0  0.52080  0.07615  0.88340  1.0000
  N   N1        1.0  0.82336  0.65112  0.45261  1.0000
  N   N2        1.0  0.17664  0.15112  0.04739  1.0000
  N   N3        1.0  0.17664  0.34888  0.54739  1.0000
  N   N4        1.0  0.82336  0.84888  0.95261  1.0000
  N   N5        1.0  0.64004  0.76385  0.35805  1.0000
  N   N6        1.0  0.35996  0.26385  0.14195  1.0000
  N   N7        1.0  0.35996  0.23615  0.64195  1.0000
  N   N8        1.0  0.64003  0.73615  0.85805  1.0000
  N   N9        1.0  0.08748  0.52990  0.36165  1.0000
  N   N10       1.0  0.91252  0.02990  0.13835  1.0000
  N   N11       1.0  0.91252  0.47010  0.63835  1.0000
  N   N12       1.0  0.08748  0.97010  0.86165  1.0000
  N   N13       1.0  0.17329  0.62543  0.25185  1.0000
  N   N14       1.0  0.82671  0.12543  0.24815  1.0000
  N   N15       1.0  0.82671  0.37457  0.74815  1.0000
  N   N16       1.0  0.17329  0.87457  0.75185  1.0000
  O   O1        1.0  0.80651  0.36325  0.41420  1.0000
  O   O2        1.0  0.19349  0.86325  0.08580  1.0000
  O   O3        1.0  0.19349  0.63675  0.58580  1.0000
  O   O4        1.0  0.80651  0.13675  0.91420  1.0000
  O   O5        1.0  0.62049  0.28470  0.29109  1.0000
  O   O6        1.0  0.37951  0.78470  0.20891  1.0000
  O   O7        1.0  0.37951  0.71530  0.70891  1.0000
  O   O8        1.0  0.62049  0.21530  0.79109  1.0000
