data_image0
_chemical_formula_structural       Cd2H56C56I4N4O4
_chemical_formula_sum              "Cd2 H56 C56 I4 N4 O4"
_cell_length_a       6.98421
_cell_length_b       13.9427
_cell_length_c       14.392
_cell_angle_alpha    90
_cell_angle_beta     90
_cell_angle_gamma    90

_space_group_name_H-M_alt    "P 1"
_space_group_IT_number       1

loop_
  _space_group_symop_operation_xyz
  'x, y, z'

loop_
  _atom_site_type_symbol
  _atom_site_label
  _atom_site_symmetry_multiplicity
  _atom_site_fract_x
  _atom_site_fract_y
  _atom_site_fract_z
  _atom_site_occupancy
  Cd  Cd1       1.0  0.70705  0.50000  1.00000  1.0000
  Cd  Cd2       1.0  0.29294  1.00000  0.50000  1.0000
  H   H1        1.0  0.28728  0.59746  0.98445  1.0000
  H   H2        1.0  0.28728  0.40254  0.01555  1.0000
  H   H3        1.0  0.71272  0.90254  0.48445  1.0000
  H   H4        1.0  0.71272  0.09746  0.51555  1.0000
  H   H5        1.0  0.02549  0.61597  0.87402  1.0000
  H   H6        1.0  0.02549  0.38403  0.12598  1.0000
  H   H7        1.0  0.97451  0.88403  0.37402  1.0000
  H   H8        1.0  0.97451  0.11597  0.62598  1.0000
  H   H9        1.0  0.40067  0.50393  0.66068  1.0000
  H   H10       1.0  0.40066  0.49607  0.33931  1.0000
  H   H11       1.0  0.59934  0.99607  0.16069  1.0000
  H   H12       1.0  0.59933  0.00393  0.83932  1.0000
  H   H13       1.0  0.64861  0.48429  0.78274  1.0000
  H   H14       1.0  0.64861  0.51570  0.21726  1.0000
  H   H15       1.0  0.35139  0.01571  0.28274  1.0000
  H   H16       1.0  0.35139  0.98429  0.71726  1.0000
  H   H17       1.0  0.90564  0.69225  0.76012  1.0000
  H   H18       1.0  0.90564  0.30775  0.23988  1.0000
  H   H19       1.0  0.09436  0.80775  0.26012  1.0000
  H   H20       1.0  0.09435  0.19225  0.73988  1.0000
  H   H21       1.0  0.63935  0.78118  0.71782  1.0000
  H   H22       1.0  0.63935  0.21882  0.28218  1.0000
  H   H23       1.0  0.36065  0.71882  0.21782  1.0000
  H   H24       1.0  0.36065  0.28118  0.78218  1.0000
  H   H25       1.0  0.45798  0.71569  0.65839  1.0000
  H   H26       1.0  0.45798  0.28431  0.34161  1.0000
  H   H27       1.0  0.54202  0.78431  0.15839  1.0000
  H   H28       1.0  0.54202  0.21569  0.84161  1.0000
  H   H29       1.0  0.60735  0.79394  0.59626  1.0000
  H   H30       1.0  0.60736  0.20606  0.40374  1.0000
  H   H31       1.0  0.39265  0.70606  0.09626  1.0000
  H   H32       1.0  0.39265  0.29394  0.90374  1.0000
  H   H33       1.0  0.59549  0.58074  0.42399  1.0000
  H   H34       1.0  0.59548  0.41926  0.57601  1.0000
  H   H35       1.0  0.40452  0.91926  0.92399  1.0000
  H   H36       1.0  0.40452  0.08074  0.07601  1.0000
  H   H37       1.0  0.59274  0.70217  0.46161  1.0000
  H   H38       1.0  0.59274  0.29783  0.53838  1.0000
  H   H39       1.0  0.40726  0.79783  0.96162  1.0000
  H   H40       1.0  0.40726  0.20217  0.03838  1.0000
  H   H41       1.0  0.43628  0.61839  0.51307  1.0000
  H   H42       1.0  0.43628  0.38161  0.48692  1.0000
  H   H43       1.0  0.56372  0.88161  0.01308  1.0000
  H   H44       1.0  0.56372  0.11839  0.98692  1.0000
  H   H45       1.0  0.19605  0.29988  0.61519  1.0000
  H   H46       1.0  0.19605  0.70012  0.38481  1.0000
  H   H47       1.0  0.80396  0.20012  0.11519  1.0000
  H   H48       1.0  0.80396  0.79988  0.88481  1.0000
  H   H49       1.0  0.94718  0.32645  0.60245  1.0000
  H   H50       1.0  0.94719  0.67354  0.39756  1.0000
  H   H51       1.0  0.05282  0.17354  0.10244  1.0000
  H   H52       1.0  0.05282  0.82646  0.89756  1.0000
  H   H53       1.0  0.06827  0.35938  0.70817  1.0000
  H   H54       1.0  0.06827  0.64062  0.29183  1.0000
  H   H55       1.0  0.93173  0.14062  0.20817  1.0000
  H   H56       1.0  0.93173  0.85938  0.79183  1.0000
  C   C1        1.0  0.30945  0.57778  0.91184  1.0000
  C   C2        1.0  0.30945  0.42222  0.08816  1.0000
  C   C3        1.0  0.69055  0.92222  0.41184  1.0000
  C   C4        1.0  0.69055  0.07778  0.58816  1.0000
  C   C5        1.0  0.16175  0.58863  0.84852  1.0000
  C   C6        1.0  0.16174  0.41137  0.15147  1.0000
  C   C7        1.0  0.83825  0.91137  0.34852  1.0000
  C   C8        1.0  0.83825  0.08863  0.65148  1.0000
  C   C9        1.0  0.18724  0.56132  0.75526  1.0000
  C   C10       1.0  0.18724  0.43868  0.24474  1.0000
  C   C11       1.0  0.81276  0.93868  0.25526  1.0000
  C   C12       1.0  0.81276  0.06132  0.74474  1.0000
  C   C13       1.0  0.36905  0.52500  0.73166  1.0000
  C   C14       1.0  0.36905  0.47500  0.26834  1.0000
  C   C15       1.0  0.63095  0.97500  0.23166  1.0000
  C   C16       1.0  0.63095  0.02500  0.76834  1.0000
  C   C17       1.0  0.50880  0.51476  0.79943  1.0000
  C   C18       1.0  0.50880  0.48524  0.20056  1.0000
  C   C19       1.0  0.49120  0.98524  0.29944  1.0000
  C   C20       1.0  0.49120  0.01476  0.70057  1.0000
  C   C21       1.0  0.03089  0.57264  0.68738  1.0000
  C   C22       1.0  0.03088  0.42736  0.31262  1.0000
  C   C23       1.0  0.96911  0.92736  0.18738  1.0000
  C   C24       1.0  0.96911  0.07264  0.81262  1.0000
  C   C25       1.0  0.01216  0.51487  0.60767  1.0000
  C   C26       1.0  0.01216  0.48513  0.39233  1.0000
  C   C27       1.0  0.98784  0.98513  0.10767  1.0000
  C   C28       1.0  0.98784  0.01487  0.89233  1.0000
  C   C29       1.0  0.86581  0.53080  0.54240  1.0000
  C   C30       1.0  0.86581  0.46920  0.45760  1.0000
  C   C31       1.0  0.13419  0.96920  0.04240  1.0000
  C   C32       1.0  0.13419  0.03080  0.95760  1.0000
  C   C33       1.0  0.73277  0.60525  0.55614  1.0000
  C   C34       1.0  0.73277  0.39475  0.44386  1.0000
  C   C35       1.0  0.26723  0.89475  0.05614  1.0000
  C   C36       1.0  0.26723  0.10525  0.94386  1.0000
  C   C37       1.0  0.74568  0.66209  0.63722  1.0000
  C   C38       1.0  0.74568  0.33791  0.36278  1.0000
  C   C39       1.0  0.25432  0.83791  0.13722  1.0000
  C   C40       1.0  0.25432  0.16209  0.86278  1.0000
  C   C41       1.0  0.89300  0.64497  0.70014  1.0000
  C   C42       1.0  0.89300  0.35503  0.29986  1.0000
  C   C43       1.0  0.10700  0.85503  0.20014  1.0000
  C   C44       1.0  0.10699  0.14497  0.79986  1.0000
  C   C45       1.0  0.60614  0.74201  0.65377  1.0000
  C   C46       1.0  0.60614  0.25799  0.34623  1.0000
  C   C47       1.0  0.39386  0.75799  0.15377  1.0000
  C   C48       1.0  0.39386  0.24201  0.84623  1.0000
  C   C49       1.0  0.58179  0.62713  0.48499  1.0000
  C   C50       1.0  0.58179  0.37287  0.51501  1.0000
  C   C51       1.0  0.41821  0.87287  0.98499  1.0000
  C   C52       1.0  0.41821  0.12713  0.01501  1.0000
  C   C53       1.0  0.08337  0.35171  0.63227  1.0000
  C   C54       1.0  0.08337  0.64829  0.36773  1.0000
  C   C55       1.0  0.91664  0.14829  0.13227  1.0000
  C   C56       1.0  0.91664  0.85171  0.86773  1.0000
  I   I1        1.0  0.89024  0.65302  0.07903  1.0000
  I   I2        1.0  0.89025  0.34698  0.92097  1.0000
  I   I3        1.0  0.10975  0.84698  0.57903  1.0000
  I   I4        1.0  0.10976  0.15302  0.42097  1.0000
  N   N1        1.0  0.48078  0.54012  0.88875  1.0000
  N   N2        1.0  0.48078  0.45988  0.11124  1.0000
  N   N3        1.0  0.51922  0.95988  0.38876  1.0000
  N   N4        1.0  0.51922  0.04012  0.61124  1.0000
  O   O1        1.0  0.14013  0.44114  0.59082  1.0000
  O   O2        1.0  0.14013  0.55886  0.40918  1.0000
  O   O3        1.0  0.85987  0.05886  0.09082  1.0000
  O   O4        1.0  0.85987  0.94114  0.90918  1.0000
