data_image0
_chemical_formula_structural       In4H20C16N4Cl4O16
_chemical_formula_sum              "In4 H20 C16 N4 Cl4 O16"
_cell_length_a       5.969
_cell_length_b       8.89029
_cell_length_c       13.6412
_cell_angle_alpha    90.0004
_cell_angle_beta     90.0001
_cell_angle_gamma    90.0001

_space_group_name_H-M_alt    "P 1"
_space_group_IT_number       1

loop_
  _space_group_symop_operation_xyz
  'x, y, z'

loop_
  _atom_site_type_symbol
  _atom_site_label
  _atom_site_symmetry_multiplicity
  _atom_site_fract_x
  _atom_site_fract_y
  _atom_site_fract_z
  _atom_site_occupancy
  In  In1       1.0  0.60319  0.75000  0.18178  1.0000
  In  In2       1.0  0.10320  0.25000  0.31822  1.0000
  In  In3       1.0  0.89678  0.75000  0.68179  1.0000
  In  In4       1.0  0.39679  0.25000  0.81821  1.0000
  H   H1        1.0  0.86266  0.75000  0.36001  1.0000
  H   H2        1.0  0.36266  0.25000  0.13998  1.0000
  H   H3        1.0  0.63734  0.75000  0.86002  1.0000
  H   H4        1.0  0.13735  0.25000  0.63998  1.0000
  H   H5        1.0  0.52343  0.63582  0.46474  1.0000
  H   H6        1.0  0.02344  0.36419  0.03526  1.0000
  H   H7        1.0  0.97657  0.86419  0.96474  1.0000
  H   H8        1.0  0.47658  0.13581  0.53526  1.0000
  H   H9        1.0  0.47657  0.36418  0.53526  1.0000
  H   H10       1.0  0.97656  0.63580  0.96474  1.0000
  H   H11       1.0  0.02343  0.13581  0.03526  1.0000
  H   H12       1.0  0.52343  0.86419  0.46474  1.0000
  H   H13       1.0  0.74169  0.53312  0.41039  1.0000
  H   H14       1.0  0.24169  0.46689  0.08962  1.0000
  H   H15       1.0  0.75832  0.96689  0.91038  1.0000
  H   H16       1.0  0.25831  0.03311  0.58962  1.0000
  H   H17       1.0  0.25831  0.46689  0.58962  1.0000
  H   H18       1.0  0.75830  0.53311  0.91037  1.0000
  H   H19       1.0  0.24170  0.03311  0.08962  1.0000
  H   H20       1.0  0.74171  0.96689  0.41039  1.0000
  C   C1        1.0  0.43725  0.52636  0.33131  1.0000
  C   C2        1.0  0.93725  0.47363  0.16869  1.0000
  C   C3        1.0  0.06275  0.97363  0.83131  1.0000
  C   C4        1.0  0.56274  0.02636  0.66869  1.0000
  C   C5        1.0  0.56274  0.47363  0.66869  1.0000
  C   C6        1.0  0.06274  0.52637  0.83131  1.0000
  C   C7        1.0  0.93726  0.02636  0.16869  1.0000
  C   C8        1.0  0.43727  0.97365  0.33131  1.0000
  C   C9        1.0  0.60397  0.61091  0.39430  1.0000
  C   C10       1.0  0.10397  0.38910  0.10570  1.0000
  C   C11       1.0  0.89603  0.88910  0.89429  1.0000
  C   C12       1.0  0.39602  0.11090  0.60570  1.0000
  C   C13       1.0  0.39603  0.38909  0.60570  1.0000
  C   C14       1.0  0.89602  0.61090  0.89429  1.0000
  C   C15       1.0  0.10398  0.11090  0.10570  1.0000
  C   C16       1.0  0.60398  0.88910  0.39430  1.0000
  N   N1        1.0  0.69310  0.75000  0.34921  1.0000
  N   N2        1.0  0.19309  0.25000  0.15078  1.0000
  N   N3        1.0  0.80690  0.75000  0.84921  1.0000
  N   N4        1.0  0.30690  0.25000  0.65078  1.0000
  Cl  Cl1       1.0  0.40212  0.75000  0.02595  1.0000
  Cl  Cl2       1.0  0.90214  0.25001  0.47405  1.0000
  Cl  Cl3       1.0  0.09786  0.75000  0.52595  1.0000
  Cl  Cl4       1.0  0.59787  0.25000  0.97405  1.0000
  O   O1        1.0  0.39104  0.56883  0.24458  1.0000
  O   O2        1.0  0.89104  0.43117  0.25542  1.0000
  O   O3        1.0  0.10895  0.93117  0.74457  1.0000
  O   O4        1.0  0.60895  0.06882  0.75543  1.0000
  O   O5        1.0  0.60895  0.43118  0.75542  1.0000
  O   O6        1.0  0.10895  0.56883  0.74457  1.0000
  O   O7        1.0  0.89105  0.06883  0.25543  1.0000
  O   O8        1.0  0.39106  0.93119  0.24458  1.0000
  O   O9        1.0  0.35054  0.41189  0.37227  1.0000
  O   O10       1.0  0.85053  0.58811  0.12773  1.0000
  O   O11       1.0  0.14947  0.08811  0.87226  1.0000
  O   O12       1.0  0.64944  0.91188  0.62773  1.0000
  O   O13       1.0  0.64947  0.58810  0.62773  1.0000
  O   O14       1.0  0.14946  0.41188  0.87226  1.0000
  O   O15       1.0  0.85054  0.91188  0.12774  1.0000
  O   O16       1.0  0.35056  0.08813  0.37227  1.0000
