data_image0
_chemical_formula_structural       Cu2H40C56N4O16
_chemical_formula_sum              "Cu2 H40 C56 N4 O16"
_cell_length_a       11.2652
_cell_length_b       11.5929
_cell_length_c       11.7771
_cell_angle_alpha    105.499
_cell_angle_beta     108.412
_cell_angle_gamma    112.493

_space_group_name_H-M_alt    "P 1"
_space_group_IT_number       1

loop_
  _space_group_symop_operation_xyz
  'x, y, z'

loop_
  _atom_site_type_symbol
  _atom_site_label
  _atom_site_symmetry_multiplicity
  _atom_site_fract_x
  _atom_site_fract_y
  _atom_site_fract_z
  _atom_site_occupancy
  Cu  Cu1       1.0  0.91308  0.96121  0.72764  1.0000
  Cu  Cu2       1.0  0.08692  0.03879  0.27236  1.0000
  H   H1        1.0  0.30349  0.01949  0.21723  1.0000
  H   H2        1.0  0.69651  0.98051  0.78277  1.0000
  H   H3        1.0  0.26005  0.68912  0.08557  1.0000
  H   H4        1.0  0.73994  0.31088  0.91444  1.0000
  H   H5        1.0  0.16431  0.44939  0.91726  1.0000
  H   H6        1.0  0.83568  0.55060  0.08274  1.0000
  H   H7        1.0  0.94667  0.34410  0.69670  1.0000
  H   H8        1.0  0.05333  0.65590  0.30331  1.0000
  H   H9        1.0  0.92961  0.54291  0.52391  1.0000
  H   H10       1.0  0.07040  0.45709  0.47609  1.0000
  H   H11       1.0  0.72536  0.45571  0.30239  1.0000
  H   H12       1.0  0.27464  0.54429  0.69761  1.0000
  H   H13       1.0  0.46748  0.31776  0.25940  1.0000
  H   H14       1.0  0.53252  0.68224  0.74060  1.0000
  H   H15       1.0  0.53946  0.11757  0.97704  1.0000
  H   H16       1.0  0.46054  0.88243  0.02296  1.0000
  H   H17       1.0  0.45192  0.11707  0.07922  1.0000
  H   H18       1.0  0.54808  0.88293  0.92078  1.0000
  H   H19       1.0  0.58474  0.27690  0.09727  1.0000
  H   H20       1.0  0.41526  0.72310  0.90273  1.0000
  H   H21       1.0  0.52061  0.33052  0.88593  1.0000
  H   H22       1.0  0.47939  0.66947  0.11407  1.0000
  H   H23       1.0  0.32186  0.31541  0.70526  1.0000
  H   H24       1.0  0.67814  0.68459  0.29474  1.0000
  H   H25       1.0  0.12971  0.25795  0.52790  1.0000
  H   H26       1.0  0.87029  0.74205  0.47210  1.0000
  H   H27       1.0  0.89822  0.21818  0.36255  1.0000
  H   H28       1.0  0.10178  0.78182  0.63745  1.0000
  H   H29       1.0  0.58216  0.12500  0.39399  1.0000
  H   H30       1.0  0.41784  0.87500  0.60601  1.0000
  H   H31       1.0  0.54128  0.96149  0.28575  1.0000
  H   H32       1.0  0.45872  0.03851  0.71424  1.0000
  H   H33       1.0  0.63514  0.11377  0.26652  1.0000
  H   H34       1.0  0.36486  0.88623  0.73348  1.0000
  H   H35       1.0  0.67157  0.97320  0.52310  1.0000
  H   H36       1.0  0.32843  0.02679  0.47689  1.0000
  H   H37       1.0  0.19607  0.01809  0.92762  1.0000
  H   H38       1.0  0.80393  0.98191  0.07238  1.0000
  H   H39       1.0  0.69913  0.55314  0.79770  1.0000
  H   H40       1.0  0.30087  0.44686  0.20230  1.0000
  C   C1        1.0  0.89041  0.73033  0.80582  1.0000
  C   C2        1.0  0.10959  0.26968  0.19418  1.0000
  C   C3        1.0  0.96929  0.65387  0.83851  1.0000
  C   C4        1.0  0.03072  0.34613  0.16149  1.0000
  C   C5        1.0  0.09408  0.71440  0.96139  1.0000
  C   C6        1.0  0.90593  0.28560  0.03861  1.0000
  C   C7        1.0  0.14090  0.85076  0.06610  1.0000
  C   C8        1.0  0.85911  0.14925  0.93390  1.0000
  C   C9        1.0  0.16558  0.64177  0.98863  1.0000
  C   C10       1.0  0.83442  0.35822  0.01138  1.0000
  C   C11       1.0  0.11156  0.50781  0.89417  1.0000
  C   C12       1.0  0.88844  0.49219  0.10584  1.0000
  C   C13       1.0  0.98913  0.44839  0.77130  1.0000
  C   C14       1.0  0.01086  0.55161  0.22870  1.0000
  C   C15       1.0  0.91812  0.52100  0.74170  1.0000
  C   C16       1.0  0.08188  0.47901  0.25830  1.0000
  C   C17       1.0  0.79199  0.46119  0.60793  1.0000
  C   C18       1.0  0.20801  0.53881  0.39207  1.0000
  C   C19       1.0  0.81764  0.48348  0.50462  1.0000
  C   C20       1.0  0.18236  0.51653  0.49538  1.0000
  C   C21       1.0  0.70252  0.43341  0.37991  1.0000
  C   C22       1.0  0.29748  0.56660  0.62010  1.0000
  C   C23       1.0  0.55955  0.35687  0.35545  1.0000
  C   C24       1.0  0.44045  0.64313  0.64455  1.0000
  C   C25       1.0  0.53191  0.33193  0.45674  1.0000
  C   C26       1.0  0.46809  0.66808  0.54326  1.0000
  C   C27       1.0  0.37806  0.25118  0.43109  1.0000
  C   C28       1.0  0.62194  0.74882  0.56891  1.0000
  C   C29       1.0  0.64780  0.38561  0.58373  1.0000
  C   C30       1.0  0.35220  0.61439  0.41627  1.0000
  C   C31       1.0  0.61777  0.35137  0.68984  1.0000
  C   C32       1.0  0.38223  0.64863  0.31016  1.0000
  C   C33       1.0  0.49398  0.17136  0.02518  1.0000
  C   C34       1.0  0.50602  0.82863  0.97482  1.0000
  C   C35       1.0  0.37720  0.17428  0.92267  1.0000
  C   C36       1.0  0.62280  0.82571  0.07733  1.0000
  C   C37       1.0  0.40852  0.25958  0.85898  1.0000
  C   C38       1.0  0.59148  0.74042  0.14102  1.0000
  C   C39       1.0  0.29677  0.25263  0.75779  1.0000
  C   C40       1.0  0.70323  0.74737  0.24221  1.0000
  C   C41       1.0  0.15270  0.16046  0.72191  1.0000
  C   C42       1.0  0.84730  0.83954  0.27809  1.0000
  C   C43       1.0  0.02389  0.14194  0.61758  1.0000
  C   C44       1.0  0.97611  0.85806  0.38242  1.0000
  C   C45       1.0  0.02738  0.19966  0.52788  1.0000
  C   C46       1.0  0.97262  0.80034  0.47211  1.0000
  C   C47       1.0  0.89733  0.17658  0.43530  1.0000
  C   C48       1.0  0.10267  0.82342  0.56470  1.0000
  C   C49       1.0  0.76576  0.09790  0.43286  1.0000
  C   C50       1.0  0.23424  0.90210  0.56714  1.0000
  C   C51       1.0  0.62357  0.07275  0.33855  1.0000
  C   C52       1.0  0.37643  0.92725  0.66145  1.0000
  C   C53       1.0  0.77111  0.03983  0.52347  1.0000
  C   C54       1.0  0.22889  0.96017  0.47653  1.0000
  C   C55       1.0  0.23043  0.08690  0.88268  1.0000
  C   C56       1.0  0.76957  0.91310  0.11732  1.0000
  N   N1        1.0  0.89544  0.06072  0.61188  1.0000
  N   N2        1.0  0.10456  0.93928  0.38812  1.0000
  N   N3        1.0  0.12304  0.08047  0.78568  1.0000
  N   N4        1.0  0.87696  0.91953  0.21432  1.0000
  O   O1        1.0  0.56646  0.23045  0.67558  1.0000
  O   O2        1.0  0.43354  0.76955  0.32442  1.0000
  O   O3        1.0  0.76495  0.68726  0.79587  1.0000
  O   O4        1.0  0.23505  0.31274  0.20413  1.0000
  O   O5        1.0  0.96075  0.83227  0.78554  1.0000
  O   O6        1.0  0.03926  0.16773  0.21447  1.0000
  O   O7        1.0  0.33586  0.29493  0.50905  1.0000
  O   O8        1.0  0.66414  0.70507  0.49095  1.0000
  O   O9        1.0  0.29500  0.13314  0.32197  1.0000
  O   O10       1.0  0.70500  0.86686  0.67803  1.0000
  O   O11       1.0  0.05076  0.88241  0.07795  1.0000
  O   O12       1.0  0.94924  0.11759  0.92205  1.0000
  O   O13       1.0  0.28430  0.93279  0.14486  1.0000
  O   O14       1.0  0.71570  0.06721  0.85515  1.0000
  O   O15       1.0  0.65286  0.45546  0.79939  1.0000
  O   O16       1.0  0.34714  0.54453  0.20060  1.0000
