data_image0
_chemical_formula_structural       Cu4H36C28S4N12O4
_chemical_formula_sum              "Cu4 H36 C28 S4 N12 O4"
_cell_length_a       9.17149
_cell_length_b       9.94181
_cell_length_c       11.066
_cell_angle_alpha    89.9994
_cell_angle_beta     90
_cell_angle_gamma    112.226

_space_group_name_H-M_alt    "P 1"
_space_group_IT_number       1

loop_
  _space_group_symop_operation_xyz
  'x, y, z'

loop_
  _atom_site_type_symbol
  _atom_site_label
  _atom_site_symmetry_multiplicity
  _atom_site_fract_x
  _atom_site_fract_y
  _atom_site_fract_z
  _atom_site_occupancy
  Cu  Cu1       1.0  0.46639  0.45587  0.63575  1.0000
  Cu  Cu2       1.0  0.03360  0.04413  0.13575  1.0000
  Cu  Cu3       1.0  0.53361  0.54413  0.36426  1.0000
  Cu  Cu4       1.0  0.96639  0.95587  0.86426  1.0000
  H   H1        1.0  0.22519  0.50472  0.57912  1.0000
  H   H2        1.0  0.27480  0.99528  0.07912  1.0000
  H   H3        1.0  0.77481  0.49528  0.42088  1.0000
  H   H4        1.0  0.72519  0.00472  0.92089  1.0000
  H   H5        1.0  0.06302  0.52264  0.65041  1.0000
  H   H6        1.0  0.43697  0.97736  0.15040  1.0000
  H   H7        1.0  0.93698  0.47736  0.34959  1.0000
  H   H8        1.0  0.56303  0.02263  0.84959  1.0000
  H   H9        1.0  0.08454  0.63058  0.84931  1.0000
  H   H10       1.0  0.41546  0.86942  0.34930  1.0000
  H   H11       1.0  0.91546  0.36942  0.15070  1.0000
  H   H12       1.0  0.58454  0.13058  0.65070  1.0000
  H   H13       1.0  0.24264  0.70566  0.03868  1.0000
  H   H14       1.0  0.25736  0.79434  0.53868  1.0000
  H   H15       1.0  0.75736  0.29434  0.96132  1.0000
  H   H16       1.0  0.74264  0.20566  0.46132  1.0000
  H   H17       1.0  0.51019  0.68875  0.04829  1.0000
  H   H18       1.0  0.98982  0.81126  0.54830  1.0000
  H   H19       1.0  0.48981  0.31125  0.95170  1.0000
  H   H20       1.0  0.01019  0.18874  0.45170  1.0000
  H   H21       1.0  0.60242  0.59150  0.86784  1.0000
  H   H22       1.0  0.89757  0.90850  0.36785  1.0000
  H   H23       1.0  0.39758  0.40850  0.13216  1.0000
  H   H24       1.0  0.10243  0.09150  0.63215  1.0000
  H   H25       1.0  0.57023  0.83777  0.48705  1.0000
  H   H26       1.0  0.92977  0.66222  0.98705  1.0000
  H   H27       1.0  0.42977  0.16223  0.51296  1.0000
  H   H28       1.0  0.07021  0.33777  0.01295  1.0000
  H   H29       1.0  0.70857  0.80186  0.58215  1.0000
  H   H30       1.0  0.79143  0.69813  0.08215  1.0000
  H   H31       1.0  0.29142  0.19814  0.41786  1.0000
  H   H32       1.0  0.20856  0.30187  0.91785  1.0000
  H   H33       1.0  0.52187  0.78865  0.64050  1.0000
  H   H34       1.0  0.97813  0.71135  0.14050  1.0000
  H   H35       1.0  0.47812  0.21135  0.35950  1.0000
  H   H36       1.0  0.02186  0.28865  0.85949  1.0000
  C   C1        1.0  0.35585  0.15966  0.76345  1.0000
  C   C2        1.0  0.14415  0.34035  0.26345  1.0000
  C   C3        1.0  0.64415  0.84036  0.23655  1.0000
  C   C4        1.0  0.85586  0.65967  0.73655  1.0000
  C   C5        1.0  0.25945  0.57052  0.75832  1.0000
  C   C6        1.0  0.24055  0.92948  0.25832  1.0000
  C   C7        1.0  0.74055  0.42948  0.24168  1.0000
  C   C8        1.0  0.75945  0.07051  0.74169  1.0000
  C   C9        1.0  0.19927  0.62280  0.85783  1.0000
  C   C10       1.0  0.30074  0.87720  0.35783  1.0000
  C   C11       1.0  0.80074  0.37720  0.14217  1.0000
  C   C12       1.0  0.69926  0.12280  0.64218  1.0000
  C   C13       1.0  0.28805  0.66492  0.96185  1.0000
  C   C14       1.0  0.21195  0.83507  0.46185  1.0000
  C   C15       1.0  0.71195  0.33507  0.03815  1.0000
  C   C16       1.0  0.78805  0.16492  0.53815  1.0000
  C   C17       1.0  0.43730  0.65644  0.96780  1.0000
  C   C18       1.0  0.06271  0.84356  0.46780  1.0000
  C   C19       1.0  0.56270  0.34356  0.03220  1.0000
  C   C20       1.0  0.93730  0.15644  0.53220  1.0000
  C   C21       1.0  0.48901  0.60307  0.86827  1.0000
  C   C22       1.0  0.01099  0.89693  0.36828  1.0000
  C   C23       1.0  0.51099  0.39693  0.13172  1.0000
  C   C24       1.0  0.98901  0.10307  0.63173  1.0000
  C   C25       1.0  0.58242  0.76877  0.56074  1.0000
  C   C26       1.0  0.91758  0.73122  0.06073  1.0000
  C   C27       1.0  0.41757  0.23123  0.43927  1.0000
  C   C28       1.0  0.08241  0.26878  0.93926  1.0000
  S   S1        1.0  0.29168  0.99954  0.82458  1.0000
  S   S2        1.0  0.20833  0.50047  0.32459  1.0000
  S   S3        1.0  0.70833  0.00048  0.17541  1.0000
  S   S4        1.0  0.79167  0.49955  0.67540  1.0000
  N   N1        1.0  0.40405  0.27521  0.71639  1.0000
  N   N2        1.0  0.09595  0.22480  0.21639  1.0000
  N   N3        1.0  0.59595  0.72481  0.28361  1.0000
  N   N4        1.0  0.90405  0.77521  0.78361  1.0000
  N   N5        1.0  0.40279  0.55998  0.76631  1.0000
  N   N6        1.0  0.09721  0.94002  0.26631  1.0000
  N   N7        1.0  0.59721  0.44002  0.23369  1.0000
  N   N8        1.0  0.90280  0.05997  0.73369  1.0000
  N   N9        1.0  0.17689  0.52983  0.65429  1.0000
  N   N10       1.0  0.32310  0.97016  0.15428  1.0000
  N   N11       1.0  0.82311  0.47017  0.34572  1.0000
  N   N12       1.0  0.67690  0.02983  0.84572  1.0000
  O   O1        1.0  0.51356  0.62035  0.52579  1.0000
  O   O2        1.0  0.98643  0.87965  0.02578  1.0000
  O   O3        1.0  0.48643  0.37965  0.47422  1.0000
  O   O4        1.0  0.01357  0.12035  0.97420  1.0000
