data_image0
_chemical_formula_structural       CuH4C6S2N4
_chemical_formula_sum              "Cu1 H4 C6 S2 N4"
_cell_length_a       5.69406
_cell_length_b       6.33584
_cell_length_c       6.33598
_cell_angle_alpha    66.9138
_cell_angle_beta     88.9906
_cell_angle_gamma    88.9858

_space_group_name_H-M_alt    "P 1"
_space_group_IT_number       1

loop_
  _space_group_symop_operation_xyz
  'x, y, z'

loop_
  _atom_site_type_symbol
  _atom_site_label
  _atom_site_symmetry_multiplicity
  _atom_site_fract_x
  _atom_site_fract_y
  _atom_site_fract_z
  _atom_site_occupancy
  Cu  Cu1       1.0  1.00000  0.00001  0.00001  1.0000
  H   H1        1.0  0.67316  0.77235  0.41138  1.0000
  H   H2        1.0  0.32688  0.58863  0.22762  1.0000
  H   H3        1.0  0.32684  0.22764  0.58862  1.0000
  H   H4        1.0  0.67315  0.41137  0.77236  1.0000
  C   C1        1.0  0.44506  0.15871  0.15872  1.0000
  C   C2        1.0  0.55494  0.84130  0.84129  1.0000
  C   C3        1.0  0.81863  0.64963  0.45005  1.0000
  C   C4        1.0  0.18136  0.54993  0.35038  1.0000
  C   C5        1.0  0.18137  0.35038  0.54993  1.0000
  C   C6        1.0  0.81861  0.45004  0.64965  1.0000
  S   S1        1.0  0.69234  0.23116  0.23116  1.0000
  S   S2        1.0  0.30769  0.76885  0.76885  1.0000
  N   N1        1.0  0.26429  0.10542  0.10543  1.0000
  N   N2        1.0  0.73565  0.89458  0.89457  1.0000
  N   N3        1.0  0.00001  0.69804  0.30195  1.0000
  N   N4        1.0  0.00001  0.30196  0.69804  1.0000
