data_image0
_chemical_formula_structural       Cd2H24C10S2Br2N2O6
_chemical_formula_sum              "Cd2 H24 C10 S2 Br2 N2 O6"
_cell_length_a       7.72166
_cell_length_b       8.31982
_cell_length_c       9.62179
_cell_angle_alpha    84.6741
_cell_angle_beta     61.9094
_cell_angle_gamma    83.4297

_space_group_name_H-M_alt    "P 1"
_space_group_IT_number       1

loop_
  _space_group_symop_operation_xyz
  'x, y, z'

loop_
  _atom_site_type_symbol
  _atom_site_label
  _atom_site_symmetry_multiplicity
  _atom_site_fract_x
  _atom_site_fract_y
  _atom_site_fract_z
  _atom_site_occupancy
  Cd  Cd1       1.0  0.70161  0.85424  0.34270  1.0000
  Cd  Cd2       1.0  0.29839  0.14577  0.65729  1.0000
  H   H1        1.0  0.26381  0.86916  0.42131  1.0000
  H   H2        1.0  0.73618  0.13083  0.57869  1.0000
  H   H3        1.0  0.11901  0.54397  0.55158  1.0000
  H   H4        1.0  0.88099  0.45604  0.44843  1.0000
  H   H5        1.0  0.14852  0.70029  0.64095  1.0000
  H   H6        1.0  0.85148  0.29972  0.35906  1.0000
  H   H7        1.0  0.34534  0.59110  0.51238  1.0000
  H   H8        1.0  0.65467  0.40889  0.48762  1.0000
  H   H9        1.0  0.73659  0.55595  0.69448  1.0000
  H   H10       1.0  0.26340  0.44404  0.30552  1.0000
  H   H11       1.0  0.55314  0.52742  0.88994  1.0000
  H   H12       1.0  0.44686  0.47258  0.11006  1.0000
  H   H13       1.0  0.79408  0.43222  0.83181  1.0000
  H   H14       1.0  0.20591  0.56779  0.16819  1.0000
  H   H15       1.0  0.52034  0.07873  0.86038  1.0000
  H   H16       1.0  0.47965  0.92127  0.13962  1.0000
  H   H17       1.0  0.70280  0.14545  0.90016  1.0000
  H   H18       1.0  0.29720  0.85455  0.09985  1.0000
  H   H19       1.0  0.45574  0.23222  0.99758  1.0000
  H   H20       1.0  0.54425  0.76779  0.00242  1.0000
  H   H21       1.0  0.07790  0.85046  0.95446  1.0000
  H   H22       1.0  0.92209  0.14955  0.04555  1.0000
  H   H23       1.0  0.90284  0.73502  0.03021  1.0000
  H   H24       1.0  0.09718  0.26498  0.96978  1.0000
  C   C1        1.0  0.02177  0.78380  0.40375  1.0000
  C   C2        1.0  0.97823  0.21623  0.59625  1.0000
  C   C3        1.0  0.22072  0.75459  0.40395  1.0000
  C   C4        1.0  0.77927  0.24539  0.59605  1.0000
  C   C5        1.0  0.61706  0.31654  0.75416  1.0000
  C   C6        1.0  0.38294  0.68346  0.24585  1.0000
  C   C7        1.0  0.68059  0.46692  0.79377  1.0000
  C   C8        1.0  0.31941  0.53308  0.20622  1.0000
  C   C9        1.0  0.57112  0.18505  0.88571  1.0000
  C   C10       1.0  0.42887  0.81495  0.11430  1.0000
  S   S1        1.0  0.39508  0.38598  0.73018  1.0000
  S   S2        1.0  0.60492  0.61402  0.26982  1.0000
  Br  Br1       1.0  0.42666  0.84468  0.69070  1.0000
  Br  Br2       1.0  0.57341  0.15533  0.30927  1.0000
  N   N1        1.0  0.20244  0.64040  0.53826  1.0000
  N   N2        1.0  0.79756  0.35959  0.46174  1.0000
  O   O1        1.0  0.97706  0.92215  0.35647  1.0000
  O   O2        1.0  0.02291  0.07784  0.64355  1.0000
  O   O3        1.0  0.91478  0.66548  0.44365  1.0000
  O   O4        1.0  0.08523  0.33448  0.55635  1.0000
  O   O5        1.0  0.94541  0.83715  0.04099  1.0000
  O   O6        1.0  0.05456  0.16285  0.95901  1.0000
