data_image0
_chemical_formula_structural       Cu2H24C20S2N4O12
_chemical_formula_sum              "Cu2 H24 C20 S2 N4 O12"
_cell_length_a       7.08038
_cell_length_b       9.72268
_cell_length_c       9.72267
_cell_angle_alpha    78.9318
_cell_angle_beta     77.0697
_cell_angle_gamma    77.0696

_space_group_name_H-M_alt    "P 1"
_space_group_IT_number       1

loop_
  _space_group_symop_operation_xyz
  'x, y, z'

loop_
  _atom_site_type_symbol
  _atom_site_label
  _atom_site_symmetry_multiplicity
  _atom_site_fract_x
  _atom_site_fract_y
  _atom_site_fract_z
  _atom_site_occupancy
  Cu  Cu1       1.0  0.25000  0.27607  0.72393  1.0000
  Cu  Cu2       1.0  0.75000  0.72393  0.27607  1.0000
  H   H1        1.0  0.39877  0.48842  0.68782  1.0000
  H   H2        1.0  0.10123  0.31218  0.51158  1.0000
  H   H3        1.0  0.60123  0.51158  0.31218  1.0000
  H   H4        1.0  0.89877  0.68783  0.48842  1.0000
  H   H5        1.0  0.19842  0.54501  0.62586  1.0000
  H   H6        1.0  0.30158  0.37414  0.45499  1.0000
  H   H7        1.0  0.80158  0.45500  0.37413  1.0000
  H   H8        1.0  0.69842  0.62587  0.54501  1.0000
  H   H9        1.0  0.19372  0.45358  0.95873  1.0000
  H   H10       1.0  0.30628  0.04127  0.54642  1.0000
  H   H11       1.0  0.80629  0.54642  0.04127  1.0000
  H   H12       1.0  0.69372  0.95873  0.45358  1.0000
  H   H13       1.0  0.16442  0.40106  0.22455  1.0000
  H   H14       1.0  0.33559  0.77545  0.59894  1.0000
  H   H15       1.0  0.83559  0.59894  0.77545  1.0000
  H   H16       1.0  0.66441  0.22455  0.40106  1.0000
  H   H17       1.0  0.18126  0.14500  0.34283  1.0000
  H   H18       1.0  0.31874  0.65717  0.85500  1.0000
  H   H19       1.0  0.81874  0.85500  0.65717  1.0000
  H   H20       1.0  0.68126  0.34283  0.14500  1.0000
  H   H21       1.0  0.23555  0.95413  0.19217  1.0000
  H   H22       1.0  0.26444  0.80783  0.04588  1.0000
  H   H23       1.0  0.76444  0.04587  0.80783  1.0000
  H   H24       1.0  0.73556  0.19217  0.95412  1.0000
  C   C1        1.0  0.20093  0.34525  0.01602  1.0000
  C   C2        1.0  0.29907  0.98397  0.65475  1.0000
  C   C3        1.0  0.79908  0.65475  0.98397  1.0000
  C   C4        1.0  0.70092  0.01603  0.34525  1.0000
  C   C5        1.0  0.18343  0.31443  0.16365  1.0000
  C   C6        1.0  0.31657  0.83634  0.68557  1.0000
  C   C7        1.0  0.81657  0.68557  0.83634  1.0000
  C   C8        1.0  0.68342  0.16366  0.31442  1.0000
  C   C9        1.0  0.19414  0.17233  0.22763  1.0000
  C   C10       1.0  0.30586  0.77237  0.82767  1.0000
  C   C11       1.0  0.80586  0.82767  0.77237  1.0000
  C   C12       1.0  0.69414  0.22763  0.17233  1.0000
  C   C13       1.0  0.22200  0.06588  0.14351  1.0000
  C   C14       1.0  0.27800  0.85649  0.93412  1.0000
  C   C15       1.0  0.77799  0.93411  0.85649  1.0000
  C   C16       1.0  0.72200  0.14351  0.06588  1.0000
  C   C17       1.0  0.23685  0.10482  0.99601  1.0000
  C   C18       1.0  0.26315  0.00399  0.89518  1.0000
  C   C19       1.0  0.76315  0.89518  0.00399  1.0000
  C   C20       1.0  0.73685  0.99601  0.10482  1.0000
  S   S1        1.0  0.75000  0.34501  0.65500  1.0000
  S   S2        1.0  0.25000  0.65500  0.34500  1.0000
  N   N1        1.0  0.22703  0.24318  0.93497  1.0000
  N   N2        1.0  0.27297  0.06503  0.75682  1.0000
  N   N3        1.0  0.77298  0.75681  0.06503  1.0000
  N   N4        1.0  0.72702  0.93497  0.24319  1.0000
  O   O1        1.0  0.25278  0.48287  0.70915  1.0000
  O   O2        1.0  0.24722  0.29086  0.51712  1.0000
  O   O3        1.0  0.74722  0.51713  0.29086  1.0000
  O   O4        1.0  0.75278  0.70914  0.48288  1.0000
  O   O5        1.0  0.62130  0.23888  0.68161  1.0000
  O   O6        1.0  0.87870  0.31839  0.76112  1.0000
  O   O7        1.0  0.37870  0.76112  0.31839  1.0000
  O   O8        1.0  0.12130  0.68162  0.23888  1.0000
  O   O9        1.0  0.87732  0.34334  0.50710  1.0000
  O   O10       1.0  0.62268  0.49289  0.65666  1.0000
  O   O11       1.0  0.12268  0.65667  0.49289  1.0000
  O   O12       1.0  0.37732  0.50711  0.34334  1.0000
