data_image0
_chemical_formula_structural       Cu2H24C20S2N4O12
_chemical_formula_sum              "Cu2 H24 C20 S2 N4 O12"
_cell_length_a       7.11541
_cell_length_b       9.7067
_cell_length_c       9.71941
_cell_angle_alpha    79.1239
_cell_angle_beta     75.8827
_cell_angle_gamma    75.991

_space_group_name_H-M_alt    "P 1"
_space_group_IT_number       1

loop_
  _space_group_symop_operation_xyz
  'x, y, z'

loop_
  _atom_site_type_symbol
  _atom_site_label
  _atom_site_symmetry_multiplicity
  _atom_site_fract_x
  _atom_site_fract_y
  _atom_site_fract_z
  _atom_site_occupancy
  Cu  Cu1       1.0  0.24965  0.27542  0.22376  1.0000
  Cu  Cu2       1.0  0.75035  0.72458  0.77623  1.0000
  H   H1        1.0  0.30436  0.03928  0.04545  1.0000
  H   H2        1.0  0.69564  0.96071  0.95456  1.0000
  H   H3        1.0  0.33044  0.77340  0.09797  1.0000
  H   H4        1.0  0.66955  0.22659  0.90203  1.0000
  H   H5        1.0  0.31341  0.65590  0.35411  1.0000
  H   H6        1.0  0.68659  0.34409  0.64590  1.0000
  H   H7        1.0  0.26158  0.80739  0.54553  1.0000
  H   H8        1.0  0.73842  0.19261  0.45448  1.0000
  H   H9        1.0  0.23915  0.95407  0.69156  1.0000
  H   H10       1.0  0.76084  0.04593  0.30844  1.0000
  H   H11       1.0  0.18690  0.14607  0.84250  1.0000
  H   H12       1.0  0.81311  0.85393  0.15749  1.0000
  H   H13       1.0  0.16828  0.40257  0.72484  1.0000
  H   H14       1.0  0.83173  0.59743  0.27516  1.0000
  H   H15       1.0  0.19407  0.45461  0.45920  1.0000
  H   H16       1.0  0.80594  0.54540  0.54080  1.0000
  H   H17       1.0  0.10423  0.31146  0.01109  1.0000
  H   H18       1.0  0.89578  0.68853  0.98890  1.0000
  H   H19       1.0  0.30429  0.37218  0.95411  1.0000
  H   H20       1.0  0.69572  0.62781  0.04588  1.0000
  H   H21       1.0  0.39534  0.48858  0.18761  1.0000
  H   H22       1.0  0.60466  0.51142  0.81240  1.0000
  H   H23       1.0  0.19583  0.54529  0.12641  1.0000
  H   H24       1.0  0.80416  0.45471  0.87359  1.0000
  C   C1        1.0  0.29683  0.98258  0.15393  1.0000
  C   C2        1.0  0.70318  0.01742  0.84608  1.0000
  C   C3        1.0  0.31249  0.83481  0.18473  1.0000
  C   C4        1.0  0.68751  0.16519  0.81528  1.0000
  C   C5        1.0  0.30177  0.77122  0.32687  1.0000
  C   C6        1.0  0.69823  0.22877  0.67313  1.0000
  C   C7        1.0  0.27521  0.85587  0.43369  1.0000
  C   C8        1.0  0.72479  0.14413  0.56632  1.0000
  C   C9        1.0  0.26250  0.00339  0.39468  1.0000
  C   C10       1.0  0.73749  0.99661  0.60532  1.0000
  C   C11       1.0  0.23722  0.10482  0.49568  1.0000
  C   C12       1.0  0.76277  0.89519  0.50433  1.0000
  C   C13       1.0  0.22489  0.06603  0.64302  1.0000
  C   C14       1.0  0.77511  0.93397  0.35698  1.0000
  C   C15       1.0  0.19813  0.17319  0.72734  1.0000
  C   C16       1.0  0.80188  0.82681  0.27265  1.0000
  C   C17       1.0  0.18661  0.31550  0.66368  1.0000
  C   C18       1.0  0.81340  0.68450  0.33632  1.0000
  C   C19       1.0  0.20206  0.34606  0.51607  1.0000
  C   C20       1.0  0.79795  0.65394  0.48393  1.0000
  S   S1        1.0  0.74978  0.34604  0.15463  1.0000
  S   S2        1.0  0.25022  0.65396  0.84537  1.0000
  N   N1        1.0  0.27271  0.06415  0.25623  1.0000
  N   N2        1.0  0.72729  0.93585  0.74377  1.0000
  N   N3        1.0  0.22650  0.24339  0.43480  1.0000
  N   N4        1.0  0.77350  0.75661  0.56520  1.0000
  O   O1        1.0  0.87652  0.31985  0.26038  1.0000
  O   O2        1.0  0.12348  0.68017  0.73961  1.0000
  O   O3        1.0  0.61946  0.49499  0.15745  1.0000
  O   O4        1.0  0.38053  0.50501  0.84255  1.0000
  O   O5        1.0  0.88011  0.34308  0.00566  1.0000
  O   O6        1.0  0.11990  0.65693  0.99434  1.0000
  O   O7        1.0  0.62320  0.23980  0.18130  1.0000
  O   O8        1.0  0.37680  0.76021  0.81868  1.0000
  O   O9        1.0  0.24975  0.28956  0.01679  1.0000
  O   O10       1.0  0.75024  0.71043  0.98321  1.0000
  O   O11       1.0  0.24998  0.48254  0.20898  1.0000
  O   O12       1.0  0.75003  0.51745  0.79102  1.0000
