data_image0
_chemical_formula_structural       Mn2H32C56N20
_chemical_formula_sum              "Mn2 H32 C56 N20"
_cell_length_a       7.03356
_cell_length_b       11.8496
_cell_length_c       14.0134
_cell_angle_alpha    90
_cell_angle_beta     96.2959
_cell_angle_gamma    90

_space_group_name_H-M_alt    "P 1"
_space_group_IT_number       1

loop_
  _space_group_symop_operation_xyz
  'x, y, z'

loop_
  _atom_site_type_symbol
  _atom_site_label
  _atom_site_symmetry_multiplicity
  _atom_site_fract_x
  _atom_site_fract_y
  _atom_site_fract_z
  _atom_site_occupancy
  Mn  Mn1       1.0  0.99788  0.49481  0.49458  1.0000
  Mn  Mn2       1.0  0.50218  0.99468  0.50547  1.0000
  H   H1        1.0  0.97902  0.75682  0.53560  1.0000
  H   H2        1.0  0.48202  0.74343  0.53396  1.0000
  H   H3        1.0  0.01790  0.24334  0.46602  1.0000
  H   H4        1.0  0.52066  0.25670  0.46445  1.0000
  H   H5        1.0  0.03675  0.89708  0.66750  1.0000
  H   H6        1.0  0.53795  0.60397  0.66570  1.0000
  H   H7        1.0  0.96189  0.10396  0.33423  1.0000
  H   H8        1.0  0.46305  0.39700  0.33257  1.0000
  H   H9        1.0  0.23365  0.99079  0.77086  1.0000
  H   H10       1.0  0.73305  0.50972  0.76993  1.0000
  H   H11       1.0  0.76733  0.00966  0.23002  1.0000
  H   H12       1.0  0.26645  0.49074  0.22921  1.0000
  H   H13       1.0  0.30976  0.11650  0.90922  1.0000
  H   H14       1.0  0.80969  0.38451  0.90846  1.0000
  H   H15       1.0  0.69081  0.88440  0.09149  1.0000
  H   H16       1.0  0.19024  0.61647  0.09086  1.0000
  H   H17       1.0  0.18041  0.86853  0.10076  1.0000
  H   H18       1.0  0.68013  0.63275  0.09968  1.0000
  H   H19       1.0  0.81940  0.13284  0.90023  1.0000
  H   H20       1.0  0.31956  0.36852  0.89929  1.0000
  H   H21       1.0  0.09262  0.73211  0.96905  1.0000
  H   H22       1.0  0.59224  0.76887  0.96790  1.0000
  H   H23       1.0  0.90720  0.26900  0.03199  1.0000
  H   H24       1.0  0.40743  0.23208  0.03098  1.0000
  H   H25       1.0  0.17890  0.61515  0.86088  1.0000
  H   H26       1.0  0.67476  0.88601  0.85959  1.0000
  H   H27       1.0  0.82540  0.38604  0.14039  1.0000
  H   H28       1.0  0.32130  0.11510  0.13908  1.0000
  H   H29       1.0  0.10923  0.48941  0.72172  1.0000
  H   H30       1.0  0.60469  0.01145  0.72114  1.0000
  H   H31       1.0  0.89556  0.51145  0.27886  1.0000
  H   H32       1.0  0.39086  0.98934  0.27823  1.0000
  C   C1        1.0  0.46838  0.65674  0.35662  1.0000
  C   C2        1.0  0.97074  0.84305  0.35884  1.0000
  C   C3        1.0  0.52935  0.34329  0.64127  1.0000
  C   C4        1.0  0.03156  0.15665  0.64337  1.0000
  C   C5        1.0  0.64441  0.61794  0.39926  1.0000
  C   C6        1.0  0.14729  0.87895  0.40330  1.0000
  C   C7        1.0  0.35285  0.37924  0.59680  1.0000
  C   C8        1.0  0.85549  0.11786  0.60077  1.0000
  C   C9        1.0  0.45962  0.73431  0.27978  1.0000
  C   C10       1.0  0.96062  0.76818  0.28006  1.0000
  C   C11       1.0  0.53932  0.26828  0.71995  1.0000
  C   C12       1.0  0.04036  0.23431  0.72013  1.0000
  C   C13       1.0  0.30528  0.61591  0.39350  1.0000
  C   C14       1.0  0.80820  0.88087  0.39811  1.0000
  C   C15       1.0  0.69196  0.38106  0.60204  1.0000
  C   C16       1.0  0.19466  0.11577  0.60652  1.0000
  C   C17       1.0  0.02486  0.73028  0.60880  1.0000
  C   C18       1.0  0.52578  0.77036  0.60722  1.0000
  C   C19       1.0  0.97421  0.27034  0.39277  1.0000
  C   C20       1.0  0.47497  0.23017  0.39122  1.0000
  C   C21       1.0  0.05837  0.80771  0.68302  1.0000
  C   C22       1.0  0.55870  0.69335  0.68158  1.0000
  C   C23       1.0  0.94127  0.19335  0.31838  1.0000
  C   C24       1.0  0.44153  0.30761  0.31701  1.0000
  C   C25       1.0  0.11549  0.76965  0.77676  1.0000
  C   C26       1.0  0.61441  0.73109  0.77559  1.0000
  C   C27       1.0  0.88558  0.23111  0.22437  1.0000
  C   C28       1.0  0.38454  0.26959  0.22326  1.0000
  C   C29       1.0  0.15592  0.84910  0.85743  1.0000
  C   C30       1.0  0.65519  0.65170  0.85628  1.0000
  C   C31       1.0  0.84476  0.15171  0.14364  1.0000
  C   C32       1.0  0.34413  0.34908  0.14260  1.0000
  C   C33       1.0  0.21516  0.96015  0.84247  1.0000
  C   C34       1.0  0.71459  0.54060  0.84147  1.0000
  C   C35       1.0  0.78560  0.04056  0.15845  1.0000
  C   C36       1.0  0.28490  0.46010  0.15760  1.0000
  C   C37       1.0  0.25986  0.03088  0.92096  1.0000
  C   C38       1.0  0.75955  0.47007  0.92010  1.0000
  C   C39       1.0  0.74070  0.97000  0.07984  1.0000
  C   C40       1.0  0.24016  0.53086  0.07912  1.0000
  C   C41       1.0  0.18890  0.89351  0.02644  1.0000
  C   C42       1.0  0.68851  0.60759  0.02540  1.0000
  C   C43       1.0  0.81122  0.10764  0.97451  1.0000
  C   C44       1.0  0.31110  0.39350  0.97361  1.0000
  C   C45       1.0  0.14155  0.81636  0.95252  1.0000
  C   C46       1.0  0.64108  0.68460  0.95140  1.0000
  C   C47       1.0  0.85858  0.18468  0.04850  1.0000
  C   C48       1.0  0.35849  0.31633  0.04752  1.0000
  C   C49       1.0  0.13429  0.65263  0.79048  1.0000
  C   C50       1.0  0.63130  0.84824  0.78919  1.0000
  C   C51       1.0  0.86878  0.34826  0.21080  1.0000
  C   C52       1.0  0.36580  0.15258  0.20949  1.0000
  C   C53       1.0  0.09768  0.58062  0.71233  1.0000
  C   C54       1.0  0.59475  0.92036  0.71131  1.0000
  C   C55       1.0  0.90538  0.42036  0.28869  1.0000
  C   C56       1.0  0.40235  0.08054  0.28763  1.0000
  N   N1        1.0  0.78802  0.58132  0.43842  1.0000
  N   N2        1.0  0.29095  0.91232  0.44490  1.0000
  N   N3        1.0  0.20921  0.41260  0.55517  1.0000
  N   N4        1.0  0.71190  0.08125  0.56163  1.0000
  N   N5        1.0  0.45796  0.79945  0.21677  1.0000
  N   N6        1.0  0.95736  0.70492  0.21561  1.0000
  N   N7        1.0  0.54247  0.20485  0.78429  1.0000
  N   N8        1.0  0.04196  0.29950  0.78310  1.0000
  N   N9        1.0  0.17858  0.57617  0.43053  1.0000
  N   N10       1.0  0.68217  0.91697  0.43781  1.0000
  N   N11       1.0  0.81796  0.41714  0.56231  1.0000
  N   N12       1.0  0.32138  0.07598  0.56951  1.0000
  N   N13       1.0  0.04499  0.61843  0.62278  1.0000
  N   N14       1.0  0.54440  0.88290  0.62089  1.0000
  N   N15       1.0  0.95568  0.38288  0.37911  1.0000
  N   N16       1.0  0.45492  0.11832  0.37722  1.0000
  N   N17       1.0  0.24847  0.99926  0.01216  1.0000
  N   N18       1.0  0.74829  0.50184  0.01130  1.0000
  N   N19       1.0  0.75175  0.00183  0.98864  1.0000
  N   N20       1.0  0.25152  0.49924  0.98791  1.0000
