data_image0
_chemical_formula_structural       Cd2H28C28N4O10
_chemical_formula_sum              "Cd2 H28 C28 N4 O10"
_cell_length_a       6.28405
_cell_length_b       8.00387
_cell_length_c       16.3369
_cell_angle_alpha    82.7072
_cell_angle_beta     81.0867
_cell_angle_gamma    67.633

_space_group_name_H-M_alt    "P 1"
_space_group_IT_number       1

loop_
  _space_group_symop_operation_xyz
  'x, y, z'

loop_
  _atom_site_type_symbol
  _atom_site_label
  _atom_site_symmetry_multiplicity
  _atom_site_fract_x
  _atom_site_fract_y
  _atom_site_fract_z
  _atom_site_occupancy
  Cd  Cd1       1.0  0.72508  0.75291  0.24865  1.0000
  Cd  Cd2       1.0  0.27492  0.24708  0.75135  1.0000
  H   H1        1.0  0.62065  0.05383  0.62552  1.0000
  H   H2        1.0  0.29284  0.43125  0.87866  1.0000
  H   H3        1.0  0.37934  0.94617  0.37448  1.0000
  H   H4        1.0  0.70716  0.56876  0.12134  1.0000
  H   H5        1.0  0.42621  0.95627  0.64923  1.0000
  H   H6        1.0  0.02335  0.53864  0.85465  1.0000
  H   H7        1.0  0.57379  0.04373  0.35077  1.0000
  H   H8        1.0  0.97663  0.46136  0.14535  1.0000
  H   H9        1.0  0.39898  0.46298  0.39649  1.0000
  H   H10       1.0  0.25535  0.03347  0.10867  1.0000
  H   H11       1.0  0.60102  0.53703  0.60350  1.0000
  H   H12       1.0  0.74465  0.96656  0.89134  1.0000
  H   H13       1.0  0.89094  0.21581  0.45456  1.0000
  H   H14       1.0  0.56075  0.28907  0.04402  1.0000
  H   H15       1.0  0.10905  0.78419  0.54544  1.0000
  H   H16       1.0  0.43925  0.71093  0.95598  1.0000
  H   H17       1.0  0.08049  0.04814  0.58067  1.0000
  H   H18       1.0  0.70218  0.44937  0.91868  1.0000
  H   H19       1.0  0.91950  0.95186  0.41933  1.0000
  H   H20       1.0  0.29780  0.55063  0.08133  1.0000
  H   H21       1.0  0.57993  0.30568  0.52239  1.0000
  H   H22       1.0  0.39725  0.18335  0.98366  1.0000
  H   H23       1.0  0.42006  0.69432  0.47761  1.0000
  H   H24       1.0  0.60274  0.81668  0.01634  1.0000
  H   H25       1.0  0.31539  0.63968  0.26260  1.0000
  H   H26       1.0  0.24002  0.82392  0.21135  1.0000
  H   H27       1.0  0.68462  0.36031  0.73740  1.0000
  H   H28       1.0  0.75999  0.17607  0.78865  1.0000
  C   C1        1.0  0.13087  0.34960  0.41736  1.0000
  C   C2        1.0  0.89603  0.15121  0.08498  1.0000
  C   C3        1.0  0.86912  0.65041  0.58264  1.0000
  C   C4        1.0  0.10397  0.84878  0.91502  1.0000
  C   C5        1.0  0.99885  0.46425  0.34887  1.0000
  C   C6        1.0  0.81248  0.04226  0.15413  1.0000
  C   C7        1.0  0.00115  0.53575  0.65112  1.0000
  C   C8        1.0  0.18753  0.95773  0.84588  1.0000
  C   C9        1.0  0.32795  0.37236  0.43632  1.0000
  C   C10       1.0  0.13205  0.12419  0.06778  1.0000
  C   C11       1.0  0.67205  0.62763  0.56368  1.0000
  C   C12       1.0  0.86794  0.87582  0.93222  1.0000
  C   C13       1.0  0.34544  0.16332  0.55828  1.0000
  C   C14       1.0  0.05815  0.33073  0.94450  1.0000
  C   C15       1.0  0.65456  0.83667  0.44172  1.0000
  C   C16       1.0  0.94184  0.66928  0.05551  1.0000
  C   C17       1.0  0.04506  0.23082  0.46958  1.0000
  C   C18       1.0  0.74313  0.27007  0.03076  1.0000
  C   C19       1.0  0.95495  0.76917  0.53041  1.0000
  C   C20       1.0  0.25687  0.72992  0.96925  1.0000
  C   C21       1.0  0.15010  0.13817  0.53943  1.0000
  C   C22       1.0  0.82174  0.35932  0.96124  1.0000
  C   C23       1.0  0.84990  0.86183  0.46056  1.0000
  C   C24       1.0  0.17825  0.64069  0.03877  1.0000
  C   C25       1.0  0.43249  0.28161  0.50650  1.0000
  C   C26       1.0  0.21244  0.21113  0.99788  1.0000
  C   C27       1.0  0.56751  0.71838  0.49350  1.0000
  C   C28       1.0  0.78755  0.78889  0.00212  1.0000
  N   N1        1.0  0.44812  0.07619  0.63115  1.0000
  N   N2        1.0  0.14175  0.41622  0.87286  1.0000
  N   N3        1.0  0.55188  0.92381  0.36884  1.0000
  N   N4        1.0  0.85824  0.58379  0.12714  1.0000
  O   O1        1.0  0.80244  0.46152  0.34063  1.0000
  O   O2        1.0  0.60810  0.04279  0.15898  1.0000
  O   O3        1.0  0.19756  0.53849  0.65936  1.0000
  O   O4        1.0  0.39190  0.95720  0.84103  1.0000
  O   O5        1.0  0.08296  0.57227  0.30260  1.0000
  O   O6        1.0  0.95470  0.94161  0.20523  1.0000
  O   O7        1.0  0.91705  0.42772  0.69739  1.0000
  O   O8        1.0  0.04531  0.05839  0.79478  1.0000
  O   O9        1.0  0.38291  0.72145  0.22685  1.0000
  O   O10       1.0  0.61710  0.27855  0.77315  1.0000
