data_image0
_chemical_formula_structural       Cd2H28C28N4O10
_chemical_formula_sum              "Cd2 H28 C28 N4 O10"
_cell_length_a       6.19271
_cell_length_b       7.93013
_cell_length_c       17.236
_cell_angle_alpha    88.7608
_cell_angle_beta     107.4
_cell_angle_gamma    111.57

_space_group_name_H-M_alt    "P 1"
_space_group_IT_number       1

loop_
  _space_group_symop_operation_xyz
  'x, y, z'

loop_
  _atom_site_type_symbol
  _atom_site_label
  _atom_site_symmetry_multiplicity
  _atom_site_fract_x
  _atom_site_fract_y
  _atom_site_fract_z
  _atom_site_occupancy
  Cd  Cd1       1.0  0.00349  0.76237  0.75421  1.0000
  Cd  Cd2       1.0  0.99650  0.23763  0.24579  1.0000
  H   H1        1.0  0.65834  0.23651  0.55199  1.0000
  H   H2        1.0  0.34164  0.76348  0.44800  1.0000
  H   H3        1.0  0.35057  0.05427  0.42256  1.0000
  H   H4        1.0  0.64941  0.94572  0.57744  1.0000
  H   H5        1.0  0.83461  0.26666  0.45663  1.0000
  H   H6        1.0  0.16539  0.73333  0.54337  1.0000
  H   H7        1.0  0.13776  0.44113  0.58685  1.0000
  H   H8        1.0  0.86225  0.55890  0.41315  1.0000
  H   H9        1.0  0.91736  0.93778  0.34115  1.0000
  H   H10       1.0  0.08262  0.06220  0.65885  1.0000
  H   H11       1.0  0.72934  0.03585  0.34991  1.0000
  H   H12       1.0  0.27065  0.96415  0.65009  1.0000
  H   H13       1.0  0.40367  0.31553  0.96608  1.0000
  H   H14       1.0  0.59635  0.68447  0.03392  1.0000
  H   H15       1.0  0.38052  0.46318  0.08848  1.0000
  H   H16       1.0  0.61949  0.53682  0.91153  1.0000
  H   H17       1.0  0.60260  0.16314  0.01186  1.0000
  H   H18       1.0  0.39741  0.83686  0.98815  1.0000
  H   H19       1.0  0.62480  0.02444  0.89049  1.0000
  H   H20       1.0  0.37521  0.97558  0.10951  1.0000
  H   H21       1.0  0.10963  0.53332  0.14637  1.0000
  H   H22       1.0  0.89039  0.46668  0.85363  1.0000
  H   H23       1.0  0.81094  0.40962  0.12139  1.0000
  H   H24       1.0  0.18908  0.59040  0.87861  1.0000
  H   H25       1.0  0.54277  0.82077  0.79628  1.0000
  H   H26       1.0  0.45723  0.17923  0.20372  1.0000
  H   H27       1.0  0.38959  0.64289  0.73916  1.0000
  H   H28       1.0  0.61040  0.35711  0.26084  1.0000
  C   C1        1.0  0.61538  0.47754  0.64783  1.0000
  C   C2        1.0  0.38460  0.52245  0.35216  1.0000
  C   C3        1.0  0.41948  0.35106  0.57741  1.0000
  C   C4        1.0  0.58052  0.64894  0.42258  1.0000
  C   C5        1.0  0.47525  0.23875  0.53127  1.0000
  C   C6        1.0  0.52477  0.76126  0.46872  1.0000
  C   C7        1.0  0.30447  0.13807  0.45932  1.0000
  C   C8        1.0  0.69551  0.86192  0.54068  1.0000
  C   C9        1.0  0.07312  0.14838  0.43204  1.0000
  C   C10       1.0  0.92685  0.85160  0.56795  1.0000
  C   C11       1.0  0.01376  0.25709  0.47854  1.0000
  C   C12       1.0  0.98622  0.74292  0.52145  1.0000
  C   C13       1.0  0.18464  0.35633  0.55091  1.0000
  C   C14       1.0  0.81535  0.64366  0.44908  1.0000
  C   C15       1.0  0.03518  0.05545  0.85225  1.0000
  C   C16       1.0  0.96484  0.94456  0.14775  1.0000
  C   C17       1.0  0.01752  0.15840  0.91998  1.0000
  C   C18       1.0  0.98250  0.84161  0.08002  1.0000
  C   C19       1.0  0.22858  0.28465  0.97625  1.0000
  C   C20       1.0  0.77143  0.71535  0.02375  1.0000
  C   C21       1.0  0.21615  0.36732  0.04411  1.0000
  C   C22       1.0  0.78387  0.63268  0.95590  1.0000
  C   C23       1.0  0.98997  0.32560  0.05714  1.0000
  C   C24       1.0  0.01004  0.67441  0.94286  1.0000
  C   C25       1.0  0.77862  0.19995  0.00155  1.0000
  C   C26       1.0  0.22138  0.80003  0.99845  1.0000
  C   C27       1.0  0.79241  0.11928  0.93336  1.0000
  C   C28       1.0  0.20760  0.88072  0.06664  1.0000
  N   N1        1.0  0.90651  0.05805  0.35537  1.0000
  N   N2        1.0  0.09346  0.94195  0.64462  1.0000
  N   N3        1.0  0.97826  0.40592  0.12726  1.0000
  N   N4        1.0  0.02177  0.59408  0.87275  1.0000
  O   O1        1.0  0.83238  0.48057  0.66601  1.0000
  O   O2        1.0  0.16762  0.51944  0.33398  1.0000
  O   O3        1.0  0.56359  0.58812  0.68528  1.0000
  O   O4        1.0  0.43641  0.41189  0.31472  1.0000
  O   O5        1.0  0.24146  0.06985  0.84780  1.0000
  O   O6        1.0  0.75854  0.93016  0.15220  1.0000
  O   O7        1.0  0.83376  0.94410  0.80107  1.0000
  O   O8        1.0  0.16625  0.05590  0.19893  1.0000
  O   O9        1.0  0.37724  0.72014  0.78076  1.0000
  O   O10       1.0  0.62275  0.27985  0.21923  1.0000
