data_image0
_chemical_formula_structural       Cu2H16C20S4I2N4
_chemical_formula_sum              "Cu2 H16 C20 S4 I2 N4"
_cell_length_a       8.1255
_cell_length_b       10.0692
_cell_length_c       11.0318
_cell_angle_alpha    117.06
_cell_angle_beta     95.7554
_cell_angle_gamma    94.9475

_space_group_name_H-M_alt    "P 1"
_space_group_IT_number       1

loop_
  _space_group_symop_operation_xyz
  'x, y, z'

loop_
  _atom_site_type_symbol
  _atom_site_label
  _atom_site_symmetry_multiplicity
  _atom_site_fract_x
  _atom_site_fract_y
  _atom_site_fract_z
  _atom_site_occupancy
  Cu  Cu1       1.0  0.38221  0.38670  0.44408  1.0000
  Cu  Cu2       1.0  0.61779  0.61330  0.55592  1.0000
  H   H1        1.0  0.41991  0.08940  0.42134  1.0000
  H   H2        1.0  0.58009  0.91060  0.57866  1.0000
  H   H3        1.0  0.29076  0.91622  0.50323  1.0000
  H   H4        1.0  0.70925  0.08377  0.49677  1.0000
  H   H5        1.0  0.04512  0.28364  0.76549  1.0000
  H   H6        1.0  0.95489  0.71636  0.23452  1.0000
  H   H7        1.0  0.18101  0.43844  0.66885  1.0000
  H   H8        1.0  0.81900  0.56156  0.33116  1.0000
  H   H9        1.0  0.03871  0.38605  0.33344  1.0000
  H   H10       1.0  0.96127  0.61396  0.66656  1.0000
  H   H11       1.0  0.85265  0.26175  0.10813  1.0000
  H   H12       1.0  0.14734  0.73825  0.89187  1.0000
  H   H13       1.0  0.28674  0.10239  0.91797  1.0000
  H   H14       1.0  0.71326  0.89760  0.08202  1.0000
  H   H15       1.0  0.45413  0.22967  0.15510  1.0000
  H   H16       1.0  0.54586  0.77033  0.84490  1.0000
  C   C1        1.0  0.33526  0.12733  0.49732  1.0000
  C   C2        1.0  0.66475  0.87267  0.50268  1.0000
  C   C3        1.0  0.26437  0.03186  0.54357  1.0000
  C   C4        1.0  0.73564  0.96813  0.45643  1.0000
  C   C5        1.0  0.15667  0.08680  0.64188  1.0000
  C   C6        1.0  0.84334  0.91320  0.35813  1.0000
  C   C7        1.0  0.12752  0.23583  0.68926  1.0000
  C   C8        1.0  0.87250  0.76417  0.31074  1.0000
  C   C9        1.0  0.20265  0.32225  0.63570  1.0000
  C   C10       1.0  0.79736  0.67775  0.36430  1.0000
  C   C11       1.0  0.08943  0.32213  0.23892  1.0000
  C   C12       1.0  0.91055  0.67787  0.76108  1.0000
  C   C13       1.0  0.98588  0.25343  0.11200  1.0000
  C   C14       1.0  0.01411  0.74657  0.88800  1.0000
  C   C15       1.0  0.05558  0.17195  0.99281  1.0000
  C   C16       1.0  0.94442  0.82805  0.00720  1.0000
  C   C17       1.0  0.22721  0.16484  0.00752  1.0000
  C   C18       1.0  0.77278  0.83516  0.99248  1.0000
  C   C19       1.0  0.32039  0.23507  0.13888  1.0000
  C   C20       1.0  0.67959  0.76493  0.86112  1.0000
  S   S1        1.0  0.06439  0.96029  0.69518  1.0000
  S   S2        1.0  0.93562  0.03971  0.30482  1.0000
  S   S3        1.0  0.91882  0.08268  0.83361  1.0000
  S   S4        1.0  0.08118  0.91732  0.16639  1.0000
  I   I1        1.0  0.30522  0.66208  0.58391  1.0000
  I   I2        1.0  0.69477  0.33792  0.41609  1.0000
  N   N1        1.0  0.30504  0.27053  0.54053  1.0000
  N   N2        1.0  0.69496  0.72946  0.45947  1.0000
  N   N3        1.0  0.25436  0.31249  0.25417  1.0000
  N   N4        1.0  0.74562  0.68751  0.74582  1.0000
