data_image0
_chemical_formula_structural       Cu4H40C48N8Cl8O24
_chemical_formula_sum              "Cu4 H40 C48 N8 Cl8 O24"
_cell_length_a       10.8352
_cell_length_b       11.0072
_cell_length_c       14.1406
_cell_angle_alpha    112.887
_cell_angle_beta     93.3705
_cell_angle_gamma    89.9771

_space_group_name_H-M_alt    "P 1"
_space_group_IT_number       1

loop_
  _space_group_symop_operation_xyz
  'x, y, z'

loop_
  _atom_site_type_symbol
  _atom_site_label
  _atom_site_symmetry_multiplicity
  _atom_site_fract_x
  _atom_site_fract_y
  _atom_site_fract_z
  _atom_site_occupancy
  Cu  Cu1       1.0  0.75006  0.16051  0.99998  1.0000
  Cu  Cu2       1.0  0.24992  0.83949  0.00004  1.0000
  Cu  Cu3       1.0  0.49999  0.50000  0.50000  1.0000
  Cu  Cu4       1.0  0.99999  0.99999  0.50000  1.0000
  H   H1        1.0  0.99587  0.08056  0.93530  1.0000
  H   H2        1.0  0.50411  0.14530  0.06468  1.0000
  H   H3        1.0  0.00413  0.91944  0.06470  1.0000
  H   H4        1.0  0.49589  0.85469  0.93532  1.0000
  H   H5        1.0  0.97458  0.13814  0.05159  1.0000
  H   H6        1.0  0.52549  0.08666  0.94843  1.0000
  H   H7        1.0  0.02544  0.86187  0.94841  1.0000
  H   H8        1.0  0.47452  0.91333  0.05157  1.0000
  H   H9        1.0  0.65373  0.26700  0.52491  1.0000
  H   H10       1.0  0.84629  0.74210  0.47507  1.0000
  H   H11       1.0  0.34626  0.73301  0.47509  1.0000
  H   H12       1.0  0.15370  0.25788  0.52492  1.0000
  H   H13       1.0  0.50676  0.26151  0.52499  1.0000
  H   H14       1.0  0.99326  0.73651  0.47503  1.0000
  H   H15       1.0  0.49324  0.73851  0.47500  1.0000
  H   H16       1.0  0.00673  0.26345  0.52496  1.0000
  H   H17       1.0  0.89666  0.39393  0.01891  1.0000
  H   H18       1.0  0.60337  0.37484  0.98105  1.0000
  H   H19       1.0  0.10337  0.60601  0.98112  1.0000
  H   H20       1.0  0.39667  0.62525  0.01897  1.0000
  H   H21       1.0  0.79477  0.71509  0.29449  1.0000
  H   H22       1.0  0.70510  0.42067  0.70547  1.0000
  H   H23       1.0  0.20520  0.28491  0.70549  1.0000
  H   H24       1.0  0.29490  0.57931  0.29450  1.0000
  H   H25       1.0  0.66697  0.31421  0.21370  1.0000
  H   H26       1.0  0.83297  0.10034  0.78617  1.0000
  H   H27       1.0  0.33300  0.68581  0.78632  1.0000
  H   H28       1.0  0.16700  0.89967  0.21386  1.0000
  H   H29       1.0  0.90094  0.79947  0.79602  1.0000
  H   H30       1.0  0.59896  0.00354  0.20394  1.0000
  H   H31       1.0  0.09906  0.20054  0.20399  1.0000
  H   H32       1.0  0.40103  0.99647  0.79608  1.0000
  H   H33       1.0  0.77082  0.46177  0.52600  1.0000
  H   H34       1.0  0.72903  0.93572  0.47406  1.0000
  H   H35       1.0  0.22921  0.53824  0.47400  1.0000
  H   H36       1.0  0.27100  0.06428  0.52594  1.0000
  H   H37       1.0  0.51657  0.73657  0.68622  1.0000
  H   H38       1.0  0.98325  0.05027  0.31385  1.0000
  H   H39       1.0  0.48344  0.26341  0.31377  1.0000
  H   H40       1.0  0.01675  0.94973  0.68613  1.0000
  C   C1        1.0  0.84716  0.43281  0.08887  1.0000
  C   C2        1.0  0.65289  0.34383  0.91111  1.0000
  C   C3        1.0  0.15287  0.56717  0.91115  1.0000
  C   C4        1.0  0.34714  0.65622  0.08890  1.0000
  C   C5        1.0  0.85213  0.56682  0.15171  1.0000
  C   C6        1.0  0.64792  0.41508  0.84829  1.0000
  C   C7        1.0  0.14788  0.43316  0.84828  1.0000
  C   C8        1.0  0.35209  0.58495  0.15170  1.0000
  C   C9        1.0  0.79232  0.61130  0.24317  1.0000
  C   C10       1.0  0.70768  0.36817  0.75681  1.0000
  C   C11       1.0  0.20767  0.38869  0.75682  1.0000
  C   C12       1.0  0.29232  0.63184  0.24318  1.0000
  C   C13       1.0  0.72701  0.51974  0.26806  1.0000
  C   C14       1.0  0.77298  0.25168  0.73188  1.0000
  C   C15       1.0  0.27295  0.48027  0.73195  1.0000
  C   C16       1.0  0.22701  0.74832  0.26812  1.0000
  C   C17       1.0  0.72062  0.38780  0.19897  1.0000
  C   C18       1.0  0.77939  0.18873  0.80095  1.0000
  C   C19       1.0  0.27937  0.61220  0.80104  1.0000
  C   C20       1.0  0.22061  0.81128  0.19906  1.0000
  C   C21       1.0  0.66164  0.56566  0.36700  1.0000
  C   C22       1.0  0.83836  0.19869  0.63295  1.0000
  C   C23       1.0  0.33833  0.43434  0.63298  1.0000
  C   C24       1.0  0.16163  0.80128  0.36703  1.0000
  C   C25       1.0  0.67154  0.90756  0.83971  1.0000
  C   C26       1.0  0.82846  0.06786  0.16036  1.0000
  C   C27       1.0  0.32848  0.09243  0.16029  1.0000
  C   C28       1.0  0.17152  0.93216  0.83966  1.0000
  C   C29       1.0  0.70471  0.78214  0.75340  1.0000
  C   C30       1.0  0.79520  0.02877  0.24663  1.0000
  C   C31       1.0  0.29530  0.21785  0.24660  1.0000
  C   C32       1.0  0.20481  0.97124  0.75338  1.0000
  C   C33       1.0  0.82667  0.74049  0.74270  1.0000
  C   C34       1.0  0.67321  0.99789  0.25730  1.0000
  C   C35       1.0  0.17333  0.25951  0.25730  1.0000
  C   C36       1.0  0.32679  0.00212  0.74271  1.0000
  C   C37       1.0  0.85077  0.62366  0.66088  1.0000
  C   C38       1.0  0.64909  0.96288  0.33915  1.0000
  C   C39       1.0  0.14925  0.37635  0.33912  1.0000
  C   C40       1.0  0.35091  0.03711  0.66086  1.0000
  C   C41       1.0  0.75483  0.55298  0.59100  1.0000
  C   C42       1.0  0.74502  0.96197  0.40904  1.0000
  C   C43       1.0  0.24519  0.44702  0.40899  1.0000
  C   C44       1.0  0.25499  0.03802  0.59095  1.0000
  C   C45       1.0  0.61241  0.70681  0.68152  1.0000
  C   C46       1.0  0.88742  0.02524  0.31855  1.0000
  C   C47       1.0  0.38760  0.29319  0.31848  1.0000
  C   C48       1.0  0.11258  0.97475  0.68144  1.0000
  N   N1        1.0  0.77952  0.34627  0.11139  1.0000
  N   N2        1.0  0.72050  0.23473  0.88854  1.0000
  N   N3        1.0  0.22048  0.65370  0.88862  1.0000
  N   N4        1.0  0.27951  0.76531  0.11148  1.0000
  N   N5        1.0  0.63820  0.59568  0.60228  1.0000
  N   N6        1.0  0.86166  0.99330  0.39780  1.0000
  N   N7        1.0  0.36181  0.40432  0.39771  1.0000
  N   N8        1.0  0.13835  0.00669  0.60219  1.0000
  Cl  Cl1       1.0  0.92565  0.67510  0.11151  1.0000
  Cl  Cl2       1.0  0.57443  0.56361  0.88857  1.0000
  Cl  Cl3       1.0  0.07436  0.32486  0.88847  1.0000
  Cl  Cl4       1.0  0.42559  0.43641  0.11141  1.0000
  Cl  Cl5       1.0  0.99943  0.56623  0.64535  1.0000
  Cl  Cl6       1.0  0.50041  0.92109  0.35469  1.0000
  Cl  Cl7       1.0  0.00058  0.43379  0.35465  1.0000
  Cl  Cl8       1.0  0.49959  0.07892  0.64533  1.0000
  O   O1        1.0  0.67094  0.68555  0.42620  1.0000
  O   O2        1.0  0.82902  0.25939  0.57369  1.0000
  O   O3        1.0  0.32901  0.31445  0.57377  1.0000
  O   O4        1.0  0.17099  0.74061  0.42631  1.0000
  O   O5        1.0  0.60140  0.47408  0.38074  1.0000
  O   O6        1.0  0.89861  0.09340  0.61929  1.0000
  O   O7        1.0  0.39856  0.52593  0.61925  1.0000
  O   O8        1.0  0.10133  0.90656  0.38069  1.0000
  O   O9        1.0  0.76327  0.98123  0.89122  1.0000
  O   O10       1.0  0.73681  0.09019  0.10879  1.0000
  O   O11       1.0  0.23674  0.01876  0.10880  1.0000
  O   O12       1.0  0.26320  0.90986  0.89124  1.0000
  O   O13       1.0  0.55834  0.93086  0.85400  1.0000
  O   O14       1.0  0.94169  0.07671  0.14609  1.0000
  O   O15       1.0  0.44165  0.06914  0.14601  1.0000
  O   O16       1.0  0.05833  0.92330  0.85392  1.0000
  O   O17       1.0  0.97452  0.16335  0.99135  1.0000
  O   O18       1.0  0.52538  0.17208  0.00863  1.0000
  O   O19       1.0  0.02549  0.83666  0.00865  1.0000
  O   O20       1.0  0.47463  0.82791  0.99137  1.0000
  O   O21       1.0  0.57617  0.27825  0.48991  1.0000
  O   O22       1.0  0.92381  0.78834  0.51005  1.0000
  O   O23       1.0  0.42382  0.72174  0.51008  1.0000
  O   O24       1.0  0.07617  0.21165  0.48991  1.0000
