data_image0
_chemical_formula_structural       Ag4H32C8Br4N8
_chemical_formula_sum              "Ag4 H32 C8 Br4 N8"
_cell_length_a       6.60163
_cell_length_b       7.60077
_cell_length_c       11.3968
_cell_angle_alpha    90.0006
_cell_angle_beta     97.2964
_cell_angle_gamma    90.0003

_space_group_name_H-M_alt    "P 1"
_space_group_IT_number       1

loop_
  _space_group_symop_operation_xyz
  'x, y, z'

loop_
  _atom_site_type_symbol
  _atom_site_label
  _atom_site_symmetry_multiplicity
  _atom_site_fract_x
  _atom_site_fract_y
  _atom_site_fract_z
  _atom_site_occupancy
  Ag  Ag1       1.0  0.37032  0.46444  0.38179  1.0000
  Ag  Ag2       1.0  0.37032  0.03556  0.88180  1.0000
  Ag  Ag3       1.0  0.62967  0.53559  0.61822  1.0000
  Ag  Ag4       1.0  0.62968  0.96442  0.11822  1.0000
  H   H1        1.0  0.61689  0.42406  0.20149  1.0000
  H   H2        1.0  0.61688  0.07594  0.70149  1.0000
  H   H3        1.0  0.38311  0.57593  0.79851  1.0000
  H   H4        1.0  0.38311  0.92407  0.29851  1.0000
  H   H5        1.0  0.50435  0.61415  0.18250  1.0000
  H   H6        1.0  0.50434  0.88585  0.68250  1.0000
  H   H7        1.0  0.49567  0.38584  0.81751  1.0000
  H   H8        1.0  0.49567  0.11416  0.31751  1.0000
  H   H9        1.0  0.84419  0.54645  0.37242  1.0000
  H   H10       1.0  0.84417  0.95356  0.87242  1.0000
  H   H11       1.0  0.15583  0.45353  0.62758  1.0000
  H   H12       1.0  0.15584  0.04645  0.12758  1.0000
  H   H13       1.0  0.73359  0.75285  0.32899  1.0000
  H   H14       1.0  0.73357  0.74715  0.82899  1.0000
  H   H15       1.0  0.26643  0.24713  0.67102  1.0000
  H   H16       1.0  0.26643  0.25286  0.17102  1.0000
  H   H17       1.0  0.05807  0.72280  0.25096  1.0000
  H   H18       1.0  0.05805  0.77722  0.75096  1.0000
  H   H19       1.0  0.94194  0.27719  0.74904  1.0000
  H   H20       1.0  0.94194  0.22279  0.24904  1.0000
  H   H21       1.0  0.99027  0.51480  0.18756  1.0000
  H   H22       1.0  0.99026  0.98522  0.68756  1.0000
  H   H23       1.0  0.00974  0.48520  0.81243  1.0000
  H   H24       1.0  0.00975  0.01479  0.31243  1.0000
  H   H25       1.0  0.74819  0.64764  0.04851  1.0000
  H   H26       1.0  0.74817  0.85238  0.54851  1.0000
  H   H27       1.0  0.25182  0.35236  0.95149  1.0000
  H   H28       1.0  0.25182  0.14763  0.45149  1.0000
  H   H29       1.0  0.95866  0.76235  0.05095  1.0000
  H   H30       1.0  0.95864  0.73766  0.55096  1.0000
  H   H31       1.0  0.04135  0.23765  0.94904  1.0000
  H   H32       1.0  0.04135  0.26234  0.44904  1.0000
  C   C1        1.0  0.77442  0.62308  0.29593  1.0000
  C   C2        1.0  0.77441  0.87693  0.79593  1.0000
  C   C3        1.0  0.22560  0.37690  0.70407  1.0000
  C   C4        1.0  0.22560  0.12308  0.20408  1.0000
  C   C5        1.0  0.92908  0.64466  0.20856  1.0000
  C   C6        1.0  0.92907  0.85534  0.70856  1.0000
  C   C7        1.0  0.07093  0.35532  0.79144  1.0000
  C   C8        1.0  0.07093  0.14466  0.29144  1.0000
  Br  Br1       1.0  0.29800  0.77382  0.48822  1.0000
  Br  Br2       1.0  0.29803  0.72618  0.98823  1.0000
  Br  Br3       1.0  0.70195  0.22620  0.51177  1.0000
  Br  Br4       1.0  0.70196  0.27380  0.01178  1.0000
  N   N1        1.0  0.58303  0.53549  0.24631  1.0000
  N   N2        1.0  0.58301  0.96451  0.74631  1.0000
  N   N3        1.0  0.41697  0.46453  0.75369  1.0000
  N   N4        1.0  0.41697  0.03548  0.25369  1.0000
  N   N5        1.0  0.84085  0.73456  0.09909  1.0000
  N   N6        1.0  0.84086  0.76544  0.59909  1.0000
  N   N7        1.0  0.15914  0.26544  0.90091  1.0000
  N   N8        1.0  0.15913  0.23457  0.40091  1.0000
