data_image0
_chemical_formula_structural       Ag8H32C8Br8N8
_chemical_formula_sum              "Ag8 H32 C8 Br8 N8"
_cell_length_a       7.33633
_cell_length_b       7.33625
_cell_length_c       14.335
_cell_angle_alpha    89.9998
_cell_angle_beta     90.0001
_cell_angle_gamma    89.9993

_space_group_name_H-M_alt    "P 1"
_space_group_IT_number       1

loop_
  _space_group_symop_operation_xyz
  'x, y, z'

loop_
  _atom_site_type_symbol
  _atom_site_label
  _atom_site_symmetry_multiplicity
  _atom_site_fract_x
  _atom_site_fract_y
  _atom_site_fract_z
  _atom_site_occupancy
  Ag  Ag1       1.0  0.43413  0.83307  0.72371  1.0000
  Ag  Ag2       1.0  0.56586  0.16694  0.22372  1.0000
  Ag  Ag3       1.0  0.66693  0.93414  0.97371  1.0000
  Ag  Ag4       1.0  0.33308  0.06587  0.47371  1.0000
  Ag  Ag5       1.0  0.06587  0.33307  0.52628  1.0000
  Ag  Ag6       1.0  0.93413  0.66694  0.02627  1.0000
  Ag  Ag7       1.0  0.83307  0.43414  0.27628  1.0000
  Ag  Ag8       1.0  0.16693  0.56587  0.77629  1.0000
  H   H1        1.0  0.72680  0.65782  0.64412  1.0000
  H   H2        1.0  0.27320  0.34219  0.14412  1.0000
  H   H3        1.0  0.84218  0.22682  0.89411  1.0000
  H   H4        1.0  0.15782  0.77318  0.39411  1.0000
  H   H5        1.0  0.77319  0.15782  0.60588  1.0000
  H   H6        1.0  0.22680  0.84218  0.10589  1.0000
  H   H7        1.0  0.65783  0.72681  0.35589  1.0000
  H   H8        1.0  0.34217  0.27319  0.85589  1.0000
  H   H9        1.0  0.55551  0.51245  0.65014  1.0000
  H   H10       1.0  0.44450  0.48755  0.15014  1.0000
  H   H11       1.0  0.98756  0.05550  0.90013  1.0000
  H   H12       1.0  0.01244  0.94449  0.40013  1.0000
  H   H13       1.0  0.94449  0.01246  0.59987  1.0000
  H   H14       1.0  0.05551  0.98754  0.09987  1.0000
  H   H15       1.0  0.51246  0.55550  0.34987  1.0000
  H   H16       1.0  0.48756  0.44450  0.84987  1.0000
  H   H17       1.0  0.57366  0.81385  0.51473  1.0000
  H   H18       1.0  0.42633  0.18614  0.01473  1.0000
  H   H19       1.0  0.68614  0.07367  0.76472  1.0000
  H   H20       1.0  0.31387  0.92632  0.26472  1.0000
  H   H21       1.0  0.92634  0.31387  0.73527  1.0000
  H   H22       1.0  0.07366  0.68613  0.23527  1.0000
  H   H23       1.0  0.81388  0.57366  0.48528  1.0000
  H   H24       1.0  0.18612  0.42635  0.98528  1.0000
  H   H25       1.0  0.40591  0.64002  0.52006  1.0000
  H   H26       1.0  0.59409  0.35996  0.02007  1.0000
  H   H27       1.0  0.85997  0.90590  0.77006  1.0000
  H   H28       1.0  0.14003  0.09409  0.27006  1.0000
  H   H29       1.0  0.09408  0.14004  0.72993  1.0000
  H   H30       1.0  0.90591  0.85996  0.22993  1.0000
  H   H31       1.0  0.64005  0.40590  0.47994  1.0000
  H   H32       1.0  0.35996  0.59411  0.97995  1.0000
  C   C1        1.0  0.55106  0.66939  0.53165  1.0000
  C   C2        1.0  0.44893  0.33062  0.03166  1.0000
  C   C3        1.0  0.83061  0.05106  0.78165  1.0000
  C   C4        1.0  0.16938  0.94893  0.28166  1.0000
  C   C5        1.0  0.94898  0.16938  0.71834  1.0000
  C   C6        1.0  0.05103  0.83061  0.21834  1.0000
  C   C7        1.0  0.66937  0.55103  0.46835  1.0000
  C   C8        1.0  0.33063  0.44894  0.96835  1.0000
  Br  Br1       1.0  0.31048  0.93153  0.88435  1.0000
  Br  Br2       1.0  0.68953  0.06848  0.38435  1.0000
  Br  Br3       1.0  0.56848  0.81048  0.13435  1.0000
  Br  Br4       1.0  0.43153  0.18952  0.63435  1.0000
  Br  Br5       1.0  0.18953  0.43151  0.36565  1.0000
  Br  Br6       1.0  0.81047  0.56849  0.86565  1.0000
  Br  Br7       1.0  0.93150  0.31047  0.11565  1.0000
  Br  Br8       1.0  0.06850  0.68953  0.61565  1.0000
  N   N1        1.0  0.58938  0.64352  0.63182  1.0000
  N   N2        1.0  0.41062  0.35649  0.13182  1.0000
  N   N3        1.0  0.85647  0.08936  0.88179  1.0000
  N   N4        1.0  0.14354  0.91063  0.38180  1.0000
  N   N5        1.0  0.91064  0.14351  0.61818  1.0000
  N   N6        1.0  0.08936  0.85649  0.11819  1.0000
  N   N7        1.0  0.64353  0.58936  0.36820  1.0000
  N   N8        1.0  0.35645  0.41065  0.86821  1.0000
