data_image0
_chemical_formula_structural       Cd2H20C22N8Cl4
_chemical_formula_sum              "Cd2 H20 C22 N8 Cl4"
_cell_length_a       8.35518
_cell_length_b       9.43886
_cell_length_c       9.7656
_cell_angle_alpha    81.2592
_cell_angle_beta     84.448
_cell_angle_gamma    65.002

_space_group_name_H-M_alt    "P 1"
_space_group_IT_number       1

loop_
  _space_group_symop_operation_xyz
  'x, y, z'

loop_
  _atom_site_type_symbol
  _atom_site_label
  _atom_site_symmetry_multiplicity
  _atom_site_fract_x
  _atom_site_fract_y
  _atom_site_fract_z
  _atom_site_occupancy
  Cd  Cd1       1.0  0.55677  0.98407  0.80861  1.0000
  Cd  Cd2       1.0  0.44322  0.01593  0.19139  1.0000
  H   H1        1.0  0.37948  0.53255  0.68001  1.0000
  H   H2        1.0  0.62052  0.46745  0.31999  1.0000
  H   H3        1.0  0.97154  0.99545  0.79108  1.0000
  H   H4        1.0  0.02846  0.00455  0.20892  1.0000
  H   H5        1.0  0.80898  0.74926  0.54763  1.0000
  H   H6        1.0  0.19102  0.25074  0.45237  1.0000
  H   H7        1.0  0.15400  0.70692  0.46675  1.0000
  H   H8        1.0  0.84600  0.29308  0.53325  1.0000
  H   H9        1.0  0.25839  0.97921  0.65465  1.0000
  H   H10       1.0  0.74160  0.02079  0.34535  1.0000
  H   H11       1.0  0.33083  0.86550  0.51360  1.0000
  H   H12       1.0  0.66917  0.13450  0.48640  1.0000
  H   H13       1.0  0.62475  0.25391  0.83454  1.0000
  H   H14       1.0  0.37525  0.74609  0.16546  1.0000
  H   H15       1.0  0.86026  0.17555  0.00457  1.0000
  H   H16       1.0  0.13974  0.82445  0.99543  1.0000
  H   H17       1.0  0.93842  0.37464  0.08393  1.0000
  H   H18       1.0  0.06158  0.62537  0.91607  1.0000
  H   H19       1.0  0.78891  0.65902  0.99089  1.0000
  H   H20       1.0  0.21109  0.34098  0.00911  1.0000
  C   C1        1.0  0.97094  0.92277  0.71518  1.0000
  C   C2        1.0  0.02907  0.07722  0.28482  1.0000
  C   C3        1.0  0.89471  0.79189  0.58830  1.0000
  C   C4        1.0  0.10529  0.20811  0.41170  1.0000
  C   C5        1.0  0.06481  0.76986  0.54693  1.0000
  C   C6        1.0  0.93519  0.23014  0.45307  1.0000
  C   C7        1.0  0.28004  0.86604  0.62204  1.0000
  C   C8        1.0  0.71996  0.13396  0.37796  1.0000
  C   C9        1.0  0.41578  0.73691  0.71110  1.0000
  C   C10       1.0  0.58422  0.26309  0.28890  1.0000
  C   C11       1.0  0.58402  0.49836  0.81312  1.0000
  C   C12       1.0  0.41598  0.50164  0.18688  1.0000
  C   C13       1.0  0.66483  0.33961  0.86552  1.0000
  C   C14       1.0  0.33517  0.66039  0.13448  1.0000
  C   C15       1.0  0.79459  0.29852  0.96149  1.0000
  C   C16       1.0  0.20542  0.70148  0.03851  1.0000
  C   C17       1.0  0.83916  0.41192  0.00590  1.0000
  C   C18       1.0  0.16084  0.58808  0.99410  1.0000
  C   C19       1.0  0.75859  0.57038  0.95348  1.0000
  C   C20       1.0  0.24141  0.42962  0.04652  1.0000
  C   C21       1.0  0.63143  0.61249  0.85398  1.0000
  C   C22       1.0  0.36857  0.38751  0.14602  1.0000
  N   N1        1.0  0.83779  0.88798  0.69270  1.0000
  N   N2        1.0  0.16221  0.11202  0.30730  1.0000
  N   N3        1.0  0.11120  0.85371  0.62835  1.0000
  N   N4        1.0  0.88880  0.14628  0.37165  1.0000
  N   N5        1.0  0.52523  0.75943  0.78666  1.0000
  N   N6        1.0  0.47477  0.24057  0.21334  1.0000
  N   N7        1.0  0.44797  0.58149  0.72231  1.0000
  N   N8        1.0  0.55203  0.41851  0.27769  1.0000
  Cl  Cl1       1.0  0.73146  0.94851  0.02412  1.0000
  Cl  Cl2       1.0  0.26854  0.05149  0.97588  1.0000
  Cl  Cl3       1.0  0.41408  0.23562  0.64936  1.0000
  Cl  Cl4       1.0  0.58592  0.76439  0.35064  1.0000
