data_image0
_chemical_formula_structural       Cd2H30C36N10O10
_chemical_formula_sum              "Cd2 H30 C36 N10 O10"
_cell_length_a       10.1434
_cell_length_b       11.1741
_cell_length_c       11.4573
_cell_angle_alpha    93.2107
_cell_angle_beta     95.1385
_cell_angle_gamma    109.791

_space_group_name_H-M_alt    "P 1"
_space_group_IT_number       1

loop_
  _space_group_symop_operation_xyz
  'x, y, z'

loop_
  _atom_site_type_symbol
  _atom_site_label
  _atom_site_symmetry_multiplicity
  _atom_site_fract_x
  _atom_site_fract_y
  _atom_site_fract_z
  _atom_site_occupancy
  Cd  Cd1       1.0  0.61048  0.77471  0.91061  1.0000
  Cd  Cd2       1.0  0.38952  0.22529  0.08939  1.0000
  H   H1        1.0  0.05173  0.19527  0.10921  1.0000
  H   H2        1.0  0.94827  0.80473  0.89079  1.0000
  H   H3        1.0  0.39072  0.52572  0.87562  1.0000
  H   H4        1.0  0.60928  0.47428  0.12438  1.0000
  H   H5        1.0  0.46503  0.54419  0.75748  1.0000
  H   H6        1.0  0.53497  0.45581  0.24251  1.0000
  H   H7        1.0  0.66569  0.87898  0.50877  1.0000
  H   H8        1.0  0.33431  0.12102  0.49123  1.0000
  H   H9        1.0  0.38787  0.03096  0.67834  1.0000
  H   H10       1.0  0.61213  0.96904  0.32166  1.0000
  H   H11       1.0  0.97025  0.60826  0.82130  1.0000
  H   H12       1.0  0.02975  0.39174  0.17869  1.0000
  H   H13       1.0  0.83463  0.47866  0.15205  1.0000
  H   H14       1.0  0.16537  0.52134  0.84794  1.0000
  H   H15       1.0  0.69488  0.72836  0.18199  1.0000
  H   H16       1.0  0.30512  0.27164  0.81801  1.0000
  H   H17       1.0  0.83500  0.73410  0.37426  1.0000
  H   H18       1.0  0.16500  0.26590  0.62574  1.0000
  H   H19       1.0  0.04770  0.92017  0.44608  1.0000
  H   H20       1.0  0.95229  0.07983  0.55392  1.0000
  H   H21       1.0  0.12616  0.11062  0.33151  1.0000
  H   H22       1.0  0.87384  0.88938  0.66849  1.0000
  H   H23       1.0  0.94424  0.19341  0.89678  1.0000
  H   H24       1.0  0.05576  0.80659  0.10322  1.0000
  H   H25       1.0  0.81179  0.04914  0.83320  1.0000
  H   H26       1.0  0.18821  0.95086  0.16680  1.0000
  H   H27       1.0  0.63841  0.11205  0.07239  1.0000
  H   H28       1.0  0.36159  0.88795  0.92761  1.0000
  H   H29       1.0  0.56337  0.34370  0.81715  1.0000
  H   H30       1.0  0.43663  0.65630  0.18285  1.0000
  C   C1        1.0  0.56162  0.89675  0.71619  1.0000
  C   C2        1.0  0.43838  0.10325  0.28381  1.0000
  C   C3        1.0  0.59352  0.93241  0.50404  1.0000
  C   C4        1.0  0.40649  0.06759  0.49596  1.0000
  C   C5        1.0  0.53008  0.94996  0.60442  1.0000
  C   C6        1.0  0.46992  0.05003  0.39558  1.0000
  C   C7        1.0  0.43629  0.01790  0.59967  1.0000
  C   C8        1.0  0.56371  0.98210  0.40033  1.0000
  C   C9        1.0  0.77628  0.60669  0.96929  1.0000
  C   C10       1.0  0.22372  0.39331  0.03071  1.0000
  C   C11       1.0  0.98459  0.56171  0.90009  1.0000
  C   C12       1.0  0.01540  0.43829  0.09991  1.0000
  C   C13       1.0  0.89068  0.55024  0.98522  1.0000
  C   C14       1.0  0.10932  0.44976  0.01478  1.0000
  C   C15       1.0  0.90686  0.48778  0.08546  1.0000
  C   C16       1.0  0.09314  0.51222  0.91454  1.0000
  C   C17       1.0  0.82966  0.91821  0.15070  1.0000
  C   C18       1.0  0.17034  0.08179  0.84930  1.0000
  C   C19       1.0  0.78542  0.81203  0.21592  1.0000
  C   C20       1.0  0.21457  0.18797  0.78408  1.0000
  C   C21       1.0  0.86533  0.81597  0.32226  1.0000
  C   C22       1.0  0.13467  0.18403  0.67774  1.0000
  C   C23       1.0  0.98627  0.92255  0.36378  1.0000
  C   C24       1.0  0.01373  0.07745  0.63622  1.0000
  C   C25       1.0  0.02999  0.03020  0.30175  1.0000
  C   C26       1.0  0.97001  0.96980  0.69826  1.0000
  C   C27       1.0  0.94930  0.02605  0.19497  1.0000
  C   C28       1.0  0.05070  0.97395  0.80503  1.0000
  C   C29       1.0  0.86194  0.05522  0.01880  1.0000
  C   C30       1.0  0.13806  0.94478  0.98120  1.0000
  C   C31       1.0  0.84482  0.11939  0.91050  1.0000
  C   C32       1.0  0.15518  0.88061  0.08950  1.0000
  C   C33       1.0  0.64568  0.16716  0.99673  1.0000
  C   C34       1.0  0.35432  0.83284  0.00327  1.0000
  C   C35       1.0  0.60835  0.28345  0.86569  1.0000
  C   C36       1.0  0.39165  0.71655  0.13431  1.0000
  N   N1        1.0  0.77806  0.93944  0.04012  1.0000
  N   N2        1.0  0.22194  0.06057  0.95988  1.0000
  N   N3        1.0  0.96510  0.11091  0.10958  1.0000
  N   N4        1.0  0.03490  0.88909  0.89042  1.0000
  N   N5        1.0  0.56148  0.23273  0.96627  1.0000
  N   N6        1.0  0.43852  0.76727  0.03373  1.0000
  N   N7        1.0  0.71623  0.25338  0.83261  1.0000
  N   N8        1.0  0.28377  0.74663  0.16739  1.0000
  N   N9        1.0  0.73833  0.18002  0.91785  1.0000
  N   N10       1.0  0.26167  0.81998  0.08215  1.0000
  O   O1        1.0  0.50901  0.92066  0.80777  1.0000
  O   O2        1.0  0.49099  0.07934  0.19223  1.0000
  O   O3        1.0  0.64178  0.82910  0.71699  1.0000
  O   O4        1.0  0.35822  0.17090  0.28301  1.0000
  O   O5        1.0  0.79195  0.69198  0.89527  1.0000
  O   O6        1.0  0.20805  0.30802  0.10473  1.0000
  O   O7        1.0  0.67075  0.57376  0.02643  1.0000
  O   O8        1.0  0.32925  0.42625  0.97357  1.0000
  O   O9        1.0  0.42809  0.58717  0.81546  1.0000
  O   O10       1.0  0.57191  0.41283  0.18454  1.0000
