data_image0
_chemical_formula_structural       Cu4H56C40I4N16
_chemical_formula_sum              "Cu4 H56 C40 I4 N16"
_cell_length_a       8.14541
_cell_length_b       8.55277
_cell_length_c       19.4227
_cell_angle_alpha    90
_cell_angle_beta     90
_cell_angle_gamma    114.052

_space_group_name_H-M_alt    "P 1"
_space_group_IT_number       1

loop_
  _space_group_symop_operation_xyz
  'x, y, z'

loop_
  _atom_site_type_symbol
  _atom_site_label
  _atom_site_symmetry_multiplicity
  _atom_site_fract_x
  _atom_site_fract_y
  _atom_site_fract_z
  _atom_site_occupancy
  Cu  Cu1       1.0  0.45721  0.92070  0.93752  1.0000
  Cu  Cu2       1.0  0.04279  0.57930  0.43752  1.0000
  Cu  Cu3       1.0  0.54279  0.07930  0.06248  1.0000
  Cu  Cu4       1.0  0.95721  0.42070  0.56248  1.0000
  H   H1        1.0  0.58746  0.99464  0.81266  1.0000
  H   H2        1.0  0.91254  0.50536  0.31266  1.0000
  H   H3        1.0  0.41254  0.00536  0.18734  1.0000
  H   H4        1.0  0.08746  0.49464  0.68734  1.0000
  H   H5        1.0  0.63719  0.20775  0.78782  1.0000
  H   H6        1.0  0.86281  0.29224  0.28782  1.0000
  H   H7        1.0  0.36281  0.79225  0.21218  1.0000
  H   H8        1.0  0.13719  0.70775  0.71218  1.0000
  H   H9        1.0  0.25636  0.13370  0.71859  1.0000
  H   H10       1.0  0.24364  0.36631  0.21859  1.0000
  H   H11       1.0  0.74364  0.86631  0.28141  1.0000
  H   H12       1.0  0.75636  0.63369  0.78141  1.0000
  H   H13       1.0  0.08991  0.96454  0.92808  1.0000
  H   H14       1.0  0.41009  0.53547  0.42809  1.0000
  H   H15       1.0  0.91009  0.03545  0.07191  1.0000
  H   H16       1.0  0.58991  0.46454  0.57192  1.0000
  H   H17       1.0  0.31480  0.36384  0.55004  1.0000
  H   H18       1.0  0.18520  0.13615  0.05005  1.0000
  H   H19       1.0  0.68520  0.63617  0.44995  1.0000
  H   H20       1.0  0.81480  0.86384  0.94995  1.0000
  H   H21       1.0  0.32416  0.04392  0.56125  1.0000
  H   H22       1.0  0.17583  0.45607  0.06124  1.0000
  H   H23       1.0  0.67583  0.95609  0.43875  1.0000
  H   H24       1.0  0.82417  0.54392  0.93875  1.0000
  H   H25       1.0  0.97461  0.83134  0.59284  1.0000
  H   H26       1.0  0.52538  0.66866  0.09284  1.0000
  H   H27       1.0  0.02540  0.16866  0.40716  1.0000
  H   H28       1.0  0.47462  0.33134  0.90716  1.0000
  H   H29       1.0  0.69599  0.08215  0.57437  1.0000
  H   H30       1.0  0.80401  0.41785  0.07437  1.0000
  H   H31       1.0  0.30401  0.91785  0.42563  1.0000
  H   H32       1.0  0.19600  0.58216  0.92563  1.0000
  H   H33       1.0  0.68163  0.87508  0.59590  1.0000
  H   H34       1.0  0.81836  0.62492  0.09590  1.0000
  H   H35       1.0  0.31838  0.12492  0.40410  1.0000
  H   H36       1.0  0.18163  0.37508  0.90410  1.0000
  H   H37       1.0  0.82990  0.18244  0.69382  1.0000
  H   H38       1.0  0.67010  0.31755  0.19381  1.0000
  H   H39       1.0  0.17010  0.81755  0.30619  1.0000
  H   H40       1.0  0.32990  0.68244  0.80618  1.0000
  H   H41       1.0  0.77862  0.96562  0.71510  1.0000
  H   H42       1.0  0.72137  0.53437  0.21510  1.0000
  H   H43       1.0  0.22138  0.03437  0.28490  1.0000
  H   H44       1.0  0.27863  0.46562  0.78490  1.0000
  H   H45       1.0  0.50407  0.10813  0.67058  1.0000
  H   H46       1.0  0.99593  0.39187  0.17058  1.0000
  H   H47       1.0  0.49593  0.89188  0.32942  1.0000
  H   H48       1.0  0.00407  0.60813  0.82942  1.0000
  H   H49       1.0  0.44956  0.89326  0.69435  1.0000
  H   H50       1.0  0.05044  0.60674  0.19435  1.0000
  H   H51       1.0  0.55044  0.10674  0.30565  1.0000
  H   H52       1.0  0.94956  0.39326  0.80565  1.0000
  H   H53       1.0  0.97823  0.07691  0.81107  1.0000
  H   H54       1.0  0.52177  0.42311  0.31107  1.0000
  H   H55       1.0  0.02177  0.92310  0.18893  1.0000
  H   H56       1.0  0.47823  0.57690  0.68893  1.0000
  C   C1        1.0  0.54366  0.07363  0.77888  1.0000
  C   C2        1.0  0.95634  0.42637  0.27888  1.0000
  C   C3        1.0  0.45634  0.92638  0.22112  1.0000
  C   C4        1.0  0.04366  0.57362  0.72112  1.0000
  C   C5        1.0  0.23993  0.08957  0.77162  1.0000
  C   C6        1.0  0.26008  0.41044  0.27161  1.0000
  C   C7        1.0  0.76008  0.91044  0.22839  1.0000
  C   C8        1.0  0.73993  0.58956  0.72839  1.0000
  C   C9        1.0  0.15610  0.00232  0.87865  1.0000
  C   C10       1.0  0.34390  0.49768  0.37864  1.0000
  C   C11       1.0  0.84389  0.99767  0.12136  1.0000
  C   C12       1.0  0.65610  0.50232  0.62136  1.0000
  C   C13       1.0  0.20914  0.24131  0.56366  1.0000
  C   C14       1.0  0.29086  0.25868  0.06366  1.0000
  C   C15       1.0  0.79087  0.75869  0.43634  1.0000
  C   C16       1.0  0.70914  0.74132  0.93634  1.0000
  C   C17       1.0  0.21244  0.07934  0.56986  1.0000
  C   C18       1.0  0.28756  0.42065  0.06986  1.0000
  C   C19       1.0  0.78755  0.92066  0.43014  1.0000
  C   C20       1.0  0.71245  0.57935  0.93014  1.0000
  C   C21       1.0  0.03670  0.96909  0.58571  1.0000
  C   C22       1.0  0.46329  0.53090  0.08571  1.0000
  C   C23       1.0  0.96329  0.03091  0.41429  1.0000
  C   C24       1.0  0.53671  0.46910  0.91429  1.0000
  C   C25       1.0  0.75206  0.01192  0.60764  1.0000
  C   C26       1.0  0.74794  0.48808  0.10764  1.0000
  C   C27       1.0  0.24794  0.98808  0.39236  1.0000
  C   C28       1.0  0.25206  0.51192  0.89236  1.0000
  C   C29       1.0  0.73564  0.04928  0.68353  1.0000
  C   C30       1.0  0.76435  0.45072  0.18354  1.0000
  C   C31       1.0  0.26435  0.95072  0.31647  1.0000
  C   C32       1.0  0.23565  0.54928  0.81646  1.0000
  C   C33       1.0  0.54600  0.02620  0.70353  1.0000
  C   C34       1.0  0.95399  0.47379  0.20354  1.0000
  C   C35       1.0  0.45400  0.97380  0.29647  1.0000
  C   C36       1.0  0.04601  0.52621  0.79646  1.0000
  C   C37       1.0  0.10155  0.05948  0.81862  1.0000
  C   C38       1.0  0.39846  0.44054  0.31862  1.0000
  C   C39       1.0  0.89845  0.94053  0.18138  1.0000
  C   C40       1.0  0.60155  0.55946  0.68138  1.0000
  I   I1        1.0  0.78010  0.18292  0.95707  1.0000
  I   I2        1.0  0.71990  0.31709  0.45707  1.0000
  I   I3        1.0  0.21991  0.81708  0.04293  1.0000
  I   I4        1.0  0.28009  0.68291  0.54293  1.0000
  N   N1        1.0  0.04272  0.23287  0.57531  1.0000
  N   N2        1.0  0.45728  0.26713  0.07531  1.0000
  N   N3        1.0  0.95728  0.76713  0.42469  1.0000
  N   N4        1.0  0.54272  0.73287  0.92469  1.0000
  N   N5        1.0  0.93911  0.06506  0.58836  1.0000
  N   N6        1.0  0.56089  0.43494  0.08836  1.0000
  N   N7        1.0  0.06089  0.93494  0.41164  1.0000
  N   N8        1.0  0.43911  0.56506  0.91164  1.0000
  N   N9        1.0  0.31734  0.99649  0.86960  1.0000
  N   N10       1.0  0.18266  0.50351  0.36959  1.0000
  N   N11       1.0  0.68266  0.00351  0.13041  1.0000
  N   N12       1.0  0.81734  0.49649  0.63040  1.0000
  N   N13       1.0  0.36648  0.04995  0.80366  1.0000
  N   N14       1.0  0.13353  0.45005  0.30366  1.0000
  N   N15       1.0  0.63352  0.95005  0.19634  1.0000
  N   N16       1.0  0.86648  0.54995  0.69634  1.0000
