data_image0
_chemical_formula_structural       Cu4H28C20I4N8
_chemical_formula_sum              "Cu4 H28 C20 I4 N8"
_cell_length_a       4.31164
_cell_length_b       8.74282
_cell_length_c       19.168
_cell_angle_alpha    89.9996
_cell_angle_beta     90.0002
_cell_angle_gamma    93.3249

_space_group_name_H-M_alt    "P 1"
_space_group_IT_number       1

loop_
  _space_group_symop_operation_xyz
  'x, y, z'

loop_
  _atom_site_type_symbol
  _atom_site_label
  _atom_site_symmetry_multiplicity
  _atom_site_fract_x
  _atom_site_fract_y
  _atom_site_fract_z
  _atom_site_occupancy
  Cu  Cu1       1.0  0.69276  0.53580  0.54990  1.0000
  Cu  Cu2       1.0  0.30724  0.96419  0.04990  1.0000
  Cu  Cu3       1.0  0.30724  0.46419  0.45011  1.0000
  Cu  Cu4       1.0  0.69275  0.03581  0.95011  1.0000
  H   H1        1.0  0.78760  0.91161  0.51601  1.0000
  H   H2        1.0  0.21240  0.58839  0.01601  1.0000
  H   H3        1.0  0.21241  0.08839  0.48399  1.0000
  H   H4        1.0  0.78759  0.41161  0.98399  1.0000
  H   H5        1.0  0.67269  0.07544  0.56244  1.0000
  H   H6        1.0  0.32730  0.42456  0.06244  1.0000
  H   H7        1.0  0.32731  0.92457  0.43756  1.0000
  H   H8        1.0  0.67269  0.57544  0.93755  1.0000
  H   H9        1.0  0.18526  0.93058  0.59965  1.0000
  H   H10       1.0  0.81474  0.56942  0.09965  1.0000
  H   H11       1.0  0.81474  0.06942  0.40035  1.0000
  H   H12       1.0  0.18525  0.43058  0.90034  1.0000
  H   H13       1.0  0.28087  0.77048  0.54837  1.0000
  H   H14       1.0  0.71913  0.72952  0.04837  1.0000
  H   H15       1.0  0.71915  0.22952  0.45163  1.0000
  H   H16       1.0  0.28085  0.27048  0.95163  1.0000
  H   H17       1.0  0.00990  0.57401  0.69848  1.0000
  H   H18       1.0  0.99012  0.92598  0.19848  1.0000
  H   H19       1.0  0.99011  0.42600  0.30153  1.0000
  H   H20       1.0  0.00988  0.07401  0.80153  1.0000
  H   H21       1.0  0.84852  0.79565  0.79288  1.0000
  H   H22       1.0  0.15150  0.70433  0.29288  1.0000
  H   H23       1.0  0.15148  0.20436  0.20712  1.0000
  H   H24       1.0  0.84851  0.29565  0.70712  1.0000
  H   H25       1.0  0.45738  0.97138  0.71647  1.0000
  H   H26       1.0  0.54263  0.52862  0.21646  1.0000
  H   H27       1.0  0.54263  0.02863  0.28353  1.0000
  H   H28       1.0  0.45736  0.47137  0.78353  1.0000
  C   C1        1.0  0.58643  0.97447  0.53222  1.0000
  C   C2        1.0  0.41357  0.52554  0.03222  1.0000
  C   C3        1.0  0.41358  0.02554  0.46778  1.0000
  C   C4        1.0  0.58642  0.47447  0.96777  1.0000
  C   C5        1.0  0.37888  0.86950  0.57814  1.0000
  C   C6        1.0  0.62112  0.63050  0.07814  1.0000
  C   C7        1.0  0.62113  0.13050  0.42186  1.0000
  C   C8        1.0  0.37886  0.36950  0.92186  1.0000
  C   C9        1.0  0.85805  0.66755  0.69179  1.0000
  C   C10       1.0  0.14197  0.83245  0.19178  1.0000
  C   C11       1.0  0.14196  0.33245  0.30822  1.0000
  C   C12       1.0  0.85803  0.16755  0.80822  1.0000
  C   C13       1.0  0.77555  0.78096  0.73904  1.0000
  C   C14       1.0  0.22446  0.71904  0.23905  1.0000
  C   C15       1.0  0.22445  0.21905  0.26096  1.0000
  C   C16       1.0  0.77553  0.28095  0.76096  1.0000
  C   C17       1.0  0.57717  0.87058  0.70187  1.0000
  C   C18       1.0  0.42285  0.62941  0.20187  1.0000
  C   C19       1.0  0.42283  0.12943  0.29813  1.0000
  C   C20       1.0  0.57716  0.37057  0.79813  1.0000
  I   I1        1.0  0.81812  0.64049  0.42398  1.0000
  I   I2        1.0  0.18188  0.85951  0.92398  1.0000
  I   I3        1.0  0.18189  0.35951  0.57603  1.0000
  I   I4        1.0  0.81811  0.14049  0.07602  1.0000
  N   N1        1.0  0.71837  0.68533  0.62974  1.0000
  N   N2        1.0  0.28164  0.81467  0.12974  1.0000
  N   N3        1.0  0.28164  0.31468  0.37026  1.0000
  N   N4        1.0  0.71835  0.18533  0.87026  1.0000
  N   N5        1.0  0.54696  0.80996  0.63698  1.0000
  N   N6        1.0  0.45304  0.69003  0.13698  1.0000
  N   N7        1.0  0.45305  0.19004  0.36302  1.0000
  N   N8        1.0  0.54695  0.30996  0.86302  1.0000
