data_image0
_chemical_formula_structural       Cu2H32C40N12O12
_chemical_formula_sum              "Cu2 H32 C40 N12 O12"
_cell_length_a       9.16857
_cell_length_b       9.27897
_cell_length_c       14.0354
_cell_angle_alpha    83.2877
_cell_angle_beta     78.6211
_cell_angle_gamma    91.8368

_space_group_name_H-M_alt    "P 1"
_space_group_IT_number       1

loop_
  _space_group_symop_operation_xyz
  'x, y, z'

loop_
  _atom_site_type_symbol
  _atom_site_label
  _atom_site_symmetry_multiplicity
  _atom_site_fract_x
  _atom_site_fract_y
  _atom_site_fract_z
  _atom_site_occupancy
  Cu  Cu1       1.0  0.09242  0.22106  0.28581  1.0000
  Cu  Cu2       1.0  0.90759  0.77893  0.71419  1.0000
  H   H1        1.0  0.07313  0.23234  0.50930  1.0000
  H   H2        1.0  0.92688  0.76766  0.49070  1.0000
  H   H3        1.0  0.90019  0.33961  0.63811  1.0000
  H   H4        1.0  0.09983  0.66039  0.36189  1.0000
  H   H5        1.0  0.70025  0.49200  0.58954  1.0000
  H   H6        1.0  0.29976  0.50800  0.41047  1.0000
  H   H7        1.0  0.68114  0.53292  0.41286  1.0000
  H   H8        1.0  0.31886  0.46707  0.58715  1.0000
  H   H9        1.0  0.66353  0.53453  0.26570  1.0000
  H   H10       1.0  0.33647  0.46547  0.73429  1.0000
  H   H11       1.0  0.65299  0.51356  0.09177  1.0000
  H   H12       1.0  0.34702  0.48644  0.90823  1.0000
  H   H13       1.0  0.84247  0.36793  0.99466  1.0000
  H   H14       1.0  0.15753  0.63208  0.00535  1.0000
  H   H15       1.0  0.03256  0.24737  0.07838  1.0000
  H   H16       1.0  0.96744  0.75263  0.92161  1.0000
  H   H17       1.0  0.39176  0.32205  0.31177  1.0000
  H   H18       1.0  0.60825  0.67795  0.68824  1.0000
  H   H19       1.0  0.58037  0.22845  0.40408  1.0000
  H   H20       1.0  0.41964  0.77157  0.59592  1.0000
  H   H21       1.0  0.28103  0.85045  0.51597  1.0000
  H   H22       1.0  0.71897  0.14956  0.48404  1.0000
  H   H23       1.0  0.10491  0.96142  0.41940  1.0000
  H   H24       1.0  0.89510  0.03859  0.58060  1.0000
  H   H25       1.0  0.11964  0.94091  0.20421  1.0000
  H   H26       1.0  0.88037  0.05908  0.79578  1.0000
  H   H27       1.0  0.30325  0.82973  0.08607  1.0000
  H   H28       1.0  0.69674  0.17025  0.91392  1.0000
  H   H29       1.0  0.53932  0.25386  0.00598  1.0000
  H   H30       1.0  0.46067  0.74612  0.99401  1.0000
  H   H31       1.0  0.34595  0.34672  0.12715  1.0000
  H   H32       1.0  0.65405  0.65326  0.87284  1.0000
  C   C1        1.0  0.98238  0.29542  0.49018  1.0000
  C   C2        1.0  0.01763  0.70458  0.50983  1.0000
  C   C3        1.0  0.88567  0.35613  0.56238  1.0000
  C   C4        1.0  0.11433  0.64386  0.43762  1.0000
  C   C5        1.0  0.77476  0.44098  0.53459  1.0000
  C   C6        1.0  0.22524  0.55903  0.46542  1.0000
  C   C7        1.0  0.76295  0.46195  0.43650  1.0000
  C   C8        1.0  0.23704  0.53805  0.56351  1.0000
  C   C9        1.0  0.85991  0.39316  0.36839  1.0000
  C   C10       1.0  0.14009  0.60684  0.63161  1.0000
  C   C11       1.0  0.85043  0.39768  0.26465  1.0000
  C   C12       1.0  0.14957  0.60232  0.73535  1.0000
  C   C13       1.0  0.74271  0.47024  0.22267  1.0000
  C   C14       1.0  0.25728  0.52976  0.77733  1.0000
  C   C15       1.0  0.73820  0.45991  0.12502  1.0000
  C   C16       1.0  0.26180  0.54010  0.87498  1.0000
  C   C17       1.0  0.84287  0.37921  0.07103  1.0000
  C   C18       1.0  0.15713  0.62079  0.92897  1.0000
  C   C19       1.0  0.94827  0.31145  0.11715  1.0000
  C   C20       1.0  0.05174  0.68856  0.88285  1.0000
  C   C21       1.0  0.37229  0.21887  0.35947  1.0000
  C   C22       1.0  0.62771  0.78114  0.64053  1.0000
  C   C23       1.0  0.47627  0.16492  0.41160  1.0000
  C   C24       1.0  0.52373  0.83509  0.58841  1.0000
  C   C25       1.0  0.44691  0.03042  0.47097  1.0000
  C   C26       1.0  0.55309  0.96959  0.52904  1.0000
  C   C27       1.0  0.31159  0.95557  0.47262  1.0000
  C   C28       1.0  0.68841  0.04444  0.52739  1.0000
  C   C29       1.0  0.21154  0.01622  0.41964  1.0000
  C   C30       1.0  0.78847  0.98379  0.58036  1.0000
  C   C31       1.0  0.21409  0.00604  0.15800  1.0000
  C   C32       1.0  0.78591  0.99395  0.84200  1.0000
  C   C33       1.0  0.31919  0.94504  0.09134  1.0000
  C   C34       1.0  0.68081  0.05495  0.90865  1.0000
  C   C35       1.0  0.44190  0.03104  0.03495  1.0000
  C   C36       1.0  0.55810  0.96894  0.96503  1.0000
  C   C37       1.0  0.44968  0.17866  0.04799  1.0000
  C   C38       1.0  0.55032  0.82132  0.95199  1.0000
  C   C39       1.0  0.34043  0.23254  0.11571  1.0000
  C   C40       1.0  0.65957  0.76743  0.88428  1.0000
  N   N1        1.0  0.96794  0.31131  0.39626  1.0000
  N   N2        1.0  0.03206  0.68868  0.60375  1.0000
  N   N3        1.0  0.95170  0.32020  0.21123  1.0000
  N   N4        1.0  0.04829  0.67980  0.78877  1.0000
  N   N5        1.0  0.24063  0.14633  0.36452  1.0000
  N   N6        1.0  0.75938  0.85367  0.63547  1.0000
  N   N7        1.0  0.22450  0.14765  0.17037  1.0000
  N   N8        1.0  0.77550  0.85233  0.82963  1.0000
  N   N9        1.0  0.23569  0.57035  0.18354  1.0000
  N   N10       1.0  0.76430  0.42964  0.81646  1.0000
  N   N11       1.0  0.81837  0.94073  0.32694  1.0000
  N   N12       1.0  0.18162  0.05929  0.67306  1.0000
  O   O1        1.0  0.24814  0.47803  0.25588  1.0000
  O   O2        1.0  0.75187  0.52195  0.74411  1.0000
  O   O3        1.0  0.12492  0.64832  0.18897  1.0000
  O   O4        1.0  0.87507  0.35168  0.81103  1.0000
  O   O5        1.0  0.33602  0.58121  0.10555  1.0000
  O   O6        1.0  0.66397  0.41879  0.89444  1.0000
  O   O7        1.0  0.94981  0.98644  0.33557  1.0000
  O   O8        1.0  0.05019  0.01355  0.66444  1.0000
  O   O9        1.0  0.77254  0.81289  0.36397  1.0000
  O   O10       1.0  0.22741  0.18715  0.63604  1.0000
  O   O11       1.0  0.74060  0.02444  0.28381  1.0000
  O   O12       1.0  0.25942  0.97560  0.71617  1.0000
