data_image0
_chemical_formula_structural       Zn2H40C26S4N8O18
_chemical_formula_sum              "Zn2 H40 C26 S4 N8 O18"
_cell_length_a       7.71548
_cell_length_b       8.83451
_cell_length_c       14.3002
_cell_angle_alpha    90.0004
_cell_angle_beta     90.0001
_cell_angle_gamma    97.4585

_space_group_name_H-M_alt    "P 1"
_space_group_IT_number       1

loop_
  _space_group_symop_operation_xyz
  'x, y, z'

loop_
  _atom_site_type_symbol
  _atom_site_label
  _atom_site_symmetry_multiplicity
  _atom_site_fract_x
  _atom_site_fract_y
  _atom_site_fract_z
  _atom_site_occupancy
  Zn  Zn1       1.0  0.29060  0.38475  0.75000  1.0000
  Zn  Zn2       1.0  0.70940  0.61525  0.25000  1.0000
  H   H1        1.0  0.37366  0.18814  0.09705  1.0000
  H   H2        1.0  0.62634  0.81186  0.59705  1.0000
  H   H3        1.0  0.62634  0.81186  0.90295  1.0000
  H   H4        1.0  0.37366  0.18814  0.40295  1.0000
  H   H5        1.0  0.45698  0.38634  0.09108  1.0000
  H   H6        1.0  0.54301  0.61367  0.59108  1.0000
  H   H7        1.0  0.54301  0.61366  0.90892  1.0000
  H   H8        1.0  0.45699  0.38634  0.40892  1.0000
  H   H9        1.0  0.03046  0.13354  0.12540  1.0000
  H   H10       1.0  0.96954  0.86645  0.62540  1.0000
  H   H11       1.0  0.96954  0.86645  0.87460  1.0000
  H   H12       1.0  0.03046  0.13354  0.37460  1.0000
  H   H13       1.0  0.10585  0.12340  0.00907  1.0000
  H   H14       1.0  0.89415  0.87660  0.50907  1.0000
  H   H15       1.0  0.89415  0.87660  0.99093  1.0000
  H   H16       1.0  0.10585  0.12340  0.49093  1.0000
  H   H17       1.0  0.01417  0.43948  0.16290  1.0000
  H   H18       1.0  0.98583  0.56051  0.66290  1.0000
  H   H19       1.0  0.98584  0.56052  0.83710  1.0000
  H   H20       1.0  0.01417  0.43949  0.33710  1.0000
  H   H21       1.0  0.23032  0.53556  0.15504  1.0000
  H   H22       1.0  0.76968  0.46444  0.65504  1.0000
  H   H23       1.0  0.76968  0.46444  0.84496  1.0000
  H   H24       1.0  0.23032  0.53556  0.34496  1.0000
  H   H25       1.0  0.13844  0.22302  0.25000  1.0000
  H   H26       1.0  0.86156  0.77698  0.75000  1.0000
  H   H27       1.0  0.34545  0.33679  0.25000  1.0000
  H   H28       1.0  0.65455  0.66321  0.75000  1.0000
  H   H29       1.0  0.16316  0.41228  0.01937  1.0000
  H   H30       1.0  0.83683  0.58772  0.51937  1.0000
  H   H31       1.0  0.83683  0.58772  0.98063  1.0000
  H   H32       1.0  0.16316  0.41228  0.48063  1.0000
  H   H33       1.0  0.53493  0.24221  0.69276  1.0000
  H   H34       1.0  0.46507  0.75779  0.19276  1.0000
  H   H35       1.0  0.46507  0.75779  0.30724  1.0000
  H   H36       1.0  0.53493  0.24221  0.80724  1.0000
  H   H37       1.0  0.65386  0.14742  0.97689  1.0000
  H   H38       1.0  0.34614  0.85258  0.47689  1.0000
  H   H39       1.0  0.34613  0.85258  0.02311  1.0000
  H   H40       1.0  0.65387  0.14742  0.52311  1.0000
  C   C1        1.0  0.36183  0.29590  0.06107  1.0000
  C   C2        1.0  0.63817  0.70410  0.56106  1.0000
  C   C3        1.0  0.63817  0.70410  0.93893  1.0000
  C   C4        1.0  0.36183  0.29590  0.43894  1.0000
  C   C5        1.0  0.39427  0.28593  0.95541  1.0000
  C   C6        1.0  0.60574  0.71407  0.45541  1.0000
  C   C7        1.0  0.60574  0.71406  0.04459  1.0000
  C   C8        1.0  0.39426  0.28593  0.54459  1.0000
  C   C9        1.0  0.05074  0.19758  0.05957  1.0000
  C   C10       1.0  0.94926  0.80242  0.55957  1.0000
  C   C11       1.0  0.94926  0.80242  0.94043  1.0000
  C   C12       1.0  0.05074  0.19758  0.44042  1.0000
  C   C13       1.0  0.87895  0.23773  0.02232  1.0000
  C   C14       1.0  0.12105  0.76227  0.52232  1.0000
  C   C15       1.0  0.12105  0.76227  0.97768  1.0000
  C   C16       1.0  0.87895  0.23773  0.47768  1.0000
  C   C17       1.0  0.15271  0.42326  0.16289  1.0000
  C   C18       1.0  0.84729  0.57675  0.66289  1.0000
  C   C19       1.0  0.84729  0.57675  0.83711  1.0000
  C   C20       1.0  0.15271  0.42325  0.33710  1.0000
  C   C21       1.0  0.20364  0.34127  0.25000  1.0000
  C   C22       1.0  0.79636  0.65873  0.75000  1.0000
  C   C23       1.0  0.29734  0.73715  0.75000  1.0000
  C   C24       1.0  0.70266  0.26286  0.25000  1.0000
  C   C25       1.0  0.93946  0.17035  0.75000  1.0000
  C   C26       1.0  0.06054  0.82965  0.25000  1.0000
  S   S1        1.0  0.77009  0.04282  0.75000  1.0000
  S   S2        1.0  0.22992  0.95718  0.25000  1.0000
  S   S3        1.0  0.27099  0.91434  0.75000  1.0000
  S   S4        1.0  0.72901  0.08567  0.25000  1.0000
  N   N1        1.0  0.18052  0.33693  0.07418  1.0000
  N   N2        1.0  0.81948  0.66307  0.57418  1.0000
  N   N3        1.0  0.81948  0.66307  0.92582  1.0000
  N   N4        1.0  0.18052  0.33693  0.42582  1.0000
  N   N5        1.0  0.06184  0.26671  0.75000  1.0000
  N   N6        1.0  0.93817  0.73328  0.25000  1.0000
  N   N7        1.0  0.31903  0.60596  0.75000  1.0000
  N   N8        1.0  0.68098  0.39404  0.25000  1.0000
  O   O1        1.0  0.52393  0.30496  0.75000  1.0000
  O   O2        1.0  0.47607  0.69504  0.25000  1.0000
  O   O3        1.0  0.30535  0.36478  0.90521  1.0000
  O   O4        1.0  0.69464  0.63522  0.40521  1.0000
  O   O5        1.0  0.69464  0.63522  0.09479  1.0000
  O   O6        1.0  0.30535  0.36478  0.59479  1.0000
  O   O7        1.0  0.50662  0.20410  0.92612  1.0000
  O   O8        1.0  0.49337  0.79591  0.42612  1.0000
  O   O9        1.0  0.49337  0.79590  0.07389  1.0000
  O   O10       1.0  0.50662  0.20410  0.57389  1.0000
  O   O11       1.0  0.85110  0.37018  0.00989  1.0000
  O   O12       1.0  0.14891  0.62981  0.50989  1.0000
  O   O13       1.0  0.14890  0.62982  0.99011  1.0000
  O   O14       1.0  0.85110  0.37019  0.49011  1.0000
  O   O15       1.0  0.76841  0.11440  0.00449  1.0000
  O   O16       1.0  0.23159  0.88560  0.50449  1.0000
  O   O17       1.0  0.23160  0.88560  0.99551  1.0000
  O   O18       1.0  0.76841  0.11440  0.49551  1.0000
