data_image0
_chemical_formula_structural       CuH32PdC24N12
_chemical_formula_sum              "Cu1 H32 Pd1 C24 N12"
_cell_length_a       8.53853
_cell_length_b       8.91734
_cell_length_c       10.5077
_cell_angle_alpha    112.514
_cell_angle_beta     101.451
_cell_angle_gamma    96.652

_space_group_name_H-M_alt    "P 1"
_space_group_IT_number       1

loop_
  _space_group_symop_operation_xyz
  'x, y, z'

loop_
  _atom_site_type_symbol
  _atom_site_label
  _atom_site_symmetry_multiplicity
  _atom_site_fract_x
  _atom_site_fract_y
  _atom_site_fract_z
  _atom_site_occupancy
  Cu  Cu1       1.0  0.00000  0.50000  0.50000  1.0000
  H   H1        1.0  0.27613  0.50015  0.34628  1.0000
  H   H2        1.0  0.72387  0.49986  0.65372  1.0000
  H   H3        1.0  0.29413  0.79831  0.77454  1.0000
  H   H4        1.0  0.70586  0.20169  0.22546  1.0000
  H   H5        1.0  0.58826  0.89021  0.72263  1.0000
  H   H6        1.0  0.41173  0.10979  0.27737  1.0000
  H   H7        1.0  0.56702  0.57956  0.34420  1.0000
  H   H8        1.0  0.43298  0.42044  0.65580  1.0000
  H   H9        1.0  0.71144  0.71871  0.50458  1.0000
  H   H10       1.0  0.28856  0.28128  0.49542  1.0000
  H   H11       1.0  0.68043  0.83594  0.32121  1.0000
  H   H12       1.0  0.31957  0.16406  0.67879  1.0000
  H   H13       1.0  0.61827  0.96176  0.47087  1.0000
  H   H14       1.0  0.38173  0.03824  0.52913  1.0000
  H   H15       1.0  0.46882  0.82406  0.30960  1.0000
  H   H16       1.0  0.53118  0.17594  0.69040  1.0000
  H   H17       1.0  0.18613  0.60026  0.84081  1.0000
  H   H18       1.0  0.81387  0.39973  0.15919  1.0000
  H   H19       1.0  0.92352  0.14369  0.50268  1.0000
  H   H20       1.0  0.07647  0.85630  0.49732  1.0000
  H   H21       1.0  0.01194  0.09753  0.75235  1.0000
  H   H22       1.0  0.98806  0.90247  0.24765  1.0000
  H   H23       1.0  0.09883  0.35835  0.03193  1.0000
  H   H24       1.0  0.90118  0.64166  0.96808  1.0000
  H   H25       1.0  0.23633  0.53233  0.04385  1.0000
  H   H26       1.0  0.76368  0.46767  0.95615  1.0000
  H   H27       1.0  0.38714  0.33843  0.11868  1.0000
  H   H28       1.0  0.61286  0.66157  0.88132  1.0000
  H   H29       1.0  0.43470  0.34635  0.96364  1.0000
  H   H30       1.0  0.56530  0.65364  0.03636  1.0000
  H   H31       1.0  0.29464  0.17353  0.94970  1.0000
  H   H32       1.0  0.70536  0.82647  0.05030  1.0000
  Pd  Pd1       1.0  0.00000  0.00001  0.00000  1.0000
  C   C1        1.0  0.04277  0.16175  0.20070  1.0000
  C   C2        1.0  0.95723  0.83827  0.79931  1.0000
  C   C3        1.0  0.18116  0.89419  0.05025  1.0000
  C   C4        1.0  0.81884  0.10583  0.94976  1.0000
  C   C5        1.0  0.31909  0.59341  0.45544  1.0000
  C   C6        1.0  0.68091  0.40659  0.54456  1.0000
  C   C7        1.0  0.33386  0.74823  0.67767  1.0000
  C   C8        1.0  0.66615  0.25177  0.32233  1.0000
  C   C9        1.0  0.48059  0.79514  0.65335  1.0000
  C   C10       1.0  0.51941  0.20486  0.34665  1.0000
  C   C11       1.0  0.59164  0.70230  0.43364  1.0000
  C   C12       1.0  0.40836  0.29770  0.56635  1.0000
  C   C13       1.0  0.58816  0.83903  0.38092  1.0000
  C   C14       1.0  0.41184  0.16097  0.61908  1.0000
  C   C15       1.0  0.12741  0.47035  0.77913  1.0000
  C   C16       1.0  0.87259  0.52964  0.22087  1.0000
  C   C17       1.0  0.99157  0.23162  0.60945  1.0000
  C   C18       1.0  0.00843  0.76838  0.39055  1.0000
  C   C19       1.0  0.03508  0.20712  0.73194  1.0000
  C   C20       1.0  0.96492  0.79288  0.26806  1.0000
  C   C21       1.0  0.19539  0.39664  0.98850  1.0000
  C   C22       1.0  0.80462  0.60336  0.01150  1.0000
  C   C23       1.0  0.33605  0.30914  0.00529  1.0000
  C   C24       1.0  0.66395  0.69086  0.99471  1.0000
  N   N1        1.0  0.06323  0.25763  0.31927  1.0000
  N   N2        1.0  0.93677  0.74238  0.68074  1.0000
  N   N3        1.0  0.28511  0.82623  0.07570  1.0000
  N   N4        1.0  0.71489  0.17377  0.92430  1.0000
  N   N5        1.0  0.23481  0.62160  0.55325  1.0000
  N   N6        1.0  0.76518  0.37839  0.44674  1.0000
  N   N7        1.0  0.46872  0.69571  0.51213  1.0000
  N   N8        1.0  0.53129  0.30429  0.48787  1.0000
  N   N9        1.0  0.04964  0.39625  0.64047  1.0000
  N   N10       1.0  0.95036  0.60374  0.35953  1.0000
  N   N11       1.0  0.12087  0.35945  0.83841  1.0000
  N   N12       1.0  0.87913  0.64055  0.16159  1.0000
