data_image0
_chemical_formula_structural       Ag2H44C36N10O6
_chemical_formula_sum              "Ag2 H44 C36 N10 O6"
_cell_length_a       8.95363
_cell_length_b       8.95384
_cell_length_c       12.2043
_cell_angle_alpha    97.1343
_cell_angle_beta     97.1347
_cell_angle_gamma    99.9827

_space_group_name_H-M_alt    "P 1"
_space_group_IT_number       1

loop_
  _space_group_symop_operation_xyz
  'x, y, z'

loop_
  _atom_site_type_symbol
  _atom_site_label
  _atom_site_symmetry_multiplicity
  _atom_site_fract_x
  _atom_site_fract_y
  _atom_site_fract_z
  _atom_site_occupancy
  Ag  Ag1       1.0  0.24975  0.75024  0.75001  1.0000
  Ag  Ag2       1.0  0.75022  0.24978  0.25001  1.0000
  H   H1        1.0  0.41670  0.85412  0.23197  1.0000
  H   H2        1.0  0.14589  0.58329  0.26804  1.0000
  H   H3        1.0  0.58328  0.14589  0.76802  1.0000
  H   H4        1.0  0.85412  0.41668  0.73199  1.0000
  H   H5        1.0  0.25593  0.93776  0.25452  1.0000
  H   H6        1.0  0.06226  0.74400  0.24548  1.0000
  H   H7        1.0  0.74405  0.06225  0.74548  1.0000
  H   H8        1.0  0.93774  0.25594  0.75451  1.0000
  H   H9        1.0  0.43704  0.05719  0.26262  1.0000
  H   H10       1.0  0.94288  0.56294  0.23738  1.0000
  H   H11       1.0  0.56294  0.94284  0.73738  1.0000
  H   H12       1.0  0.05716  0.43701  0.76262  1.0000
  H   H13       1.0  0.32288  0.20867  0.08990  1.0000
  H   H14       1.0  0.79134  0.67711  0.41010  1.0000
  H   H15       1.0  0.67712  0.79135  0.91012  1.0000
  H   H16       1.0  0.20866  0.32286  0.58990  1.0000
  H   H17       1.0  0.24575  0.05458  0.75536  1.0000
  H   H18       1.0  0.94541  0.75422  0.74463  1.0000
  H   H19       1.0  0.75423  0.94544  0.24465  1.0000
  H   H20       1.0  0.05457  0.24574  0.25536  1.0000
  H   H21       1.0  0.34029  0.23128  0.83843  1.0000
  H   H22       1.0  0.76871  0.65968  0.66155  1.0000
  H   H23       1.0  0.65970  0.76875  0.16156  1.0000
  H   H24       1.0  0.23128  0.34028  0.33843  1.0000
  H   H25       1.0  0.14255  0.16791  0.83674  1.0000
  H   H26       1.0  0.83209  0.85741  0.66324  1.0000
  H   H27       1.0  0.85744  0.83212  0.16327  1.0000
  H   H28       1.0  0.16790  0.14254  0.33674  1.0000
  H   H29       1.0  0.36537  0.63856  0.95301  1.0000
  H   H30       1.0  0.36149  0.63467  0.54700  1.0000
  H   H31       1.0  0.63467  0.36149  0.04699  1.0000
  H   H32       1.0  0.63853  0.36534  0.45300  1.0000
  H   H33       1.0  0.37396  0.67593  0.10009  1.0000
  H   H34       1.0  0.32412  0.62605  0.39991  1.0000
  H   H35       1.0  0.62606  0.32411  0.89990  1.0000
  H   H36       1.0  0.67590  0.37394  0.60010  1.0000
  H   H37       1.0  0.23169  0.38589  0.03009  1.0000
  H   H38       1.0  0.61412  0.76835  0.46992  1.0000
  H   H39       1.0  0.76836  0.61412  0.96993  1.0000
  H   H40       1.0  0.38590  0.23167  0.53007  1.0000
  H   H41       1.0  0.02461  0.77765  0.98579  1.0000
  H   H42       1.0  0.22234  0.97540  0.51420  1.0000
  H   H43       1.0  0.97541  0.22238  0.01421  1.0000
  H   H44       1.0  0.77765  0.02459  0.48580  1.0000
  C   C1        1.0  0.36221  0.95189  0.21728  1.0000
  C   C2        1.0  0.04814  0.63775  0.28271  1.0000
  C   C3        1.0  0.63777  0.04812  0.78273  1.0000
  C   C4        1.0  0.95187  0.36221  0.71728  1.0000
  C   C5        1.0  0.33008  0.96575  0.09689  1.0000
  C   C6        1.0  0.03426  0.66988  0.40309  1.0000
  C   C7        1.0  0.66989  0.03426  0.90311  1.0000
  C   C8        1.0  0.96576  0.33009  0.59690  1.0000
  C   C9        1.0  0.31190  0.09360  0.04592  1.0000
  C   C10       1.0  0.90642  0.68809  0.45407  1.0000
  C   C11       1.0  0.68810  0.90642  0.95409  1.0000
  C   C12       1.0  0.09359  0.31189  0.54592  1.0000
  C   C13       1.0  0.28282  0.04272  0.93005  1.0000
  C   C14       1.0  0.95730  0.71715  0.56996  1.0000
  C   C15       1.0  0.71718  0.95731  0.06995  1.0000
  C   C16       1.0  0.04270  0.28281  0.43004  1.0000
  C   C17       1.0  0.25207  0.12850  0.83543  1.0000
  C   C18       1.0  0.87148  0.74790  0.66458  1.0000
  C   C19       1.0  0.74792  0.87152  0.16459  1.0000
  C   C20       1.0  0.12850  0.25206  0.33542  1.0000
  C   C21       1.0  0.30770  0.68558  0.02014  1.0000
  C   C22       1.0  0.31445  0.69232  0.47987  1.0000
  C   C23       1.0  0.69232  0.31447  0.97986  1.0000
  C   C24       1.0  0.68556  0.30767  0.52014  1.0000
  C   C25       1.0  0.14694  0.59272  0.00953  1.0000
  C   C26       1.0  0.40732  0.85305  0.49047  1.0000
  C   C27       1.0  0.85303  0.40733  0.99047  1.0000
  C   C28       1.0  0.59269  0.14693  0.50953  1.0000
  C   C29       1.0  0.12972  0.43625  0.01703  1.0000
  C   C30       1.0  0.56378  0.87028  0.48297  1.0000
  C   C31       1.0  0.87028  0.56377  0.98298  1.0000
  C   C32       1.0  0.43623  0.12972  0.51701  1.0000
  C   C33       1.0  0.01508  0.65592  0.99215  1.0000
  C   C34       1.0  0.34409  0.98491  0.50784  1.0000
  C   C35       1.0  0.98490  0.34412  0.00786  1.0000
  C   C36       1.0  0.65592  0.01508  0.49216  1.0000
  N   N1        1.0  0.47444  0.52554  0.75000  1.0000
  N   N2        1.0  0.52554  0.47445  0.24999  1.0000
  N   N3        1.0  0.28390  0.89131  0.91107  1.0000
  N   N4        1.0  0.10872  0.71607  0.58896  1.0000
  N   N5        1.0  0.71610  0.10872  0.08893  1.0000
  N   N6        1.0  0.89129  0.28390  0.41105  1.0000
  N   N7        1.0  0.31273  0.84613  0.01289  1.0000
  N   N8        1.0  0.15387  0.68725  0.48711  1.0000
  N   N9        1.0  0.68725  0.15388  0.98710  1.0000
  N   N10       1.0  0.84613  0.31273  0.51289  1.0000
  O   O1        1.0  0.50720  0.65231  0.71288  1.0000
  O   O2        1.0  0.34770  0.49278  0.78714  1.0000
  O   O3        1.0  0.49278  0.34770  0.28714  1.0000
  O   O4        1.0  0.65231  0.50721  0.21288  1.0000
  O   O5        1.0  0.56653  0.43343  0.74995  1.0000
  O   O6        1.0  0.43344  0.56654  0.24997  1.0000
