data_image0
_chemical_formula_structural       Cu2H44C36N8Cl4
_chemical_formula_sum              "Cu2 H44 C36 N8 Cl4"
_cell_length_a       8.36777
_cell_length_b       8.46787
_cell_length_c       15.9748
_cell_angle_alpha    83.9067
_cell_angle_beta     74.7922
_cell_angle_gamma    60.4157

_space_group_name_H-M_alt    "P 1"
_space_group_IT_number       1

loop_
  _space_group_symop_operation_xyz
  'x, y, z'

loop_
  _atom_site_type_symbol
  _atom_site_label
  _atom_site_symmetry_multiplicity
  _atom_site_fract_x
  _atom_site_fract_y
  _atom_site_fract_z
  _atom_site_occupancy
  Cu  Cu1       1.0  0.50000  1.00000  0.50000  1.0000
  Cu  Cu2       1.0  0.50000  0.50000  1.00000  1.0000
  H   H1        1.0  0.24001  0.38742  0.47806  1.0000
  H   H2        1.0  0.60497  0.11230  0.02198  1.0000
  H   H3        1.0  0.76000  0.61258  0.52194  1.0000
  H   H4        1.0  0.39502  0.88770  0.97802  1.0000
  H   H5        1.0  0.15424  0.58982  0.53853  1.0000
  H   H6        1.0  0.78209  0.90995  0.96147  1.0000
  H   H7        1.0  0.84577  0.41017  0.46147  1.0000
  H   H8        1.0  0.21790  0.09004  0.03853  1.0000
  H   H9        1.0  0.09937  0.41724  0.58626  1.0000
  H   H10       1.0  0.60246  0.08250  0.91378  1.0000
  H   H11       1.0  0.90063  0.58277  0.41374  1.0000
  H   H12       1.0  0.39754  0.91751  0.08622  1.0000
  H   H13       1.0  0.38424  0.57899  0.64208  1.0000
  H   H14       1.0  0.10478  0.92069  0.85785  1.0000
  H   H15       1.0  0.61576  0.42101  0.35792  1.0000
  H   H16       1.0  0.89523  0.07930  0.14215  1.0000
  H   H17       1.0  0.71569  0.43667  0.69782  1.0000
  H   H18       1.0  0.35011  0.06301  0.80215  1.0000
  H   H19       1.0  0.28430  0.56334  0.30218  1.0000
  H   H20       1.0  0.64989  0.93698  0.19785  1.0000
  H   H21       1.0  0.90088  0.22356  0.64843  1.0000
  H   H22       1.0  0.27273  0.27605  0.85159  1.0000
  H   H23       1.0  0.09911  0.77644  0.35157  1.0000
  H   H24       1.0  0.72727  0.72395  0.14840  1.0000
  H   H25       1.0  0.74146  0.23181  0.74807  1.0000
  H   H26       1.0  0.22142  0.26789  0.75194  1.0000
  H   H27       1.0  0.25853  0.76820  0.25194  1.0000
  H   H28       1.0  0.77858  0.73211  0.24806  1.0000
  H   H29       1.0  0.94313  0.98067  0.57531  1.0000
  H   H30       1.0  0.99949  0.51885  0.92456  1.0000
  H   H31       1.0  0.05687  0.01933  0.42469  1.0000
  H   H32       1.0  0.00051  0.48115  0.07544  1.0000
  H   H33       1.0  0.81853  0.89370  0.53920  1.0000
  H   H34       1.0  0.75184  0.60593  0.96080  1.0000
  H   H35       1.0  0.18147  0.10630  0.46081  1.0000
  H   H36       1.0  0.24816  0.39407  0.03920  1.0000
  H   H37       1.0  0.56603  0.84263  0.68444  1.0000
  H   H38       1.0  0.59373  0.65633  0.81559  1.0000
  H   H39       1.0  0.43398  0.15737  0.31556  1.0000
  H   H40       1.0  0.40628  0.34367  0.18441  1.0000
  H   H41       1.0  0.07871  0.84650  0.68523  1.0000
  H   H42       1.0  0.11004  0.65441  0.81484  1.0000
  H   H43       1.0  0.92130  0.15351  0.31477  1.0000
  H   H44       1.0  0.88996  0.34559  0.18516  1.0000
  C   C1        1.0  0.21002  0.44273  0.54303  1.0000
  C   C2        1.0  0.69533  0.05707  0.95699  1.0000
  C   C3        1.0  0.78998  0.55727  0.45696  1.0000
  C   C4        1.0  0.30467  0.94292  0.04301  1.0000
  C   C5        1.0  0.38445  0.35856  0.57634  1.0000
  C   C6        1.0  0.81895  0.14128  0.92366  1.0000
  C   C7        1.0  0.61555  0.64144  0.42366  1.0000
  C   C8        1.0  0.18105  0.85872  0.07634  1.0000
  C   C9        1.0  0.45025  0.43726  0.62288  1.0000
  C   C10       1.0  0.01000  0.06246  0.87706  1.0000
  C   C11       1.0  0.54974  0.56274  0.37712  1.0000
  C   C12       1.0  0.99000  0.93753  0.12294  1.0000
  C   C13       1.0  0.62026  0.29774  0.63802  1.0000
  C   C14       1.0  0.05585  0.20192  0.86189  1.0000
  C   C15       1.0  0.37973  0.70226  0.36198  1.0000
  C   C16       1.0  0.94415  0.79808  0.13811  1.0000
  C   C17       1.0  0.75199  0.29699  0.68502  1.0000
  C   C18       1.0  0.23398  0.20265  0.81495  1.0000
  C   C19       1.0  0.24800  0.70302  0.31498  1.0000
  C   C20       1.0  0.76602  0.79735  0.18505  1.0000
  C   C21       1.0  0.81627  0.96399  0.59393  1.0000
  C   C22       1.0  0.87452  0.53561  0.90602  1.0000
  C   C23       1.0  0.18373  0.03601  0.40607  1.0000
  C   C24       1.0  0.12548  0.46439  0.09397  1.0000
  C   C25       1.0  0.82212  0.85605  0.67565  1.0000
  C   C26       1.0  0.85407  0.64373  0.82436  1.0000
  C   C27       1.0  0.17788  0.14395  0.32435  1.0000
  C   C28       1.0  0.14593  0.35627  0.17564  1.0000
  C   C29       1.0  0.68582  0.80183  0.71292  1.0000
  C   C30       1.0  0.70098  0.69751  0.78712  1.0000
  C   C31       1.0  0.31418  0.19817  0.28708  1.0000
  C   C32       1.0  0.29902  0.30249  0.21288  1.0000
  C   C33       1.0  0.97297  0.80364  0.71351  1.0000
  C   C34       1.0  0.98988  0.69692  0.78657  1.0000
  C   C35       1.0  0.02703  0.19636  0.28649  1.0000
  C   C36       1.0  0.01012  0.30309  0.21343  1.0000
  N   N1        1.0  0.65141  0.14424  0.60071  1.0000
  N   N2        1.0  0.89635  0.35546  0.89926  1.0000
  N   N3        1.0  0.34859  0.85576  0.39929  1.0000
  N   N4        1.0  0.10366  0.64454  0.10074  1.0000
  N   N5        1.0  0.50854  0.18012  0.56363  1.0000
  N   N6        1.0  0.75215  0.31968  0.93638  1.0000
  N   N7        1.0  0.49146  0.81988  0.43637  1.0000
  N   N8        1.0  0.24785  0.68031  0.06362  1.0000
  Cl  Cl1       1.0  0.27307  0.98999  0.61453  1.0000
  Cl  Cl2       1.0  0.37749  0.50982  0.88554  1.0000
  Cl  Cl3       1.0  0.72693  0.01001  0.38547  1.0000
  Cl  Cl4       1.0  0.62251  0.49018  0.11446  1.0000
