data_image0
_chemical_formula_structural       Cu4H56C56N16Cl8
_chemical_formula_sum              "Cu4 H56 C56 N16 Cl8"
_cell_length_a       8.60694
_cell_length_b       12.8031
_cell_length_c       13.1313
_cell_angle_alpha    90
_cell_angle_beta     92.75
_cell_angle_gamma    90

_space_group_name_H-M_alt    "P 1"
_space_group_IT_number       1

loop_
  _space_group_symop_operation_xyz
  'x, y, z'

loop_
  _atom_site_type_symbol
  _atom_site_label
  _atom_site_symmetry_multiplicity
  _atom_site_fract_x
  _atom_site_fract_y
  _atom_site_fract_z
  _atom_site_occupancy
  Cu  Cu1       1.0  0.98655  0.30360  0.84020  1.0000
  Cu  Cu2       1.0  0.51345  0.80355  0.65980  1.0000
  Cu  Cu3       1.0  0.01345  0.69644  0.15981  1.0000
  Cu  Cu4       1.0  0.48655  0.19640  0.34019  1.0000
  H   H1        1.0  0.92459  0.28279  0.22547  1.0000
  H   H2        1.0  0.57524  0.78275  0.27449  1.0000
  H   H3        1.0  0.07522  0.71725  0.77449  1.0000
  H   H4        1.0  0.42460  0.21722  0.72547  1.0000
  H   H5        1.0  0.14190  0.44223  0.20187  1.0000
  H   H6        1.0  0.35799  0.94221  0.29814  1.0000
  H   H7        1.0  0.85797  0.55779  0.79815  1.0000
  H   H8        1.0  0.64193  0.05778  0.70187  1.0000
  H   H9        1.0  0.17227  0.44944  0.99558  1.0000
  H   H10       1.0  0.32782  0.94948  0.50445  1.0000
  H   H11       1.0  0.82782  0.55051  0.00446  1.0000
  H   H12       1.0  0.67229  0.05057  0.49558  1.0000
  H   H13       1.0  0.95405  0.16335  0.47100  1.0000
  H   H14       1.0  0.54603  0.66341  0.02903  1.0000
  H   H15       1.0  0.04603  0.83657  0.52904  1.0000
  H   H16       1.0  0.45407  0.33664  0.97100  1.0000
  H   H17       1.0  0.13624  0.02157  0.58434  1.0000
  H   H18       1.0  0.36376  0.52163  0.91577  1.0000
  H   H19       1.0  0.86372  0.97834  0.41579  1.0000
  H   H20       1.0  0.63627  0.47841  0.08433  1.0000
  H   H21       1.0  0.13531  0.09894  0.77823  1.0000
  H   H22       1.0  0.36465  0.59891  0.72185  1.0000
  H   H23       1.0  0.86464  0.90109  0.22186  1.0000
  H   H24       1.0  0.63529  0.40107  0.27823  1.0000
  H   H25       1.0  0.74769  0.21113  0.97812  1.0000
  H   H26       1.0  0.75232  0.71114  0.52183  1.0000
  H   H27       1.0  0.25231  0.78886  0.02183  1.0000
  H   H28       1.0  0.24769  0.28887  0.47812  1.0000
  H   H29       1.0  0.75957  0.17930  0.11077  1.0000
  H   H30       1.0  0.74041  0.67929  0.38919  1.0000
  H   H31       1.0  0.24040  0.82070  0.88919  1.0000
  H   H32       1.0  0.25957  0.32069  0.61077  1.0000
  H   H33       1.0  0.01357  0.07566  0.17463  1.0000
  H   H34       1.0  0.48641  0.57567  0.32536  1.0000
  H   H35       1.0  0.98641  0.92433  0.82535  1.0000
  H   H36       1.0  0.51356  0.42434  0.67463  1.0000
  H   H37       1.0  0.83771  0.08488  0.86205  1.0000
  H   H38       1.0  0.66228  0.58489  0.63794  1.0000
  H   H39       1.0  0.16228  0.91511  0.13793  1.0000
  H   H40       1.0  0.33770  0.41512  0.36205  1.0000
  H   H41       1.0  0.77868  0.34673  0.65559  1.0000
  H   H42       1.0  0.72135  0.84675  0.84439  1.0000
  H   H43       1.0  0.22136  0.65326  0.34438  1.0000
  H   H44       1.0  0.27867  0.15328  0.15560  1.0000
  H   H45       1.0  0.74942  0.29415  0.53075  1.0000
  H   H46       1.0  0.75063  0.79418  0.96923  1.0000
  H   H47       1.0  0.25064  0.70582  0.46923  1.0000
  H   H48       1.0  0.24941  0.20585  0.03076  1.0000
  H   H49       1.0  0.84924  0.37670  0.38769  1.0000
  H   H50       1.0  0.65079  0.87672  0.11229  1.0000
  H   H51       1.0  0.15081  0.62329  0.61229  1.0000
  H   H52       1.0  0.34923  0.12331  0.88769  1.0000
  H   H53       1.0  0.01861  0.47102  0.68737  1.0000
  H   H54       1.0  0.48139  0.97102  0.81261  1.0000
  H   H55       1.0  0.98141  0.52898  0.31261  1.0000
  H   H56       1.0  0.51860  0.02899  0.18737  1.0000
  C   C1        1.0  0.97342  0.31602  0.15796  1.0000
  C   C2        1.0  0.52647  0.81600  0.34202  1.0000
  C   C3        1.0  0.02646  0.68400  0.84203  1.0000
  C   C4        1.0  0.47344  0.18398  0.65796  1.0000
  C   C5        1.0  0.08207  0.39450  0.14439  1.0000
  C   C6        1.0  0.41786  0.89448  0.35561  1.0000
  C   C7        1.0  0.91785  0.60551  0.85562  1.0000
  C   C8        1.0  0.58209  0.10551  0.64439  1.0000
  C   C9        1.0  0.09990  0.39881  0.03913  1.0000
  C   C10       1.0  0.40014  0.89884  0.46088  1.0000
  C   C11       1.0  0.90013  0.60116  0.96089  1.0000
  C   C12       1.0  0.59992  0.10120  0.53913  1.0000
  C   C13       1.0  0.98791  0.16104  0.55170  1.0000
  C   C14       1.0  0.51215  0.66108  0.94834  1.0000
  C   C15       1.0  0.01213  0.83891  0.44835  1.0000
  C   C16       1.0  0.48793  0.33895  0.05170  1.0000
  C   C17       1.0  0.07871  0.09138  0.60955  1.0000
  C   C18       1.0  0.42130  0.59140  0.89052  1.0000
  C   C19       1.0  0.92128  0.90858  0.39054  1.0000
  C   C20       1.0  0.57873  0.40862  0.10954  1.0000
  C   C21       1.0  0.07832  0.12969  0.70929  1.0000
  C   C22       1.0  0.42167  0.62969  0.79077  1.0000
  C   C23       1.0  0.92167  0.87031  0.29078  1.0000
  C   C24       1.0  0.57832  0.37031  0.20928  1.0000
  C   C25       1.0  0.82695  0.18943  0.04254  1.0000
  C   C26       1.0  0.67305  0.68943  0.45742  1.0000
  C   C27       1.0  0.17304  0.81056  0.95742  1.0000
  C   C28       1.0  0.32695  0.31057  0.54255  1.0000
  C   C29       1.0  0.91608  0.09121  0.02045  1.0000
  C   C30       1.0  0.58392  0.59121  0.47953  1.0000
  C   C31       1.0  0.08392  0.90878  0.97952  1.0000
  C   C32       1.0  0.41607  0.40879  0.52046  1.0000
  C   C33       1.0  0.00715  0.04258  0.09788  1.0000
  C   C34       1.0  0.49285  0.54258  0.40210  1.0000
  C   C35       1.0  0.99284  0.95741  0.90209  1.0000
  C   C36       1.0  0.50714  0.45742  0.59789  1.0000
  C   C37       1.0  0.90941  0.04777  0.92258  1.0000
  C   C38       1.0  0.59058  0.54777  0.57741  1.0000
  C   C39       1.0  0.09058  0.95222  0.07740  1.0000
  C   C40       1.0  0.40941  0.45223  0.42258  1.0000
  C   C41       1.0  0.83726  0.32376  0.58673  1.0000
  C   C42       1.0  0.66277  0.82378  0.91325  1.0000
  C   C43       1.0  0.16279  0.67622  0.41325  1.0000
  C   C44       1.0  0.33725  0.17624  0.08674  1.0000
  C   C45       1.0  0.92362  0.41423  0.54230  1.0000
  C   C46       1.0  0.57640  0.91424  0.95768  1.0000
  C   C47       1.0  0.07642  0.58576  0.45768  1.0000
  C   C48       1.0  0.42360  0.08577  0.04231  1.0000
  C   C49       1.0  0.91531  0.43123  0.43687  1.0000
  C   C50       1.0  0.58472  0.93125  0.06312  1.0000
  C   C51       1.0  0.08474  0.56876  0.56311  1.0000
  C   C52       1.0  0.41529  0.06877  0.93687  1.0000
  C   C53       1.0  0.00941  0.48376  0.60516  1.0000
  C   C54       1.0  0.49060  0.98376  0.89482  1.0000
  C   C55       1.0  0.99062  0.51624  0.39482  1.0000
  C   C56       1.0  0.50939  0.01625  0.10516  1.0000
  N   N1        1.0  0.00920  0.32674  0.99078  1.0000
  N   N2        1.0  0.49088  0.82678  0.50922  1.0000
  N   N3        1.0  0.99087  0.67322  0.00923  1.0000
  N   N4        1.0  0.50921  0.17326  0.49077  1.0000
  N   N5        1.0  0.93011  0.27805  0.06462  1.0000
  N   N6        1.0  0.56988  0.77805  0.43535  1.0000
  N   N7        1.0  0.06987  0.72194  0.93535  1.0000
  N   N8        1.0  0.43012  0.22195  0.56462  1.0000
  N   N9        1.0  0.99094  0.21693  0.71304  1.0000
  N   N10       1.0  0.50908  0.71691  0.78698  1.0000
  N   N11       1.0  0.00910  0.78309  0.28698  1.0000
  N   N12       1.0  0.49092  0.28308  0.21304  1.0000
  N   N13       1.0  0.93701  0.23521  0.61564  1.0000
  N   N14       1.0  0.56305  0.73523  0.88437  1.0000
  N   N15       1.0  0.06305  0.76478  0.38437  1.0000
  N   N16       1.0  0.43700  0.26479  0.11564  1.0000
  Cl  Cl1       1.0  0.24015  0.34601  0.81999  1.0000
  Cl  Cl2       1.0  0.25982  0.84583  0.67994  1.0000
  Cl  Cl3       1.0  0.75982  0.65417  0.17995  1.0000
  Cl  Cl4       1.0  0.74015  0.15401  0.31998  1.0000
  Cl  Cl5       1.0  0.73159  0.34645  0.83295  1.0000
  Cl  Cl6       1.0  0.76841  0.84643  0.66705  1.0000
  Cl  Cl7       1.0  0.26841  0.65356  0.16704  1.0000
  Cl  Cl8       1.0  0.23158  0.15356  0.33295  1.0000
