data_image0
_chemical_formula_structural       Zn2H44C40S4N12
_chemical_formula_sum              "Zn2 H44 C40 S4 N12"
_cell_length_a       9.93494
_cell_length_b       10.8896
_cell_length_c       11.445
_cell_angle_alpha    71.5203
_cell_angle_beta     74.3149
_cell_angle_gamma    85.9586

_space_group_name_H-M_alt    "P 1"
_space_group_IT_number       1

loop_
  _space_group_symop_operation_xyz
  'x, y, z'

loop_
  _atom_site_type_symbol
  _atom_site_label
  _atom_site_symmetry_multiplicity
  _atom_site_fract_x
  _atom_site_fract_y
  _atom_site_fract_z
  _atom_site_occupancy
  Zn  Zn1       1.0  0.33176  0.25349  0.32211  1.0000
  Zn  Zn2       1.0  0.66824  0.74651  0.67788  1.0000
  H   H1        1.0  0.91824  0.22361  0.41654  1.0000
  H   H2        1.0  0.08177  0.77639  0.58346  1.0000
  H   H3        1.0  0.85338  0.04847  0.34689  1.0000
  H   H4        1.0  0.14662  0.95153  0.65311  1.0000
  H   H5        1.0  0.06658  0.30146  0.51501  1.0000
  H   H6        1.0  0.93342  0.69854  0.48499  1.0000
  H   H7        1.0  0.99577  0.20705  0.67520  1.0000
  H   H8        1.0  0.00423  0.79295  0.32480  1.0000
  H   H9        1.0  0.07275  0.20612  0.86213  1.0000
  H   H10       1.0  0.92725  0.79388  0.13787  1.0000
  H   H11       1.0  0.17841  0.07659  0.92673  1.0000
  H   H12       1.0  0.82159  0.92341  0.07327  1.0000
  H   H13       1.0  0.05151  0.05044  0.85229  1.0000
  H   H14       1.0  0.94850  0.94955  0.14770  1.0000
  H   H15       1.0  0.44551  0.10971  0.76816  1.0000
  H   H16       1.0  0.55450  0.89029  0.23183  1.0000
  H   H17       1.0  0.61540  0.06757  0.50223  1.0000
  H   H18       1.0  0.38461  0.93243  0.49777  1.0000
  H   H19       1.0  0.65288  0.21344  0.52391  1.0000
  H   H20       1.0  0.34713  0.78656  0.47609  1.0000
  H   H21       1.0  0.59547  0.21927  0.38828  1.0000
  H   H22       1.0  0.40453  0.78073  0.61172  1.0000
  H   H23       1.0  0.25196  0.52962  0.49183  1.0000
  H   H24       1.0  0.74804  0.47039  0.50817  1.0000
  H   H25       1.0  0.31027  0.48522  0.69578  1.0000
  H   H26       1.0  0.68972  0.51478  0.30422  1.0000
  H   H27       1.0  0.32191  0.53511  0.26934  1.0000
  H   H28       1.0  0.67808  0.46489  0.73066  1.0000
  H   H29       1.0  0.44643  0.66308  0.20336  1.0000
  H   H30       1.0  0.55357  0.33692  0.79664  1.0000
  H   H31       1.0  0.59960  0.73967  0.00179  1.0000
  H   H32       1.0  0.40040  0.26033  0.99821  1.0000
  H   H33       1.0  0.77343  0.69070  0.94899  1.0000
  H   H34       1.0  0.22657  0.30930  0.05101  1.0000
  H   H35       1.0  0.71093  0.70445  0.10542  1.0000
  H   H36       1.0  0.28907  0.29555  0.89458  1.0000
  H   H37       1.0  0.80146  0.43156  0.97516  1.0000
  H   H38       1.0  0.19854  0.56844  0.02484  1.0000
  H   H39       1.0  0.60255  0.11730  0.22374  1.0000
  H   H40       1.0  0.39745  0.88270  0.77626  1.0000
  H   H41       1.0  0.75654  0.16947  0.09649  1.0000
  H   H42       1.0  0.24346  0.83052  0.90351  1.0000
  H   H43       1.0  0.59450  0.15833  0.06392  1.0000
  H   H44       1.0  0.40550  0.84167  0.93608  1.0000
  C   C1        1.0  0.95366  0.12535  0.45390  1.0000
  C   C2        1.0  0.04634  0.87465  0.54610  1.0000
  C   C3        1.0  0.91814  0.02676  0.41402  1.0000
  C   C4        1.0  0.08186  0.97323  0.58598  1.0000
  C   C5        1.0  0.03586  0.09947  0.54043  1.0000
  C   C6        1.0  0.96414  0.90053  0.45957  1.0000
  C   C7        1.0  0.07130  0.20655  0.58521  1.0000
  C   C8        1.0  0.92871  0.79345  0.41479  1.0000
  C   C9        1.0  0.12993  0.11953  0.84774  1.0000
  C   C10       1.0  0.87007  0.88046  0.15226  1.0000
  C   C11       1.0  0.23953  0.15059  0.72401  1.0000
  C   C12       1.0  0.76047  0.84941  0.27599  1.0000
  C   C13       1.0  0.38416  0.13935  0.69880  1.0000
  C   C14       1.0  0.61585  0.86065  0.30120  1.0000
  C   C15       1.0  0.43543  0.17210  0.56546  1.0000
  C   C16       1.0  0.56458  0.82790  0.43454  1.0000
  C   C17       1.0  0.58232  0.16830  0.48997  1.0000
  C   C18       1.0  0.41769  0.83170  0.51003  1.0000
  C   C19       1.0  0.36134  0.51739  0.49422  1.0000
  C   C20       1.0  0.63865  0.48261  0.50578  1.0000
  C   C21       1.0  0.39448  0.49067  0.61039  1.0000
  C   C22       1.0  0.60552  0.50933  0.38961  1.0000
  C   C23       1.0  0.46697  0.52742  0.38229  1.0000
  C   C24       1.0  0.53303  0.47258  0.61771  1.0000
  C   C25       1.0  0.43161  0.55902  0.25553  1.0000
  C   C26       1.0  0.56839  0.44097  0.74447  1.0000
  C   C27       1.0  0.68241  0.67514  0.03164  1.0000
  C   C28       1.0  0.31759  0.32486  0.96836  1.0000
  C   C29       1.0  0.63826  0.53650  0.07934  1.0000
  C   C30       1.0  0.36174  0.46350  0.92066  1.0000
  C   C31       1.0  0.70346  0.43059  0.04610  1.0000
  C   C32       1.0  0.29654  0.56941  0.95390  1.0000
  C   C33       1.0  0.61934  0.32194  0.12487  1.0000
  C   C34       1.0  0.38066  0.67806  0.87513  1.0000
  C   C35       1.0  0.64392  0.18477  0.12799  1.0000
  C   C36       1.0  0.35608  0.81523  0.87201  1.0000
  C   C37       1.0  0.08726  0.44086  0.26367  1.0000
  C   C38       1.0  0.91274  0.55914  0.73633  1.0000
  C   C39       1.0  0.30026  0.02007  0.22997  1.0000
  C   C40       1.0  0.69974  0.97993  0.77003  1.0000
  S   S1        1.0  0.27614  0.91221  0.16800  1.0000
  S   S2        1.0  0.72385  0.08779  0.83200  1.0000
  S   S3        1.0  0.96473  0.53936  0.23166  1.0000
  S   S4        1.0  0.03527  0.46065  0.76834  1.0000
  N   N1        1.0  0.17860  0.36859  0.28723  1.0000
  N   N2        1.0  0.82140  0.63141  0.71278  1.0000
  N   N3        1.0  0.32132  0.09872  0.27522  1.0000
  N   N4        1.0  0.67868  0.90128  0.72478  1.0000
  N   N5        1.0  0.20913  0.19217  0.60879  1.0000
  N   N6        1.0  0.79088  0.80783  0.39121  1.0000
  N   N7        1.0  0.32780  0.20398  0.51100  1.0000
  N   N8        1.0  0.67220  0.79602  0.48900  1.0000
  N   N9        1.0  0.50725  0.35882  0.20329  1.0000
  N   N10       1.0  0.49275  0.64118  0.79671  1.0000
  N   N11       1.0  0.51958  0.49040  0.17317  1.0000
  N   N12       1.0  0.48042  0.50960  0.82683  1.0000
