data_image0
_chemical_formula_structural       Cu2H44C36I2N8
_chemical_formula_sum              "Cu2 H44 C36 I2 N8"
_cell_length_a       8.69738
_cell_length_b       8.9381
_cell_length_c       12.0188
_cell_angle_alpha    91.6322
_cell_angle_beta     98.0503
_cell_angle_gamma    100.467

_space_group_name_H-M_alt    "P 1"
_space_group_IT_number       1

loop_
  _space_group_symop_operation_xyz
  'x, y, z'

loop_
  _atom_site_type_symbol
  _atom_site_label
  _atom_site_symmetry_multiplicity
  _atom_site_fract_x
  _atom_site_fract_y
  _atom_site_fract_z
  _atom_site_occupancy
  Cu  Cu1       1.0  0.78845  0.20974  0.73368  1.0000
  Cu  Cu2       1.0  0.21155  0.79026  0.26632  1.0000
  H   H1        1.0  0.28325  0.19015  0.44527  1.0000
  H   H2        1.0  0.71675  0.80985  0.55473  1.0000
  H   H3        1.0  0.58798  0.07286  0.26676  1.0000
  H   H4        1.0  0.41202  0.92714  0.73324  1.0000
  H   H5        1.0  0.56327  0.26409  0.25402  1.0000
  H   H6        1.0  0.43673  0.73591  0.74598  1.0000
  H   H7        1.0  0.39554  0.11688  0.25109  1.0000
  H   H8        1.0  0.60446  0.88312  0.74891  1.0000
  H   H9        1.0  0.49531  0.23508  0.76999  1.0000
  H   H10       1.0  0.50469  0.76492  0.23001  1.0000
  H   H11       1.0  0.30140  0.15667  0.70086  1.0000
  H   H12       1.0  0.69860  0.84333  0.29914  1.0000
  H   H13       1.0  0.37752  0.35327  0.69625  1.0000
  H   H14       1.0  0.62248  0.64673  0.30375  1.0000
  H   H15       1.0  0.78952  0.71379  0.95081  1.0000
  H   H16       1.0  0.21049  0.28621  0.04919  1.0000
  H   H17       1.0  0.85919  0.52351  0.67049  1.0000
  H   H18       1.0  0.14082  0.47649  0.32952  1.0000
  H   H19       1.0  0.81621  0.69726  0.72342  1.0000
  H   H20       1.0  0.18379  0.30274  0.27658  1.0000
  H   H21       1.0  0.66102  0.54193  0.67161  1.0000
  H   H22       1.0  0.33898  0.45807  0.32839  1.0000
  H   H23       1.0  0.87830  0.44058  0.19038  1.0000
  H   H24       1.0  0.12170  0.55942  0.80962  1.0000
  H   H25       1.0  0.67736  0.46083  0.16467  1.0000
  H   H26       1.0  0.32265  0.53916  0.83533  1.0000
  H   H27       1.0  0.83151  0.62380  0.17195  1.0000
  H   H28       1.0  0.16850  0.37619  0.82806  1.0000
  H   H29       1.0  0.86422  0.22417  0.09821  1.0000
  H   H30       1.0  0.13577  0.77583  0.90179  1.0000
  H   H31       1.0  0.88261  0.15058  0.96391  1.0000
  H   H32       1.0  0.11739  0.84942  0.03609  1.0000
  H   H33       1.0  0.50438  0.27583  0.97627  1.0000
  H   H34       1.0  0.49561  0.72418  0.02372  1.0000
  H   H35       1.0  0.75127  0.90371  0.03312  1.0000
  H   H36       1.0  0.24872  0.09630  0.96687  1.0000
  H   H37       1.0  0.11396  0.28551  0.58226  1.0000
  H   H38       1.0  0.88603  0.71449  0.41774  1.0000
  H   H39       1.0  0.72874  0.45139  0.39303  1.0000
  H   H40       1.0  0.27125  0.54861  0.60697  1.0000
  H   H41       1.0  0.81486  0.14202  0.38140  1.0000
  H   H42       1.0  0.18514  0.85798  0.61860  1.0000
  H   H43       1.0  0.87585  0.11423  0.52509  1.0000
  H   H44       1.0  0.12415  0.88577  0.47491  1.0000
  C   C1        1.0  0.47851  0.21195  0.59131  1.0000
  C   C2        1.0  0.52149  0.78805  0.40870  1.0000
  C   C3        1.0  0.40647  0.19355  0.47817  1.0000
  C   C4        1.0  0.59353  0.80645  0.52183  1.0000
  C   C5        1.0  0.52459  0.17537  0.41468  1.0000
  C   C6        1.0  0.47542  0.82463  0.58533  1.0000
  C   C7        1.0  0.51839  0.15620  0.29069  1.0000
  C   C8        1.0  0.48162  0.84380  0.70932  1.0000
  C   C9        1.0  0.40952  0.23981  0.69473  1.0000
  C   C10       1.0  0.59048  0.76019  0.30527  1.0000
  C   C11       1.0  0.78832  0.51499  0.83432  1.0000
  C   C12       1.0  0.21168  0.48502  0.16568  1.0000
  C   C13       1.0  0.78985  0.59353  0.93757  1.0000
  C   C14       1.0  0.21015  0.40648  0.06243  1.0000
  C   C15       1.0  0.79603  0.48687  0.01962  1.0000
  C   C16       1.0  0.20397  0.51313  0.98039  1.0000
  C   C17       1.0  0.78098  0.57271  0.71917  1.0000
  C   C18       1.0  0.21902  0.42729  0.28083  1.0000
  C   C19       1.0  0.79587  0.50337  0.14294  1.0000
  C   C20       1.0  0.20413  0.49663  0.85706  1.0000
  C   C21       1.0  0.80537  0.20509  0.01054  1.0000
  C   C22       1.0  0.19462  0.79491  0.98946  1.0000
  C   C23       1.0  0.64584  0.10129  0.00390  1.0000
  C   C24       1.0  0.35415  0.89872  0.99610  1.0000
  C   C25       1.0  0.50341  0.15478  0.98665  1.0000
  C   C26       1.0  0.49658  0.84523  0.01335  1.0000
  C   C27       1.0  0.64044  0.94548  0.01729  1.0000
  C   C28       1.0  0.35956  0.05452  0.98270  1.0000
  C   C29       1.0  0.06463  0.37969  0.54535  1.0000
  C   C30       1.0  0.93536  0.62031  0.45465  1.0000
  C   C31       1.0  0.91238  0.34992  0.48396  1.0000
  C   C32       1.0  0.08762  0.65008  0.51604  1.0000
  C   C33       1.0  0.84854  0.47206  0.43922  1.0000
  C   C34       1.0  0.15146  0.52794  0.56078  1.0000
  C   C35       1.0  0.81949  0.18862  0.46762  1.0000
  C   C36       1.0  0.18051  0.81137  0.53238  1.0000
  I   I1        1.0  0.97532  0.02271  0.75786  1.0000
  I   I2        1.0  0.02468  0.97729  0.24214  1.0000
  N   N1        1.0  0.63297  0.20381  0.59771  1.0000
  N   N2        1.0  0.36703  0.79618  0.40229  1.0000
  N   N3        1.0  0.65875  0.18086  0.48961  1.0000
  N   N4        1.0  0.34125  0.81914  0.51039  1.0000
  N   N5        1.0  0.79463  0.36751  0.85155  1.0000
  N   N6        1.0  0.20537  0.63250  0.14845  1.0000
  N   N7        1.0  0.79964  0.35233  0.96475  1.0000
  N   N8        1.0  0.20037  0.64767  0.03525  1.0000
