data_image0
_chemical_formula_structural       Fe2H8C12N8
_chemical_formula_sum              "Fe2 H8 C12 N8"
_cell_length_a       6.9331
_cell_length_b       9.16773
_cell_length_c       9.16769
_cell_angle_alpha    90.1648
_cell_angle_beta     90.0003
_cell_angle_gamma    90.0002

_space_group_name_H-M_alt    "P 1"
_space_group_IT_number       1

loop_
  _space_group_symop_operation_xyz
  'x, y, z'

loop_
  _atom_site_type_symbol
  _atom_site_label
  _atom_site_symmetry_multiplicity
  _atom_site_fract_x
  _atom_site_fract_y
  _atom_site_fract_z
  _atom_site_occupancy
  Fe  Fe1       1.0  0.25000  0.50000  0.50000  1.0000
  Fe  Fe2       1.0  0.75000  0.50000  0.50000  1.0000
  H   H1        1.0  0.18764  0.49842  0.85114  1.0000
  H   H2        1.0  0.18764  0.50158  0.14886  1.0000
  H   H3        1.0  0.68765  0.14885  0.50158  1.0000
  H   H4        1.0  0.68764  0.85115  0.49842  1.0000
  H   H5        1.0  0.81235  0.49842  0.85115  1.0000
  H   H6        1.0  0.81236  0.50158  0.14886  1.0000
  H   H7        1.0  0.31236  0.85114  0.49842  1.0000
  H   H8        1.0  0.31236  0.14886  0.50158  1.0000
  C   C1        1.0  0.49996  0.50004  0.92098  1.0000
  C   C2        1.0  0.49996  0.49996  0.07902  1.0000
  C   C3        1.0  0.00004  0.07902  0.49995  1.0000
  C   C4        1.0  0.00004  0.92098  0.50004  1.0000
  C   C5        1.0  0.34077  0.50004  0.82611  1.0000
  C   C6        1.0  0.34076  0.49996  0.17389  1.0000
  C   C7        1.0  0.84079  0.17391  0.49995  1.0000
  C   C8        1.0  0.84079  0.82609  0.50005  1.0000
  C   C9        1.0  0.65921  0.50005  0.82609  1.0000
  C   C10       1.0  0.65920  0.49995  0.17392  1.0000
  C   C11       1.0  0.15924  0.82612  0.50005  1.0000
  C   C12       1.0  0.15924  0.17389  0.49995  1.0000
  N   N1        1.0  0.40125  0.50044  0.68616  1.0000
  N   N2        1.0  0.40126  0.49957  0.31383  1.0000
  N   N3        1.0  0.90125  0.31385  0.49956  1.0000
  N   N4        1.0  0.90125  0.68614  0.50044  1.0000
  N   N5        1.0  0.59875  0.50044  0.68614  1.0000
  N   N6        1.0  0.59876  0.49957  0.31386  1.0000
  N   N7        1.0  0.09874  0.68617  0.50044  1.0000
  N   N8        1.0  0.09874  0.31383  0.49956  1.0000
