data_image0
_chemical_formula_structural       Ag2H24C20N4O4F6
_chemical_formula_sum              "Ag2 H24 C20 N4 O4 F6"
_cell_length_a       8.91154
_cell_length_b       9.09067
_cell_length_c       9.44966
_cell_angle_alpha    117.196
_cell_angle_beta     116.005
_cell_angle_gamma    91.8944

_space_group_name_H-M_alt    "P 1"
_space_group_IT_number       1

loop_
  _space_group_symop_operation_xyz
  'x, y, z'

loop_
  _atom_site_type_symbol
  _atom_site_label
  _atom_site_symmetry_multiplicity
  _atom_site_fract_x
  _atom_site_fract_y
  _atom_site_fract_z
  _atom_site_occupancy
  Ag  Ag1       1.0  0.39035  0.88754  0.73226  1.0000
  Ag  Ag2       1.0  0.60965  0.11246  0.26774  1.0000
  H   H1        1.0  0.07881  0.45791  0.20295  1.0000
  H   H2        1.0  0.92119  0.54209  0.79705  1.0000
  H   H3        1.0  0.16947  0.67768  0.38958  1.0000
  H   H4        1.0  0.83052  0.32232  0.61042  1.0000
  H   H5        1.0  0.21528  0.60720  0.20745  1.0000
  H   H6        1.0  0.78472  0.39279  0.79255  1.0000
  H   H7        1.0  0.86668  0.76777  0.92368  1.0000
  H   H8        1.0  0.13332  0.23223  0.07632  1.0000
  H   H9        1.0  0.71220  0.88880  0.89995  1.0000
  H   H10       1.0  0.28780  0.11120  0.10005  1.0000
  H   H11       1.0  0.69809  0.74019  0.96887  1.0000
  H   H12       1.0  0.30191  0.25981  0.03113  1.0000
  H   H13       1.0  0.29851  0.98539  0.36485  1.0000
  H   H14       1.0  0.70149  0.01460  0.63514  1.0000
  H   H15       1.0  0.42368  0.06470  0.60668  1.0000
  H   H16       1.0  0.57632  0.93530  0.39332  1.0000
  H   H17       1.0  0.34780  0.20689  0.52951  1.0000
  H   H18       1.0  0.65220  0.79311  0.47049  1.0000
  H   H19       1.0  0.91527  0.72936  0.62941  1.0000
  H   H20       1.0  0.08473  0.27064  0.37058  1.0000
  H   H21       1.0  0.13426  0.86149  0.80093  1.0000
  H   H22       1.0  0.86574  0.13850  0.19907  1.0000
  H   H23       1.0  0.95545  0.93948  0.81011  1.0000
  H   H24       1.0  0.04454  0.06052  0.18989  1.0000
  C   C1        1.0  0.67279  0.26530  0.00717  1.0000
  C   C2        1.0  0.32721  0.73470  0.99283  1.0000
  C   C3        1.0  0.72413  0.45817  0.16375  1.0000
  C   C4        1.0  0.27587  0.54183  0.83625  1.0000
  C   C5        1.0  0.35224  0.53164  0.40260  1.0000
  C   C6        1.0  0.64776  0.46836  0.59740  1.0000
  C   C7        1.0  0.61092  0.62479  0.68097  1.0000
  C   C8        1.0  0.38908  0.37521  0.31903  1.0000
  C   C9        1.0  0.19529  0.57009  0.29530  1.0000
  C   C10       1.0  0.80471  0.42991  0.70470  1.0000
  C   C11       1.0  0.72951  0.76280  0.87893  1.0000
  C   C12       1.0  0.27049  0.23720  0.12107  1.0000
  C   C13       1.0  0.15035  0.03630  0.50144  1.0000
  C   C14       1.0  0.84965  0.96370  0.49856  1.0000
  C   C15       1.0  0.00157  0.93423  0.60379  1.0000
  C   C16       1.0  0.99843  0.06577  0.39621  1.0000
  C   C17       1.0  0.31373  0.07523  0.50067  1.0000
  C   C18       1.0  0.68627  0.92477  0.49933  1.0000
  C   C19       1.0  0.00217  0.86236  0.71776  1.0000
  C   C20       1.0  0.99783  0.13764  0.28224  1.0000
  N   N1        1.0  0.46375  0.65274  0.58242  1.0000
  N   N2        1.0  0.53625  0.34726  0.41758  1.0000
  N   N3        1.0  0.14900  0.97042  0.60311  1.0000
  N   N4        1.0  0.85100  0.02958  0.39689  1.0000
  O   O1        1.0  0.57095  0.16231  0.00570  1.0000
  O   O2        1.0  0.42905  0.83769  0.99431  1.0000
  O   O3        1.0  0.73846  0.23439  0.90813  1.0000
  O   O4        1.0  0.26154  0.76561  0.09187  1.0000
  F   F1        1.0  0.58513  0.50565  0.17794  1.0000
  F   F2        1.0  0.41488  0.49435  0.82206  1.0000
  F   F3        1.0  0.84318  0.48284  0.33269  1.0000
  F   F4        1.0  0.15682  0.51716  0.66731  1.0000
  F   F5        1.0  0.79863  0.57371  0.14240  1.0000
  F   F6        1.0  0.20137  0.42628  0.85760  1.0000
