data_image0
_chemical_formula_structural       Cd2H36C40N8O10
_chemical_formula_sum              "Cd2 H36 C40 N8 O10"
_cell_length_a       8.63335
_cell_length_b       11.0878
_cell_length_c       11.7295
_cell_angle_alpha    82.7957
_cell_angle_beta     68.3951
_cell_angle_gamma    70.0118

_space_group_name_H-M_alt    "P 1"
_space_group_IT_number       1

loop_
  _space_group_symop_operation_xyz
  'x, y, z'

loop_
  _atom_site_type_symbol
  _atom_site_label
  _atom_site_symmetry_multiplicity
  _atom_site_fract_x
  _atom_site_fract_y
  _atom_site_fract_z
  _atom_site_occupancy
  Cd  Cd1       1.0  0.44074  0.25321  0.59707  1.0000
  Cd  Cd2       1.0  0.03718  0.75358  0.40334  1.0000
  H   H1        1.0  0.17677  0.86776  0.62501  1.0000
  H   H2        1.0  0.80270  0.36745  0.37486  1.0000
  H   H3        1.0  0.15396  0.45694  0.54322  1.0000
  H   H4        1.0  0.69652  0.95725  0.45721  1.0000
  H   H5        1.0  0.29318  0.39773  0.41644  1.0000
  H   H6        1.0  0.70892  0.89803  0.58397  1.0000
  H   H7        1.0  0.87427  0.06783  0.50206  1.0000
  H   H8        1.0  0.37558  0.56803  0.49866  1.0000
  H   H9        1.0  0.61861  0.35458  0.77666  1.0000
  H   H10       1.0  0.39477  0.85410  0.22372  1.0000
  H   H11       1.0  0.98227  0.29886  0.70553  1.0000
  H   H12       1.0  0.68792  0.79804  0.29417  1.0000
  H   H13       1.0  0.22316  0.18193  0.47332  1.0000
  H   H14       1.0  0.69601  0.68184  0.52684  1.0000
  H   H15       1.0  0.17694  0.04420  0.44837  1.0000
  H   H16       1.0  0.62554  0.54380  0.55154  1.0000
  H   H17       1.0  0.54565  0.04876  0.80857  1.0000
  H   H18       1.0  0.35463  0.54908  0.19110  1.0000
  H   H19       1.0  0.61361  0.84768  0.92910  1.0000
  H   H20       1.0  0.54299  0.34833  0.06983  1.0000
  H   H21       1.0  0.35138  0.67741  0.77728  1.0000
  H   H22       1.0  0.12956  0.17753  0.22225  1.0000
  H   H23       1.0  0.60548  0.64104  0.99087  1.0000
  H   H24       1.0  0.59722  0.14107  0.00835  1.0000
  H   H25       1.0  0.43160  0.59548  0.98057  1.0000
  H   H26       1.0  0.41280  0.09571  0.01878  1.0000
  H   H27       1.0  0.64157  0.55116  0.86349  1.0000
  H   H28       1.0  0.50567  0.05141  0.13580  1.0000
  H   H29       1.0  0.70472  0.39388  0.18107  1.0000
  H   H30       1.0  0.88738  0.89399  0.81917  1.0000
  H   H31       1.0  0.90170  0.37991  0.96025  1.0000
  H   H32       1.0  0.86376  0.87998  0.03986  1.0000
  H   H33       1.0  0.11109  0.17071  0.87221  1.0000
  H   H34       1.0  0.98422  0.67062  0.12785  1.0000
  H   H35       1.0  0.13687  0.97482  0.00389  1.0000
  H   H36       1.0  0.14103  0.47459  0.99602  1.0000
  C   C1        1.0  0.84792  0.13709  0.57016  1.0000
  C   C2        1.0  0.41756  0.63702  0.43040  1.0000
  C   C3        1.0  0.72504  0.28522  0.71086  1.0000
  C   C4        1.0  0.43550  0.78480  0.28946  1.0000
  C   C5        1.0  0.90355  0.25987  0.67602  1.0000
  C   C6        1.0  0.57954  0.75921  0.32391  1.0000
  C   C7        1.0  0.16658  0.10637  0.51842  1.0000
  C   C8        1.0  0.68505  0.60611  0.48157  1.0000
  C   C9        1.0  0.26019  0.03155  0.60195  1.0000
  C   C10       1.0  0.86248  0.53147  0.39810  1.0000
  C   C11       1.0  0.40465  0.97689  0.72799  1.0000
  C   C12       1.0  0.13331  0.47695  0.27209  1.0000
  C   C13       1.0  0.50208  0.96921  0.80263  1.0000
  C   C14       1.0  0.30520  0.46945  0.19713  1.0000
  C   C15       1.0  0.53980  0.85634  0.86897  1.0000
  C   C16       1.0  0.40925  0.35675  0.13038  1.0000
  C   C17       1.0  0.48917  0.75047  0.85990  1.0000
  C   C18       1.0  0.34986  0.25071  0.13946  1.0000
  C   C19       1.0  0.39061  0.75844  0.78593  1.0000
  C   C20       1.0  0.17744  0.25853  0.21371  1.0000
  C   C21       1.0  0.34728  0.87274  0.72246  1.0000
  C   C22       1.0  0.07057  0.37275  0.27745  1.0000
  C   C23       1.0  0.54439  0.62836  0.92795  1.0000
  C   C24       1.0  0.47311  0.12857  0.07131  1.0000
  C   C25       1.0  0.68291  0.20465  0.34460  1.0000
  C   C26       1.0  0.02765  0.70459  0.65568  1.0000
  C   C27       1.0  0.80804  0.19276  0.21505  1.0000
  C   C28       1.0  0.02394  0.69275  0.78504  1.0000
  C   C29       1.0  0.79910  0.30245  0.14062  1.0000
  C   C30       1.0  0.94114  0.80250  0.85950  1.0000
  C   C31       1.0  0.90719  0.29454  0.01781  1.0000
  C   C32       1.0  0.92656  0.79458  0.98228  1.0000
  C   C33       1.0  0.02591  0.17600  0.96791  1.0000
  C   C34       1.0  0.99493  0.67596  0.03212  1.0000
  C   C35       1.0  0.03967  0.06658  0.04165  1.0000
  C   C36       1.0  0.08198  0.56647  0.95836  1.0000
  C   C37       1.0  0.93343  0.07452  0.16571  1.0000
  C   C38       1.0  0.09968  0.57444  0.83433  1.0000
  C   C39       1.0  0.97289  0.96137  0.24714  1.0000
  C   C40       1.0  0.21997  0.46098  0.75309  1.0000
  N   N1        1.0  0.34914  0.07408  0.65076  1.0000
  N   N2        1.0  0.00020  0.57410  0.34946  1.0000
  N   N3        1.0  0.25548  0.91189  0.64216  1.0000
  N   N4        1.0  0.89837  0.41175  0.35771  1.0000
  N   N5        1.0  0.97880  0.16610  0.58630  1.0000
  N   N6        1.0  0.56503  0.66563  0.41374  1.0000
  N   N7        1.0  0.69192  0.20823  0.64417  1.0000
  N   N8        1.0  0.33537  0.70822  0.35655  1.0000
  O   O1        1.0  0.62941  0.11159  0.39752  1.0000
  O   O2        1.0  0.02777  0.61134  0.60267  1.0000
  O   O3        1.0  0.62892  0.31311  0.39873  1.0000
  O   O4        1.0  0.02643  0.81334  0.60184  1.0000
  O   O5        1.0  0.03806  0.97357  0.32506  1.0000
  O   O6        1.0  0.36339  0.47263  0.67507  1.0000
  O   O7        1.0  0.94752  0.85863  0.23345  1.0000
  O   O8        1.0  0.18035  0.35846  0.76708  1.0000
  O   O9        1.0  0.23177  0.37457  0.49982  1.0000
  O   O10       1.0  0.73114  0.87491  0.50052  1.0000
