data_image0
_chemical_formula_structural       Mn2H14C16N2O10
_chemical_formula_sum              "Mn2 H14 C16 N2 O10"
_cell_length_a       7.33896
_cell_length_b       8.79141
_cell_length_c       8.24503
_cell_angle_alpha    94.4641
_cell_angle_beta     84.8335
_cell_angle_gamma    63.8761

_space_group_name_H-M_alt    "P 1"
_space_group_IT_number       1

loop_
  _space_group_symop_operation_xyz
  'x, y, z'

loop_
  _atom_site_type_symbol
  _atom_site_label
  _atom_site_symmetry_multiplicity
  _atom_site_fract_x
  _atom_site_fract_y
  _atom_site_fract_z
  _atom_site_occupancy
  Mn  Mn1       1.0  0.99369  0.36142  0.71836  1.0000
  Mn  Mn2       1.0  0.00631  0.63858  0.28163  1.0000
  H   H1        1.0  0.50883  0.43681  0.21047  1.0000
  H   H2        1.0  0.49117  0.56319  0.78954  1.0000
  H   H3        1.0  0.45354  0.99640  0.35073  1.0000
  H   H4        1.0  0.54646  0.00359  0.64927  1.0000
  H   H5        1.0  0.85314  0.94842  0.91150  1.0000
  H   H6        1.0  0.14686  0.05159  0.08850  1.0000
  H   H7        1.0  0.12163  0.58790  0.84647  1.0000
  H   H8        1.0  0.87836  0.41210  0.15353  1.0000
  H   H9        1.0  0.10629  0.58629  0.65007  1.0000
  H   H10       1.0  0.89370  0.41371  0.34993  1.0000
  H   H11       1.0  0.62958  0.73692  0.15882  1.0000
  H   H12       1.0  0.37042  0.26307  0.84118  1.0000
  H   H13       1.0  0.78935  0.71555  0.99337  1.0000
  H   H14       1.0  0.21066  0.28446  0.00662  1.0000
  C   C1        1.0  0.78066  0.27705  0.93309  1.0000
  C   C2        1.0  0.21934  0.72295  0.06691  1.0000
  C   C3        1.0  0.30099  0.33501  0.43225  1.0000
  C   C4        1.0  0.69900  0.66499  0.56776  1.0000
  C   C5        1.0  0.69153  0.19935  0.05021  1.0000
  C   C6        1.0  0.30847  0.80065  0.94979  1.0000
  C   C7        1.0  0.55269  0.30094  0.18806  1.0000
  C   C8        1.0  0.44732  0.69907  0.81194  1.0000
  C   C9        1.0  0.46398  0.22734  0.29343  1.0000
  C   C10       1.0  0.53602  0.77265  0.70658  1.0000
  C   C11       1.0  0.52321  0.05171  0.26662  1.0000
  C   C12       1.0  0.47679  0.94829  0.73338  1.0000
  C   C13       1.0  0.66846  0.94906  0.13272  1.0000
  C   C14       1.0  0.33155  0.05095  0.86728  1.0000
  C   C15       1.0  0.74769  0.02444  0.02132  1.0000
  C   C16       1.0  0.25231  0.97556  0.97868  1.0000
  N   N1        1.0  0.73913  0.76991  0.11315  1.0000
  N   N2        1.0  0.26087  0.23009  0.88684  1.0000
  O   O1        1.0  0.03166  0.59287  0.75959  1.0000
  O   O2        1.0  0.96834  0.40713  0.24040  1.0000
  O   O3        1.0  0.85193  0.20437  0.78572  1.0000
  O   O4        1.0  0.14806  0.79563  0.21428  1.0000
  O   O5        1.0  0.78871  0.41634  0.98247  1.0000
  O   O6        1.0  0.21129  0.58366  0.01753  1.0000
  O   O7        1.0  0.22406  0.49902  0.44178  1.0000
  O   O8        1.0  0.77593  0.50098  0.55822  1.0000
  O   O9        1.0  0.24387  0.25770  0.53434  1.0000
  O   O10       1.0  0.75614  0.74230  0.46566  1.0000
