data_image0
_chemical_formula_structural       Zn2H38C44N10O8
_chemical_formula_sum              "Zn2 H38 C44 N10 O8"
_cell_length_a       11.5379
_cell_length_b       11.853
_cell_length_c       14.227
_cell_angle_alpha    112.47
_cell_angle_beta     90
_cell_angle_gamma    119.124

_space_group_name_H-M_alt    "P 1"
_space_group_IT_number       1

loop_
  _space_group_symop_operation_xyz
  'x, y, z'

loop_
  _atom_site_type_symbol
  _atom_site_label
  _atom_site_symmetry_multiplicity
  _atom_site_fract_x
  _atom_site_fract_y
  _atom_site_fract_z
  _atom_site_occupancy
  Zn  Zn1       1.0  0.37271  0.71691  0.75720  1.0000
  Zn  Zn2       1.0  0.34420  0.71691  0.25720  1.0000
  H   H1        1.0  0.90783  0.44427  0.15939  1.0000
  H   H2        1.0  0.53644  0.44427  0.65939  1.0000
  H   H3        1.0  0.04950  0.18514  0.95996  1.0000
  H   H4        1.0  0.13564  0.18514  0.45995  1.0000
  H   H5        1.0  0.80709  0.99713  0.85648  1.0000
  H   H6        1.0  0.19005  0.99713  0.35648  1.0000
  H   H7        1.0  0.14771  0.54618  0.54191  1.0000
  H   H8        1.0  0.39847  0.54618  0.04191  1.0000
  H   H9        1.0  0.42471  0.98940  0.72341  1.0000
  H   H10       1.0  0.56469  0.98940  0.22341  1.0000
  H   H11       1.0  0.27011  0.95150  0.55044  1.0000
  H   H12       1.0  0.68139  0.95151  0.05044  1.0000
  H   H13       1.0  0.10823  0.70475  0.37242  1.0000
  H   H14       1.0  0.59652  0.70476  0.87243  1.0000
  H   H15       1.0  0.03031  0.54564  0.39045  1.0000
  H   H16       1.0  0.51533  0.54564  0.89045  1.0000
  H   H17       1.0  0.86055  0.50878  0.50649  1.0000
  H   H18       1.0  0.64824  0.50879  0.00649  1.0000
  H   H19       1.0  0.68910  0.56298  0.57847  1.0000
  H   H20       1.0  0.87387  0.56298  0.07846  1.0000
  H   H21       1.0  0.85546  0.92605  0.50684  1.0000
  H   H22       1.0  0.07059  0.92605  0.00684  1.0000
  H   H23       1.0  0.02770  0.87248  0.43508  1.0000
  H   H24       1.0  0.84479  0.87249  0.93507  1.0000
  H   H25       1.0  0.60886  0.72901  0.64150  1.0000
  H   H26       1.0  0.12015  0.72901  0.14150  1.0000
  H   H27       1.0  0.68513  0.88858  0.62401  1.0000
  H   H28       1.0  0.20345  0.88858  0.12401  1.0000
  H   H29       1.0  0.56701  0.88684  0.47238  1.0000
  H   H30       1.0  0.31984  0.88685  0.97238  1.0000
  H   H31       1.0  0.29351  0.44351  0.28978  1.0000
  H   H32       1.0  0.15001  0.44352  0.78977  1.0000
  H   H33       1.0  0.44831  0.48214  0.46310  1.0000
  H   H34       1.0  0.03383  0.48214  0.96310  1.0000
  H   H35       1.0  0.55080  0.18806  0.01701  1.0000
  H   H36       1.0  0.63726  0.18806  0.51701  1.0000
  H   H37       1.0  0.66370  0.34803  0.12988  1.0000
  H   H38       1.0  0.68433  0.34803  0.62988  1.0000
  C   C1        1.0  0.58030  0.99584  0.88914  1.0000
  C   C2        1.0  0.41555  0.99584  0.38915  1.0000
  C   C3        1.0  0.72171  0.11458  0.94845  1.0000
  C   C4        1.0  0.39287  0.11458  0.44845  1.0000
  C   C5        1.0  0.74855  0.24377  0.03408  1.0000
  C   C6        1.0  0.49522  0.24376  0.53408  1.0000
  C   C7        1.0  0.88430  0.34546  0.09237  1.0000
  C   C8        1.0  0.46116  0.34546  0.59237  1.0000
  C   C9        1.0  0.99074  0.32455  0.06588  1.0000
  C   C10       1.0  0.33381  0.32455  0.56587  1.0000
  C   C11       1.0  0.96452  0.19866  0.97997  1.0000
  C   C12       1.0  0.23414  0.19866  0.47996  1.0000
  C   C13       1.0  0.83131  0.09632  0.92324  1.0000
  C   C14       1.0  0.26501  0.09631  0.42323  1.0000
  C   C15       1.0  0.13496  0.44020  0.12573  1.0000
  C   C16       1.0  0.30525  0.44020  0.62572  1.0000
  C   C17       1.0  0.20231  0.66152  0.56762  1.0000
  C   C18       1.0  0.45921  0.66152  0.06762  1.0000
  C   C19       1.0  0.34512  0.89226  0.65895  1.0000
  C   C20       1.0  0.54714  0.89226  0.15895  1.0000
  C   C21       1.0  0.26923  0.87494  0.57474  1.0000
  C   C22       1.0  0.60570  0.87494  0.07474  1.0000
  C   C23       1.0  0.06728  0.66073  0.42830  1.0000
  C   C24       1.0  0.59345  0.66073  0.92830  1.0000
  C   C25       1.0  0.95600  0.68693  0.46536  1.0000
  C   C26       1.0  0.73094  0.68693  0.96536  1.0000
  C   C27       1.0  0.86033  0.60077  0.50643  1.0000
  C   C28       1.0  0.74044  0.60077  0.00643  1.0000
  C   C29       1.0  0.76411  0.63163  0.54771  1.0000
  C   C30       1.0  0.86752  0.63164  0.04771  1.0000
  C   C31       1.0  0.76112  0.74871  0.54866  1.0000
  C   C32       1.0  0.98759  0.74872  0.04865  1.0000
  C   C33       1.0  0.85647  0.83459  0.50726  1.0000
  C   C34       1.0  0.97811  0.83459  0.00726  1.0000
  C   C35       1.0  0.95291  0.80389  0.46604  1.0000
  C   C36       1.0  0.85098  0.80389  0.96604  1.0000
  C   C37       1.0  0.64936  0.77380  0.58592  1.0000
  C   C38       1.0  0.12444  0.77380  0.08592  1.0000
  C   C39       1.0  0.51344  0.77168  0.44664  1.0000
  C   C40       1.0  0.25824  0.77168  0.94664  1.0000
  C   C41       1.0  0.37246  0.54076  0.35457  1.0000
  C   C42       1.0  0.16830  0.54077  0.85457  1.0000
  C   C43       1.0  0.44851  0.55848  0.43893  1.0000
  C   C44       1.0  0.10997  0.55849  0.93892  1.0000
  N   N1        1.0  0.30234  0.75827  0.65356  1.0000
  N   N2        1.0  0.45594  0.75827  0.15356  1.0000
  N   N3        1.0  0.18004  0.72859  0.51770  1.0000
  N   N4        1.0  0.54855  0.72859  0.01770  1.0000
  N   N5        1.0  0.41407  0.67472  0.36037  1.0000
  N   N6        1.0  0.26065  0.67472  0.86037  1.0000
  N   N7        1.0  0.53646  0.70499  0.49643  1.0000
  N   N8        1.0  0.16853  0.70499  0.99643  1.0000
  N   N9        1.0  0.64744  0.27110  0.05856  1.0000
  N   N10       1.0  0.62366  0.27111  0.55856  1.0000
  O   O1        1.0  0.48017  0.01237  0.90369  1.0000
  O   O2        1.0  0.53221  0.01238  0.40369  1.0000
  O   O3        1.0  0.56634  0.87527  0.82444  1.0000
  O   O4        1.0  0.30893  0.87526  0.32444  1.0000
  O   O5        1.0  0.15065  0.56214  0.19044  1.0000
  O   O6        1.0  0.41148  0.56213  0.69043  1.0000
  O   O7        1.0  0.23010  0.41752  0.11051  1.0000
  O   O8        1.0  0.18741  0.41751  0.61050  1.0000
