data_image0
_chemical_formula_structural       Hg4H44C40N4Cl8O8
_chemical_formula_sum              "Hg4 H44 C40 N4 Cl8 O8"
_cell_length_a       7.11999
_cell_length_b       7.48625
_cell_length_c       25.964
_cell_angle_alpha    90
_cell_angle_beta     90
_cell_angle_gamma    118.263

_space_group_name_H-M_alt    "P 1"
_space_group_IT_number       1

loop_
  _space_group_symop_operation_xyz
  'x, y, z'

loop_
  _atom_site_type_symbol
  _atom_site_label
  _atom_site_symmetry_multiplicity
  _atom_site_fract_x
  _atom_site_fract_y
  _atom_site_fract_z
  _atom_site_occupancy
  Hg  Hg1       1.0  0.58432  0.29984  0.00462  1.0000
  Hg  Hg2       1.0  0.91567  0.20015  0.50462  1.0000
  Hg  Hg3       1.0  0.41566  0.70014  0.99538  1.0000
  Hg  Hg4       1.0  0.08433  0.79986  0.49538  1.0000
  H   H1        1.0  0.46991  0.14015  0.23174  1.0000
  H   H2        1.0  0.03009  0.35985  0.73174  1.0000
  H   H3        1.0  0.53009  0.85985  0.76826  1.0000
  H   H4        1.0  0.96992  0.64015  0.26826  1.0000
  H   H5        1.0  0.61090  0.71631  0.19750  1.0000
  H   H6        1.0  0.88909  0.78368  0.69751  1.0000
  H   H7        1.0  0.38910  0.28369  0.80249  1.0000
  H   H8        1.0  0.11091  0.21631  0.30249  1.0000
  H   H9        1.0  0.43218  0.65186  0.14332  1.0000
  H   H10       1.0  0.06781  0.84813  0.64332  1.0000
  H   H11       1.0  0.56782  0.34814  0.85668  1.0000
  H   H12       1.0  0.93219  0.15187  0.35668  1.0000
  H   H13       1.0  0.33312  0.55584  0.20552  1.0000
  H   H14       1.0  0.16687  0.94416  0.70552  1.0000
  H   H15       1.0  0.66688  0.44416  0.79448  1.0000
  H   H16       1.0  0.83313  0.05584  0.29448  1.0000
  H   H17       1.0  0.98806  0.14850  0.20587  1.0000
  H   H18       1.0  0.51195  0.35150  0.70587  1.0000
  H   H19       1.0  0.01193  0.85149  0.79413  1.0000
  H   H20       1.0  0.48807  0.64851  0.29413  1.0000
  H   H21       1.0  0.91952  0.96681  0.15499  1.0000
  H   H22       1.0  0.58048  0.53319  0.65499  1.0000
  H   H23       1.0  0.08047  0.03318  0.84501  1.0000
  H   H24       1.0  0.41954  0.46682  0.34501  1.0000
  H   H25       1.0  0.11215  0.22293  0.14434  1.0000
  H   H26       1.0  0.38785  0.27708  0.64434  1.0000
  H   H27       1.0  0.88785  0.77707  0.85566  1.0000
  H   H28       1.0  0.61216  0.72293  0.35566  1.0000
  H   H29       1.0  0.19639  0.98176  0.07561  1.0000
  H   H30       1.0  0.30360  0.51824  0.57561  1.0000
  H   H31       1.0  0.80360  0.01823  0.92439  1.0000
  H   H32       1.0  0.69640  0.48177  0.42439  1.0000
  H   H33       1.0  0.94628  0.73955  0.01097  1.0000
  H   H34       1.0  0.55371  0.76045  0.51097  1.0000
  H   H35       1.0  0.05371  0.26044  0.98903  1.0000
  H   H36       1.0  0.44628  0.23956  0.48903  1.0000
  H   H37       1.0  0.73398  0.26122  0.11480  1.0000
  H   H38       1.0  0.76602  0.23879  0.61480  1.0000
  H   H39       1.0  0.26600  0.73877  0.88521  1.0000
  H   H40       1.0  0.23398  0.76122  0.38520  1.0000
  H   H41       1.0  0.97434  0.48384  0.18375  1.0000
  H   H42       1.0  0.52566  0.01617  0.68375  1.0000
  H   H43       1.0  0.02565  0.51614  0.81625  1.0000
  H   H44       1.0  0.47434  0.98385  0.31625  1.0000
  C   C1        1.0  0.45305  0.68894  0.18458  1.0000
  C   C2        1.0  0.04694  0.81106  0.68458  1.0000
  C   C3        1.0  0.54695  0.31106  0.81542  1.0000
  C   C4        1.0  0.95306  0.18894  0.31542  1.0000
  C   C5        1.0  0.42305  0.86884  0.19710  1.0000
  C   C6        1.0  0.07695  0.63116  0.69710  1.0000
  C   C7        1.0  0.57695  0.13116  0.80290  1.0000
  C   C8        1.0  0.92305  0.36884  0.30290  1.0000
  C   C9        1.0  0.25283  0.89544  0.17475  1.0000
  C   C10       1.0  0.24718  0.60456  0.67476  1.0000
  C   C11       1.0  0.74718  0.10455  0.82525  1.0000
  C   C12       1.0  0.75282  0.39544  0.32524  1.0000
  C   C13       1.0  0.22569  0.06108  0.19043  1.0000
  C   C14       1.0  0.27431  0.43892  0.69043  1.0000
  C   C15       1.0  0.77430  0.93891  0.80957  1.0000
  C   C16       1.0  0.72570  0.56109  0.30957  1.0000
  C   C17       1.0  0.04937  0.09981  0.17304  1.0000
  C   C18       1.0  0.45063  0.40019  0.67304  1.0000
  C   C19       1.0  0.95062  0.90018  0.82696  1.0000
  C   C20       1.0  0.54938  0.59982  0.32696  1.0000
  C   C21       1.0  0.10885  0.75331  0.13556  1.0000
  C   C22       1.0  0.39116  0.74670  0.63556  1.0000
  C   C23       1.0  0.89115  0.24668  0.86444  1.0000
  C   C24       1.0  0.60885  0.25332  0.36444  1.0000
  C   C25       1.0  0.09847  0.82294  0.08599  1.0000
  C   C26       1.0  0.40153  0.67707  0.58599  1.0000
  C   C27       1.0  0.90153  0.17706  0.91401  1.0000
  C   C28       1.0  0.59847  0.32294  0.41401  1.0000
  C   C29       1.0  0.96031  0.69006  0.04962  1.0000
  C   C30       1.0  0.53969  0.80994  0.54962  1.0000
  C   C31       1.0  0.03969  0.30994  0.95038  1.0000
  C   C32       1.0  0.46031  0.19007  0.45038  1.0000
  C   C33       1.0  0.84064  0.42157  0.10786  1.0000
  C   C34       1.0  0.65935  0.07843  0.60786  1.0000
  C   C35       1.0  0.15935  0.57842  0.89214  1.0000
  C   C36       1.0  0.34065  0.92158  0.39214  1.0000
  C   C37       1.0  0.97571  0.54675  0.14586  1.0000
  C   C38       1.0  0.52429  0.95326  0.64586  1.0000
  C   C39       1.0  0.02428  0.45325  0.85414  1.0000
  C   C40       1.0  0.47571  0.04675  0.35414  1.0000
  N   N1        1.0  0.83416  0.49252  0.06054  1.0000
  N   N2        1.0  0.66585  0.00748  0.56054  1.0000
  N   N3        1.0  0.16584  0.50747  0.93946  1.0000
  N   N4        1.0  0.33415  0.99253  0.43946  1.0000
  Cl  Cl1       1.0  0.69052  0.61987  0.93779  1.0000
  Cl  Cl2       1.0  0.80946  0.88013  0.43779  1.0000
  Cl  Cl3       1.0  0.30946  0.38012  0.06221  1.0000
  Cl  Cl4       1.0  0.19054  0.11988  0.56221  1.0000
  Cl  Cl5       1.0  0.34679  0.04043  0.94683  1.0000
  Cl  Cl6       1.0  0.15321  0.45956  0.44683  1.0000
  Cl  Cl7       1.0  0.65320  0.95956  0.05317  1.0000
  Cl  Cl8       1.0  0.84679  0.54045  0.55317  1.0000
  O   O1        1.0  0.55262  0.00072  0.22880  1.0000
  O   O2        1.0  0.94739  0.49928  0.72880  1.0000
  O   O3        1.0  0.44738  0.99928  0.77120  1.0000
  O   O4        1.0  0.05262  0.50072  0.27120  1.0000
  O   O5        1.0  0.35880  0.19408  0.22373  1.0000
  O   O6        1.0  0.14120  0.30592  0.72374  1.0000
  O   O7        1.0  0.64119  0.80591  0.77626  1.0000
  O   O8        1.0  0.85882  0.69409  0.27626  1.0000
