data_image0
_chemical_formula_structural       Co2H8C8O12
_chemical_formula_sum              "Co2 H8 C8 O12"
_cell_length_a       4.94913
_cell_length_b       7.81332
_cell_length_c       7.81317
_cell_angle_alpha    71.813
_cell_angle_beta     71.5308
_cell_angle_gamma    71.5323

_space_group_name_H-M_alt    "P 1"
_space_group_IT_number       1

loop_
  _space_group_symop_operation_xyz
  'x, y, z'

loop_
  _atom_site_type_symbol
  _atom_site_label
  _atom_site_symmetry_multiplicity
  _atom_site_fract_x
  _atom_site_fract_y
  _atom_site_fract_z
  _atom_site_occupancy
  Co  Co1       1.0  0.28305  0.71706  0.71704  1.0000
  Co  Co2       1.0  0.71695  0.28296  0.28294  1.0000
  H   H1        1.0  0.00071  0.53511  0.22165  1.0000
  H   H2        1.0  0.24216  0.22168  0.53526  1.0000
  H   H3        1.0  0.99929  0.77835  0.46489  1.0000
  H   H4        1.0  0.75785  0.46474  0.77831  1.0000
  H   H5        1.0  0.75394  0.78916  0.06453  1.0000
  H   H6        1.0  0.39216  0.06459  0.78930  1.0000
  H   H7        1.0  0.24606  0.93546  0.21083  1.0000
  H   H8        1.0  0.60783  0.21072  0.93542  1.0000
  C   C1        1.0  0.45580  0.63643  0.07848  1.0000
  C   C2        1.0  0.82914  0.07848  0.63639  1.0000
  C   C3        1.0  0.54420  0.92155  0.36354  1.0000
  C   C4        1.0  0.17086  0.36359  0.92153  1.0000
  C   C5        1.0  0.61615  0.70256  0.17276  1.0000
  C   C6        1.0  0.50836  0.17277  0.70260  1.0000
  C   C7        1.0  0.38385  0.82724  0.29743  1.0000
  C   C8        1.0  0.49164  0.29741  0.82723  1.0000
  O   O1        1.0  0.36133  0.75154  0.94409  1.0000
  O   O2        1.0  0.94296  0.94414  0.75148  1.0000
  O   O3        1.0  0.63863  0.05591  0.24847  1.0000
  O   O4        1.0  0.05705  0.24853  0.05583  1.0000
  O   O5        1.0  0.41043  0.47275  0.14784  1.0000
  O   O6        1.0  0.96875  0.14790  0.47272  1.0000
  O   O7        1.0  0.58957  0.85217  0.52725  1.0000
  O   O8        1.0  0.03125  0.52729  0.85208  1.0000
  O   O9        1.0  0.78855  0.54691  0.27952  1.0000
  O   O10       1.0  0.38473  0.27953  0.54701  1.0000
  O   O11       1.0  0.21145  0.72049  0.45309  1.0000
  O   O12       1.0  0.61529  0.45299  0.72046  1.0000
