data_image0
_chemical_formula_structural       Cu8H12C12N4Cl8
_chemical_formula_sum              "Cu8 H12 C12 N4 Cl8"
_cell_length_a       6.87584
_cell_length_b       7.16642
_cell_length_c       11.997
_cell_angle_alpha    89.9998
_cell_angle_beta     90.0002
_cell_angle_gamma    89.9981

_space_group_name_H-M_alt    "P 1"
_space_group_IT_number       1

loop_
  _space_group_symop_operation_xyz
  'x, y, z'

loop_
  _atom_site_type_symbol
  _atom_site_label
  _atom_site_symmetry_multiplicity
  _atom_site_fract_x
  _atom_site_fract_y
  _atom_site_fract_z
  _atom_site_occupancy
  Cu  Cu1       1.0  0.93571  0.16195  0.26475  1.0000
  Cu  Cu2       1.0  0.56430  0.16196  0.76475  1.0000
  Cu  Cu3       1.0  0.43569  0.83804  0.26475  1.0000
  Cu  Cu4       1.0  0.06429  0.83805  0.76475  1.0000
  Cu  Cu5       1.0  0.27267  0.19387  0.50450  1.0000
  Cu  Cu6       1.0  0.22734  0.19388  0.00451  1.0000
  Cu  Cu7       1.0  0.77267  0.80611  0.50450  1.0000
  Cu  Cu8       1.0  0.72734  0.80613  0.00451  1.0000
  H   H1        1.0  0.23276  0.72934  0.09780  1.0000
  H   H2        1.0  0.26723  0.72934  0.59781  1.0000
  H   H3        1.0  0.73276  0.27064  0.09780  1.0000
  H   H4        1.0  0.76722  0.27068  0.59780  1.0000
  H   H5        1.0  0.39892  0.53990  0.14524  1.0000
  H   H6        1.0  0.10107  0.53990  0.64525  1.0000
  H   H7        1.0  0.89892  0.46009  0.14523  1.0000
  H   H8        1.0  0.60108  0.46011  0.64525  1.0000
  H   H9        1.0  0.07730  0.74197  0.28528  1.0000
  H   H10       1.0  0.42269  0.74197  0.78529  1.0000
  H   H11       1.0  0.57732  0.25803  0.28528  1.0000
  H   H12       1.0  0.92270  0.25803  0.78528  1.0000
  C   C1        1.0  0.29677  0.65055  0.16642  1.0000
  C   C2        1.0  0.20324  0.65056  0.66642  1.0000
  C   C3        1.0  0.79676  0.34942  0.16642  1.0000
  C   C4        1.0  0.70323  0.34946  0.66642  1.0000
  C   C5        1.0  0.20687  0.65652  0.27121  1.0000
  C   C6        1.0  0.29312  0.65653  0.77121  1.0000
  C   C7        1.0  0.70688  0.34346  0.27119  1.0000
  C   C8        1.0  0.79312  0.34347  0.77120  1.0000
  C   C9        1.0  0.25003  0.52616  0.35618  1.0000
  C   C10       1.0  0.24995  0.52620  0.85617  1.0000
  C   C11       1.0  0.75005  0.47381  0.35616  1.0000
  C   C12       1.0  0.74997  0.47383  0.85618  1.0000
  N   N1        1.0  0.28303  0.41637  0.42611  1.0000
  N   N2        1.0  0.21698  0.41637  0.92611  1.0000
  N   N3        1.0  0.78304  0.58363  0.42611  1.0000
  N   N4        1.0  0.71698  0.58363  0.92612  1.0000
  Cl  Cl1       1.0  0.97311  0.05471  0.44171  1.0000
  Cl  Cl2       1.0  0.52690  0.05470  0.94171  1.0000
  Cl  Cl3       1.0  0.47310  0.94529  0.44171  1.0000
  Cl  Cl4       1.0  0.02689  0.94530  0.94171  1.0000
  Cl  Cl5       1.0  0.26336  0.13070  0.69070  1.0000
  Cl  Cl6       1.0  0.23665  0.13069  0.19071  1.0000
  Cl  Cl7       1.0  0.76336  0.86931  0.69071  1.0000
  Cl  Cl8       1.0  0.73663  0.86929  0.19071  1.0000
