data_image0
_chemical_formula_structural       Cd4H32C48N8O16
_chemical_formula_sum              "Cd4 H32 C48 N8 O16"
_cell_length_a       10.082
_cell_length_b       10.2123
_cell_length_c       12.7326
_cell_angle_alpha    90
_cell_angle_beta     105.127
_cell_angle_gamma    90

_space_group_name_H-M_alt    "P 1"
_space_group_IT_number       1

loop_
  _space_group_symop_operation_xyz
  'x, y, z'

loop_
  _atom_site_type_symbol
  _atom_site_label
  _atom_site_symmetry_multiplicity
  _atom_site_fract_x
  _atom_site_fract_y
  _atom_site_fract_z
  _atom_site_occupancy
  Cd  Cd1       1.0  0.40282  0.13107  0.06109  1.0000
  Cd  Cd2       1.0  0.90282  0.36894  0.56109  1.0000
  Cd  Cd3       1.0  0.59718  0.86894  0.93891  1.0000
  Cd  Cd4       1.0  0.09718  0.63107  0.43891  1.0000
  H   H1        1.0  0.04526  0.14621  0.42221  1.0000
  H   H2        1.0  0.54526  0.35379  0.92221  1.0000
  H   H3        1.0  0.95474  0.85379  0.57779  1.0000
  H   H4        1.0  0.45474  0.64621  0.07779  1.0000
  H   H5        1.0  0.14690  0.29523  0.73543  1.0000
  H   H6        1.0  0.64690  0.20477  0.23543  1.0000
  H   H7        1.0  0.85311  0.70477  0.26457  1.0000
  H   H8        1.0  0.35311  0.79523  0.76457  1.0000
  H   H9        1.0  0.52895  0.19627  0.44907  1.0000
  H   H10       1.0  0.02895  0.30373  0.94907  1.0000
  H   H11       1.0  0.47105  0.80373  0.55093  1.0000
  H   H12       1.0  0.97105  0.69627  0.05093  1.0000
  H   H13       1.0  0.38239  0.97151  0.66492  1.0000
  H   H14       1.0  0.88239  0.52849  0.16492  1.0000
  H   H15       1.0  0.61761  0.02848  0.33508  1.0000
  H   H16       1.0  0.11761  0.47152  0.83508  1.0000
  H   H17       1.0  0.23508  0.98013  0.47014  1.0000
  H   H18       1.0  0.73508  0.51987  0.97014  1.0000
  H   H19       1.0  0.76492  0.01987  0.52986  1.0000
  H   H20       1.0  0.26492  0.48013  0.02986  1.0000
  H   H21       1.0  0.18861  0.43978  0.28581  1.0000
  H   H22       1.0  0.68861  0.06022  0.78581  1.0000
  H   H23       1.0  0.81139  0.56022  0.71419  1.0000
  H   H24       1.0  0.31139  0.93978  0.21419  1.0000
  H   H25       1.0  0.34870  0.48376  0.61881  1.0000
  H   H26       1.0  0.84870  0.01624  0.11881  1.0000
  H   H27       1.0  0.65130  0.51624  0.38119  1.0000
  H   H28       1.0  0.15130  0.98376  0.88119  1.0000
  H   H29       1.0  0.52665  0.30943  0.62353  1.0000
  H   H30       1.0  0.02665  0.19057  0.12353  1.0000
  H   H31       1.0  0.47335  0.69057  0.37647  1.0000
  H   H32       1.0  0.97335  0.80943  0.87647  1.0000
  C   C1        1.0  0.34190  0.13025  0.83366  1.0000
  C   C2        1.0  0.84190  0.36975  0.33366  1.0000
  C   C3        1.0  0.65810  0.86975  0.16634  1.0000
  C   C4        1.0  0.15810  0.63025  0.66634  1.0000
  C   C5        1.0  0.27351  0.13269  0.71417  1.0000
  C   C6        1.0  0.77351  0.36731  0.21417  1.0000
  C   C7        1.0  0.72649  0.86730  0.28583  1.0000
  C   C8        1.0  0.22649  0.63270  0.78583  1.0000
  C   C9        1.0  0.11421  0.14125  0.50388  1.0000
  C   C10       1.0  0.61422  0.35875  0.00388  1.0000
  C   C11       1.0  0.88579  0.85875  0.49612  1.0000
  C   C12       1.0  0.38579  0.64125  0.99612  1.0000
  C   C13       1.0  0.16923  0.22466  0.67839  1.0000
  C   C14       1.0  0.66924  0.27534  0.17839  1.0000
  C   C15       1.0  0.83076  0.77534  0.32161  1.0000
  C   C16       1.0  0.33077  0.72466  0.82161  1.0000
  C   C17       1.0  0.35604  0.24651  0.24747  1.0000
  C   C18       1.0  0.85604  0.25348  0.74746  1.0000
  C   C19       1.0  0.64396  0.75349  0.75253  1.0000
  C   C20       1.0  0.14396  0.74651  0.25253  1.0000
  C   C21       1.0  0.35797  0.30892  0.35463  1.0000
  C   C22       1.0  0.85797  0.19108  0.85463  1.0000
  C   C23       1.0  0.64203  0.69108  0.64537  1.0000
  C   C24       1.0  0.14203  0.80892  0.14537  1.0000
  C   C25       1.0  0.45371  0.27213  0.45097  1.0000
  C   C26       1.0  0.95371  0.22788  0.95097  1.0000
  C   C27       1.0  0.54629  0.72787  0.54903  1.0000
  C   C28       1.0  0.04629  0.77212  0.04903  1.0000
  C   C29       1.0  0.30029  0.04343  0.63894  1.0000
  C   C30       1.0  0.80030  0.45657  0.13894  1.0000
  C   C31       1.0  0.69971  0.95657  0.36106  1.0000
  C   C32       1.0  0.19971  0.54343  0.86106  1.0000
  C   C33       1.0  0.21952  0.04883  0.53154  1.0000
  C   C34       1.0  0.71952  0.45117  0.03154  1.0000
  C   C35       1.0  0.78048  0.95117  0.46846  1.0000
  C   C36       1.0  0.28048  0.54883  0.96846  1.0000
  C   C37       1.0  0.26386  0.40754  0.35936  1.0000
  C   C38       1.0  0.76387  0.09246  0.85936  1.0000
  C   C39       1.0  0.73614  0.59246  0.64064  1.0000
  C   C40       1.0  0.23613  0.90754  0.14064  1.0000
  C   C41       1.0  0.35401  0.43196  0.54519  1.0000
  C   C42       1.0  0.85401  0.06804  0.04519  1.0000
  C   C43       1.0  0.64599  0.56804  0.45481  1.0000
  C   C44       1.0  0.14599  0.93196  0.95481  1.0000
  C   C45       1.0  0.45203  0.33507  0.54771  1.0000
  C   C46       1.0  0.95203  0.16493  0.04771  1.0000
  C   C47       1.0  0.54797  0.66493  0.45229  1.0000
  C   C48       1.0  0.04797  0.83507  0.95229  1.0000
  N   N1        1.0  0.08986  0.22832  0.57619  1.0000
  N   N2        1.0  0.58986  0.27168  0.07619  1.0000
  N   N3        1.0  0.91014  0.77168  0.42381  1.0000
  N   N4        1.0  0.41014  0.72832  0.92382  1.0000
  N   N5        1.0  0.26163  0.46752  0.45275  1.0000
  N   N6        1.0  0.76163  0.03248  0.95275  1.0000
  N   N7        1.0  0.73837  0.53248  0.54725  1.0000
  N   N8        1.0  0.23837  0.96752  0.04725  1.0000
  O   O1        1.0  0.43034  0.14418  0.25055  1.0000
  O   O2        1.0  0.93034  0.35582  0.75055  1.0000
  O   O3        1.0  0.56966  0.85583  0.74945  1.0000
  O   O4        1.0  0.06966  0.64417  0.24945  1.0000
  O   O5        1.0  0.30485  0.21852  0.89136  1.0000
  O   O6        1.0  0.80485  0.28148  0.39136  1.0000
  O   O7        1.0  0.69515  0.78148  0.10864  1.0000
  O   O8        1.0  0.19515  0.71852  0.60864  1.0000
  O   O9        1.0  0.28466  0.29730  0.16000  1.0000
  O   O10       1.0  0.78466  0.20270  0.66000  1.0000
  O   O11       1.0  0.71534  0.70270  0.84000  1.0000
  O   O12       1.0  0.21534  0.79730  0.34000  1.0000
  O   O13       1.0  0.42572  0.03940  0.87387  1.0000
  O   O14       1.0  0.92572  0.46060  0.37387  1.0000
  O   O15       1.0  0.57428  0.96060  0.12613  1.0000
  O   O16       1.0  0.07428  0.53940  0.62613  1.0000
