data_image0
_chemical_formula_structural       Cd4H32C48N8O16
_chemical_formula_sum              "Cd4 H32 C48 N8 O16"
_cell_length_a       9.90662
_cell_length_b       10.6103
_cell_length_c       12.4198
_cell_angle_alpha    90
_cell_angle_beta     112.462
_cell_angle_gamma    90

_space_group_name_H-M_alt    "P 1"
_space_group_IT_number       1

loop_
  _space_group_symop_operation_xyz
  'x, y, z'

loop_
  _atom_site_type_symbol
  _atom_site_label
  _atom_site_symmetry_multiplicity
  _atom_site_fract_x
  _atom_site_fract_y
  _atom_site_fract_z
  _atom_site_occupancy
  Cd  Cd1       1.0  0.82198  0.89449  0.94203  1.0000
  Cd  Cd2       1.0  0.17802  0.39449  0.55797  1.0000
  Cd  Cd3       1.0  0.17802  0.10551  0.05797  1.0000
  Cd  Cd4       1.0  0.82198  0.60551  0.44203  1.0000
  H   H1        1.0  0.24158  0.55676  0.36401  1.0000
  H   H2        1.0  0.75842  0.05675  0.13598  1.0000
  H   H3        1.0  0.75842  0.44324  0.63598  1.0000
  H   H4        1.0  0.24158  0.94324  0.86401  1.0000
  H   H5        1.0  0.39707  0.73630  0.34553  1.0000
  H   H6        1.0  0.60295  0.23630  0.15447  1.0000
  H   H7        1.0  0.60294  0.26370  0.65447  1.0000
  H   H8        1.0  0.39706  0.76370  0.84553  1.0000
  H   H9        1.0  0.57599  0.83419  0.52757  1.0000
  H   H10       1.0  0.42402  0.33419  0.97243  1.0000
  H   H11       1.0  0.42402  0.16581  0.47243  1.0000
  H   H12       1.0  0.57598  0.66581  0.02757  1.0000
  H   H13       1.0  0.43466  0.56623  0.72422  1.0000
  H   H14       1.0  0.56533  0.06623  0.77578  1.0000
  H   H15       1.0  0.56533  0.43377  0.27578  1.0000
  H   H16       1.0  0.43467  0.93377  0.22422  1.0000
  H   H17       1.0  0.12934  0.81301  0.63469  1.0000
  H   H18       1.0  0.87066  0.31301  0.86531  1.0000
  H   H19       1.0  0.87066  0.18699  0.36532  1.0000
  H   H20       1.0  0.12934  0.68699  0.13469  1.0000
  H   H21       1.0  0.25267  0.99762  0.58305  1.0000
  H   H22       1.0  0.74733  0.49762  0.91695  1.0000
  H   H23       1.0  0.74733  0.00238  0.41695  1.0000
  H   H24       1.0  0.25267  0.50238  0.08305  1.0000
  H   H25       1.0  0.19344  0.04529  0.37074  1.0000
  H   H26       1.0  0.80656  0.54528  0.12926  1.0000
  H   H27       1.0  0.80656  0.95472  0.62926  1.0000
  H   H28       1.0  0.19344  0.45472  0.87074  1.0000
  H   H29       1.0  0.91299  0.72114  0.28648  1.0000
  H   H30       1.0  0.08701  0.22114  0.21352  1.0000
  H   H31       1.0  0.08701  0.27887  0.71352  1.0000
  H   H32       1.0  0.91299  0.77886  0.78648  1.0000
  C   C1        1.0  0.32071  0.60273  0.44055  1.0000
  C   C2        1.0  0.67930  0.10273  0.05945  1.0000
  C   C3        1.0  0.67930  0.39726  0.55945  1.0000
  C   C4        1.0  0.32070  0.89726  0.94055  1.0000
  C   C5        1.0  0.40682  0.70210  0.43077  1.0000
  C   C6        1.0  0.59319  0.20210  0.06923  1.0000
  C   C7        1.0  0.59318  0.29790  0.56923  1.0000
  C   C8        1.0  0.40682  0.79790  0.93077  1.0000
  C   C9        1.0  0.50643  0.75655  0.53187  1.0000
  C   C10       1.0  0.49358  0.25655  0.96813  1.0000
  C   C11       1.0  0.49358  0.24345  0.46813  1.0000
  C   C12       1.0  0.50642  0.74345  0.03186  1.0000
  C   C13       1.0  0.51817  0.70851  0.63996  1.0000
  C   C14       1.0  0.48183  0.20851  0.86005  1.0000
  C   C15       1.0  0.48183  0.29149  0.36005  1.0000
  C   C16       1.0  0.51817  0.79149  0.13995  1.0000
  C   C17       1.0  0.42839  0.60779  0.64204  1.0000
  C   C18       1.0  0.57161  0.10779  0.85796  1.0000
  C   C19       1.0  0.57161  0.39221  0.35796  1.0000
  C   C20       1.0  0.42839  0.89221  0.14204  1.0000
  C   C21       1.0  0.11029  0.83457  0.54402  1.0000
  C   C22       1.0  0.88971  0.33457  0.95598  1.0000
  C   C23       1.0  0.88971  0.16543  0.45599  1.0000
  C   C24       1.0  0.11029  0.66543  0.04402  1.0000
  C   C25       1.0  0.17823  0.93718  0.51508  1.0000
  C   C26       1.0  0.82176  0.43718  0.98491  1.0000
  C   C27       1.0  0.82177  0.06283  0.48492  1.0000
  C   C28       1.0  0.17823  0.56283  0.01509  1.0000
  C   C29       1.0  0.14480  0.96487  0.39754  1.0000
  C   C30       1.0  0.85520  0.46487  0.10246  1.0000
  C   C31       1.0  0.85520  0.03514  0.60246  1.0000
  C   C32       1.0  0.14480  0.53513  0.89754  1.0000
  C   C33       1.0  0.04481  0.88712  0.31392  1.0000
  C   C34       1.0  0.95519  0.38713  0.18608  1.0000
  C   C35       1.0  0.95519  0.11288  0.68608  1.0000
  C   C36       1.0  0.04481  0.61288  0.81392  1.0000
  C   C37       1.0  0.98811  0.78358  0.35155  1.0000
  C   C38       1.0  0.01189  0.28358  0.14845  1.0000
  C   C39       1.0  0.01189  0.21642  0.64845  1.0000
  C   C40       1.0  0.98811  0.71642  0.85155  1.0000
  C   C41       1.0  0.98272  0.90871  0.18532  1.0000
  C   C42       1.0  0.01728  0.40871  0.31468  1.0000
  C   C43       1.0  0.01728  0.09129  0.81469  1.0000
  C   C44       1.0  0.98272  0.59129  0.68532  1.0000
  C   C45       1.0  0.62304  0.76387  0.75162  1.0000
  C   C46       1.0  0.37696  0.26387  0.74838  1.0000
  C   C47       1.0  0.37696  0.23613  0.24838  1.0000
  C   C48       1.0  0.62304  0.73613  0.25162  1.0000
  N   N1        1.0  0.33068  0.55674  0.54433  1.0000
  N   N2        1.0  0.66933  0.05674  0.95567  1.0000
  N   N3        1.0  0.66933  0.44325  0.45567  1.0000
  N   N4        1.0  0.33067  0.94325  0.04433  1.0000
  N   N5        1.0  0.01751  0.75737  0.46338  1.0000
  N   N6        1.0  0.98248  0.25738  0.03661  1.0000
  N   N7        1.0  0.98249  0.24263  0.53662  1.0000
  N   N8        1.0  0.01751  0.74262  0.96339  1.0000
  O   O1        1.0  0.67425  0.87349  0.74564  1.0000
  O   O2        1.0  0.32575  0.37349  0.75436  1.0000
  O   O3        1.0  0.32575  0.12651  0.25436  1.0000
  O   O4        1.0  0.67425  0.62651  0.24564  1.0000
  O   O5        1.0  0.86924  0.84290  0.12866  1.0000
  O   O6        1.0  0.13077  0.34291  0.37134  1.0000
  O   O7        1.0  0.13077  0.15709  0.87134  1.0000
  O   O8        1.0  0.86923  0.65709  0.62866  1.0000
  O   O9        1.0  0.65572  0.70256  0.84570  1.0000
  O   O10       1.0  0.34427  0.20255  0.65430  1.0000
  O   O11       1.0  0.34427  0.29744  0.15430  1.0000
  O   O12       1.0  0.65573  0.79745  0.34570  1.0000
  O   O13       1.0  0.03656  0.98941  0.13818  1.0000
  O   O14       1.0  0.96344  0.48941  0.36182  1.0000
  O   O15       1.0  0.96343  0.01059  0.86182  1.0000
  O   O16       1.0  0.03657  0.51060  0.63818  1.0000
