data_image0
_chemical_formula_structural       Na4H20C20N8O20
_chemical_formula_sum              "Na4 H20 C20 N8 O20"
_cell_length_a       3.56172
_cell_length_b       10.5928
_cell_length_c       17.8821
_cell_angle_alpha    90.0001
_cell_angle_beta     90.0006
_cell_angle_gamma    91.5588

_space_group_name_H-M_alt    "P 1"
_space_group_IT_number       1

loop_
  _space_group_symop_operation_xyz
  'x, y, z'

loop_
  _atom_site_type_symbol
  _atom_site_label
  _atom_site_symmetry_multiplicity
  _atom_site_fract_x
  _atom_site_fract_y
  _atom_site_fract_z
  _atom_site_occupancy
  Na  Na1       1.0  0.29047  0.13223  0.53265  1.0000
  Na  Na2       1.0  0.20951  0.36777  0.03265  1.0000
  Na  Na3       1.0  0.70953  0.86777  0.46735  1.0000
  Na  Na4       1.0  0.79048  0.63223  0.96735  1.0000
  H   H1        1.0  0.09418  0.48982  0.24021  1.0000
  H   H2        1.0  0.40586  0.01019  0.74020  1.0000
  H   H3        1.0  0.90583  0.51018  0.75979  1.0000
  H   H4        1.0  0.59414  0.98982  0.25980  1.0000
  H   H5        1.0  0.61531  0.55502  0.44481  1.0000
  H   H6        1.0  0.88465  0.94499  0.94481  1.0000
  H   H7        1.0  0.38468  0.44499  0.55519  1.0000
  H   H8        1.0  0.11532  0.05501  0.05518  1.0000
  H   H9        1.0  0.05019  0.26495  0.25834  1.0000
  H   H10       1.0  0.44986  0.23506  0.75833  1.0000
  H   H11       1.0  0.94981  0.73506  0.74166  1.0000
  H   H12       1.0  0.55018  0.76495  0.24166  1.0000
  H   H13       1.0  0.87889  0.21302  0.64466  1.0000
  H   H14       1.0  0.62111  0.28697  0.14466  1.0000
  H   H15       1.0  0.12111  0.78697  0.35534  1.0000
  H   H16       1.0  0.37889  0.71303  0.85534  1.0000
  H   H17       1.0  0.89563  0.06309  0.64526  1.0000
  H   H18       1.0  0.60438  0.43690  0.14527  1.0000
  H   H19       1.0  0.10436  0.93691  0.35474  1.0000
  H   H20       1.0  0.39564  0.56310  0.85474  1.0000
  C   C1        1.0  0.84690  0.54052  0.33937  1.0000
  C   C2        1.0  0.65310  0.95948  0.83937  1.0000
  C   C3        1.0  0.15308  0.45948  0.66063  1.0000
  C   C4        1.0  0.34688  0.04052  0.16063  1.0000
  C   C5        1.0  0.66074  0.36286  0.42292  1.0000
  C   C6        1.0  0.83927  0.13715  0.92292  1.0000
  C   C7        1.0  0.33926  0.63715  0.57709  1.0000
  C   C8        1.0  0.16074  0.86285  0.07708  1.0000
  C   C9        1.0  0.79533  0.27614  0.36674  1.0000
  C   C10       1.0  0.70468  0.22386  0.86674  1.0000
  C   C11       1.0  0.20466  0.72385  0.63326  1.0000
  C   C12       1.0  0.29533  0.77614  0.13326  1.0000
  C   C13       1.0  0.94272  0.32666  0.30182  1.0000
  C   C14       1.0  0.55732  0.17335  0.80181  1.0000
  C   C15       1.0  0.05729  0.67334  0.69818  1.0000
  C   C16       1.0  0.44271  0.82666  0.19818  1.0000
  C   C17       1.0  0.81091  0.13584  0.37830  1.0000
  C   C18       1.0  0.68910  0.36417  0.87830  1.0000
  C   C19       1.0  0.18906  0.86418  0.62170  1.0000
  C   C20       1.0  0.31092  0.63583  0.12170  1.0000
  N   N1        1.0  0.96848  0.45245  0.28859  1.0000
  N   N2        1.0  0.53154  0.04756  0.78859  1.0000
  N   N3        1.0  0.03152  0.54756  0.71141  1.0000
  N   N4        1.0  0.46847  0.95244  0.21141  1.0000
  N   N5        1.0  0.70209  0.49043  0.40466  1.0000
  N   N6        1.0  0.79789  0.00957  0.90466  1.0000
  N   N7        1.0  0.29791  0.50957  0.59534  1.0000
  N   N8        1.0  0.20209  0.99043  0.09534  1.0000
  O   O1        1.0  0.86447  0.65544  0.32700  1.0000
  O   O2        1.0  0.63550  0.84457  0.82700  1.0000
  O   O3        1.0  0.13552  0.34456  0.67300  1.0000
  O   O4        1.0  0.36448  0.15543  0.17300  1.0000
  O   O5        1.0  0.50744  0.33528  0.48417  1.0000
  O   O6        1.0  0.99258  0.16473  0.98417  1.0000
  O   O7        1.0  0.49256  0.66472  0.51582  1.0000
  O   O8        1.0  0.00744  0.83527  0.01583  1.0000
  O   O9        1.0  0.76218  0.09283  0.44387  1.0000
  O   O10       1.0  0.73783  0.40717  0.94387  1.0000
  O   O11       1.0  0.23782  0.90717  0.55614  1.0000
  O   O12       1.0  0.26216  0.59282  0.05613  1.0000
  O   O13       1.0  0.89241  0.06892  0.32141  1.0000
  O   O14       1.0  0.60761  0.43110  0.82140  1.0000
  O   O15       1.0  0.10757  0.93108  0.67859  1.0000
  O   O16       1.0  0.39242  0.56891  0.17860  1.0000
  O   O17       1.0  0.77078  0.13619  0.62137  1.0000
  O   O18       1.0  0.72922  0.36381  0.12138  1.0000
  O   O19       1.0  0.22922  0.86382  0.37862  1.0000
  O   O20       1.0  0.27079  0.63618  0.87862  1.0000
