data_image0
_chemical_formula_structural       RbH7C10N4O8
_chemical_formula_sum              "Rb1 H7 C10 N4 O8"
_cell_length_a       5.0966
_cell_length_b       8.12609
_cell_length_c       9.71454
_cell_angle_alpha    111.406
_cell_angle_beta     101.131
_cell_angle_gamma    92.5229

_space_group_name_H-M_alt    "P 1"
_space_group_IT_number       1

loop_
  _space_group_symop_operation_xyz
  'x, y, z'

loop_
  _atom_site_type_symbol
  _atom_site_label
  _atom_site_symmetry_multiplicity
  _atom_site_fract_x
  _atom_site_fract_y
  _atom_site_fract_z
  _atom_site_occupancy
  Rb  Rb1       1.0  0.00000  0.00000  0.00000  1.0000
  H   H1        1.0  1.00000  0.50000  0.50000  1.0000
  H   H2        1.0  0.84647  0.39919  0.02500  1.0000
  H   H3        1.0  0.15354  0.60081  0.97500  1.0000
  H   H4        1.0  0.76806  0.88574  0.32694  1.0000
  H   H5        1.0  0.23194  0.11426  0.67307  1.0000
  H   H6        1.0  0.45449  0.76279  0.42707  1.0000
  H   H7        1.0  0.54551  0.23721  0.57293  1.0000
  C   C1        1.0  0.25760  0.42380  0.34496  1.0000
  C   C2        1.0  0.74240  0.57619  0.65503  1.0000
  C   C3        1.0  0.45959  0.49469  0.27934  1.0000
  C   C4        1.0  0.54041  0.50531  0.72066  1.0000
  C   C5        1.0  0.57785  0.38204  0.15830  1.0000
  C   C6        1.0  0.42215  0.61796  0.84170  1.0000
  C   C7        1.0  0.53686  0.67435  0.33604  1.0000
  C   C8        1.0  0.46314  0.32565  0.66396  1.0000
  C   C9        1.0  0.84403  0.65414  0.17282  1.0000
  C   C10       1.0  0.15597  0.34586  0.82718  1.0000
  N   N1        1.0  0.76389  0.47554  0.11416  1.0000
  N   N2        1.0  0.23611  0.52447  0.88584  1.0000
  N   N3        1.0  0.71909  0.75137  0.28504  1.0000
  N   N4        1.0  0.28091  0.24863  0.71496  1.0000
  O   O1        1.0  0.20032  0.26119  0.31064  1.0000
  O   O2        1.0  0.79968  0.73881  0.68936  1.0000
  O   O3        1.0  0.15439  0.55032  0.43836  1.0000
  O   O4        1.0  0.84561  0.44968  0.56164  1.0000
  O   O5        1.0  0.53062  0.21856  0.08916  1.0000
  O   O6        1.0  0.46939  0.78144  0.91084  1.0000
  O   O7        1.0  0.01363  0.72703  0.12938  1.0000
  O   O8        1.0  0.98637  0.27297  0.87062  1.0000
