data_image0
_chemical_formula_structural       Na4Zn2H20C12S4N4O20
_chemical_formula_sum              "Na4 Zn2 H20 C12 S4 N4 O20"
_cell_length_a       6.17876
_cell_length_b       8.54524
_cell_length_c       13.135
_cell_angle_alpha    97.3744
_cell_angle_beta     90.0001
_cell_angle_gamma    90.0001

_space_group_name_H-M_alt    "P 1"
_space_group_IT_number       1

loop_
  _space_group_symop_operation_xyz
  'x, y, z'

loop_
  _atom_site_type_symbol
  _atom_site_label
  _atom_site_symmetry_multiplicity
  _atom_site_fract_x
  _atom_site_fract_y
  _atom_site_fract_z
  _atom_site_occupancy
  Na  Na1       1.0  0.38544  0.69132  0.03893  1.0000
  Na  Na2       1.0  0.88544  0.80869  0.96107  1.0000
  Na  Na3       1.0  0.61455  0.30868  0.96107  1.0000
  Na  Na4       1.0  0.11456  0.19132  0.03893  1.0000
  Zn  Zn1       1.0  1.00000  0.50000  0.50000  1.0000
  Zn  Zn2       1.0  0.50000  1.00000  0.50000  1.0000
  H   H1        1.0  0.27008  0.60297  0.38227  1.0000
  H   H2        1.0  0.77008  0.89703  0.61773  1.0000
  H   H3        1.0  0.72992  0.39703  0.61773  1.0000
  H   H4        1.0  0.22992  0.10297  0.38227  1.0000
  H   H5        1.0  0.12586  0.47944  0.29753  1.0000
  H   H6        1.0  0.62586  0.02056  0.70247  1.0000
  H   H7        1.0  0.87414  0.52056  0.70247  1.0000
  H   H8        1.0  0.37414  0.97944  0.29753  1.0000
  H   H9        1.0  0.70490  0.75389  0.25096  1.0000
  H   H10       1.0  0.20490  0.74610  0.74904  1.0000
  H   H11       1.0  0.29510  0.24610  0.74904  1.0000
  H   H12       1.0  0.79510  0.25390  0.25096  1.0000
  H   H13       1.0  0.70455  0.56029  0.29179  1.0000
  H   H14       1.0  0.20455  0.93970  0.70821  1.0000
  H   H15       1.0  0.29545  0.43971  0.70822  1.0000
  H   H16       1.0  0.79545  0.06029  0.29178  1.0000
  H   H17       1.0  0.09485  0.78320  0.29838  1.0000
  H   H18       1.0  0.59486  0.71680  0.70162  1.0000
  H   H19       1.0  0.90515  0.21680  0.70162  1.0000
  H   H20       1.0  0.40514  0.28320  0.29838  1.0000
  C   C1        1.0  0.80390  0.65081  0.26175  1.0000
  C   C2        1.0  0.30390  0.84918  0.73826  1.0000
  C   C3        1.0  0.19609  0.34919  0.73826  1.0000
  C   C4        1.0  0.69609  0.15081  0.26174  1.0000
  C   C5        1.0  0.99192  0.70065  0.33453  1.0000
  C   C6        1.0  0.49192  0.79936  0.66547  1.0000
  C   C7        1.0  0.00808  0.29936  0.66547  1.0000
  C   C8        1.0  0.50808  0.20064  0.33453  1.0000
  C   C9        1.0  0.89539  0.79561  0.43209  1.0000
  C   C10       1.0  0.39539  0.70441  0.56791  1.0000
  C   C11       1.0  0.10462  0.20439  0.56792  1.0000
  C   C12       1.0  0.60463  0.29560  0.43208  1.0000
  S   S1        1.0  0.89040  0.57030  0.13640  1.0000
  S   S2        1.0  0.39040  0.92971  0.86360  1.0000
  S   S3        1.0  0.10960  0.42970  0.86360  1.0000
  S   S4        1.0  0.60960  0.07029  0.13640  1.0000
  N   N1        1.0  0.11748  0.56440  0.35992  1.0000
  N   N2        1.0  0.61748  0.93560  0.64008  1.0000
  N   N3        1.0  0.88252  0.43560  0.64008  1.0000
  N   N4        1.0  0.38252  0.06440  0.35992  1.0000
  O   O1        1.0  0.69201  0.54809  0.07322  1.0000
  O   O2        1.0  0.19201  0.95191  0.92678  1.0000
  O   O3        1.0  0.30798  0.45191  0.92678  1.0000
  O   O4        1.0  0.80799  0.04809  0.07322  1.0000
  O   O5        1.0  0.03597  0.68872  0.10000  1.0000
  O   O6        1.0  0.53597  0.81128  0.90001  1.0000
  O   O7        1.0  0.96402  0.31129  0.90001  1.0000
  O   O8        1.0  0.46402  0.18872  0.10000  1.0000
  O   O9        1.0  0.00053  0.42008  0.14692  1.0000
  O   O10       1.0  0.50052  0.07992  0.85308  1.0000
  O   O11       1.0  0.99947  0.57992  0.85308  1.0000
  O   O12       1.0  0.49947  0.92009  0.14692  1.0000
  O   O13       1.0  0.90289  0.73646  0.51609  1.0000
  O   O14       1.0  0.40289  0.76353  0.48391  1.0000
  O   O15       1.0  0.09712  0.26354  0.48390  1.0000
  O   O16       1.0  0.59711  0.23646  0.51609  1.0000
  O   O17       1.0  0.80999  0.92615  0.41993  1.0000
  O   O18       1.0  0.30997  0.57385  0.58008  1.0000
  O   O19       1.0  0.19001  0.07386  0.58007  1.0000
  O   O20       1.0  0.69003  0.42614  0.41992  1.0000
