data_image0
_chemical_formula_structural       CsH11C10N4O10
_chemical_formula_sum              "Cs1 H11 C10 N4 O10"
_cell_length_a       5.07801
_cell_length_b       8.10467
_cell_length_c       9.06612
_cell_angle_alpha    79.0588
_cell_angle_beta     85.8521
_cell_angle_gamma    88.9803

_space_group_name_H-M_alt    "P 1"
_space_group_IT_number       1

loop_
  _space_group_symop_operation_xyz
  'x, y, z'

loop_
  _atom_site_type_symbol
  _atom_site_label
  _atom_site_symmetry_multiplicity
  _atom_site_fract_x
  _atom_site_fract_y
  _atom_site_fract_z
  _atom_site_occupancy
  Cs  Cs1       1.0  0.50000  0.00000  0.50000  1.0000
  H   H1        1.0  0.49997  0.50001  0.50000  1.0000
  H   H2        1.0  0.04633  0.28807  0.46341  1.0000
  H   H3        1.0  0.95366  0.71193  0.53659  1.0000
  H   H4        1.0  0.24593  0.36723  0.32458  1.0000
  H   H5        1.0  0.75406  0.63277  0.67542  1.0000
  H   H6        1.0  0.98554  0.25864  0.20247  1.0000
  H   H7        1.0  0.01445  0.74135  0.79755  1.0000
  H   H8        1.0  0.63095  0.06247  0.87824  1.0000
  H   H9        1.0  0.36906  0.93753  0.12176  1.0000
  H   H10       1.0  0.29480  0.40357  0.02310  1.0000
  H   H11       1.0  0.70518  0.59642  0.97690  1.0000
  C   C1        1.0  0.35016  0.42282  0.72631  1.0000
  C   C2        1.0  0.64984  0.57719  0.27369  1.0000
  C   C3        1.0  0.14664  0.32390  0.83183  1.0000
  C   C4        1.0  0.85337  0.67610  0.16816  1.0000
  C   C5        1.0  0.14719  0.33052  0.98202  1.0000
  C   C6        1.0  0.85281  0.66948  0.01799  1.0000
  C   C7        1.0  0.94718  0.22087  0.78578  1.0000
  C   C8        1.0  0.05282  0.77913  0.21421  1.0000
  C   C9        1.0  0.77467  0.15119  0.05342  1.0000
  C   C10       1.0  0.22535  0.84880  0.94659  1.0000
  N   N1        1.0  0.96941  0.24964  0.08821  1.0000
  N   N2        1.0  0.03060  0.75034  0.91178  1.0000
  N   N3        1.0  0.77542  0.14001  0.90460  1.0000
  N   N4        1.0  0.22460  0.85998  0.09538  1.0000
  O   O1        1.0  0.35248  0.40637  0.58712  1.0000
  O   O2        1.0  0.64751  0.59365  0.41289  1.0000
  O   O3        1.0  0.50594  0.51384  0.77716  1.0000
  O   O4        1.0  0.49408  0.48616  0.22285  1.0000
  O   O5        1.0  0.91494  0.19494  0.65739  1.0000
  O   O6        1.0  0.08504  0.80508  0.34261  1.0000
  O   O7        1.0  0.61170  0.07573  0.15181  1.0000
  O   O8        1.0  0.38833  0.92426  0.84818  1.0000
  O   O9        1.0  0.10048  0.28412  0.35741  1.0000
  O   O10       1.0  0.89951  0.71589  0.64259  1.0000
