data_image0
_chemical_formula_structural       Cu4H28C34N20O8
_chemical_formula_sum              "Cu4 H28 C34 N20 O8"
_cell_length_a       9.32536
_cell_length_b       9.26404
_cell_length_c       13.904
_cell_angle_alpha    101.966
_cell_angle_beta     109.593
_cell_angle_gamma    89.9841

_space_group_name_H-M_alt    "P 1"
_space_group_IT_number       1

loop_
  _space_group_symop_operation_xyz
  'x, y, z'

loop_
  _atom_site_type_symbol
  _atom_site_label
  _atom_site_symmetry_multiplicity
  _atom_site_fract_x
  _atom_site_fract_y
  _atom_site_fract_z
  _atom_site_occupancy
  Cu  Cu1       1.0  0.36695  0.06399  0.37298  1.0000
  Cu  Cu2       1.0  0.99407  0.43635  0.62707  1.0000
  Cu  Cu3       1.0  0.63317  0.93635  0.62686  1.0000
  Cu  Cu4       1.0  0.00590  0.56376  0.37309  1.0000
  H   H1        1.0  0.26334  0.80116  0.20252  1.0000
  H   H2        1.0  0.06075  0.69950  0.79751  1.0000
  H   H3        1.0  0.73673  0.19972  0.79777  1.0000
  H   H4        1.0  0.93921  0.30078  0.20245  1.0000
  H   H5        1.0  0.36713  0.63988  0.07889  1.0000
  H   H6        1.0  0.28806  0.86089  0.92115  1.0000
  H   H7        1.0  0.63244  0.36084  0.92114  1.0000
  H   H8        1.0  0.71194  0.13948  0.07868  1.0000
  H   H9        1.0  0.78412  0.92458  0.21806  1.0000
  H   H10       1.0  0.56632  0.57538  0.78276  1.0000
  H   H11       1.0  0.21625  0.07499  0.78228  1.0000
  H   H12       1.0  0.43360  0.42423  0.21743  1.0000
  H   H13       1.0  0.66423  0.07334  0.33711  1.0000
  H   H14       1.0  0.32754  0.42633  0.66384  1.0000
  H   H15       1.0  0.33667  0.92624  0.66360  1.0000
  H   H16       1.0  0.67238  0.57305  0.33671  1.0000
  H   H17       1.0  0.57187  0.57934  0.01716  1.0000
  H   H18       1.0  0.55506  0.92108  0.98305  1.0000
  H   H19       1.0  0.42763  0.42086  0.98295  1.0000
  H   H20       1.0  0.44511  0.07904  0.01679  1.0000
  H   H21       1.0  0.75344  0.62067  0.11762  1.0000
  H   H22       1.0  0.63587  0.87914  0.88247  1.0000
  H   H23       1.0  0.24613  0.37913  0.88245  1.0000
  H   H24       1.0  0.36433  0.12037  0.11743  1.0000
  H   H25       1.0  0.80967  0.83068  0.05060  1.0000
  H   H26       1.0  0.75948  0.66960  0.94980  1.0000
  H   H27       1.0  0.19025  0.16916  0.94958  1.0000
  H   H28       1.0  0.24048  0.33015  0.05046  1.0000
  C   C1        1.0  0.05116  0.81408  0.29546  1.0000
  C   C2        1.0  0.75574  0.68522  0.70402  1.0000
  C   C3        1.0  0.94851  0.18523  0.70406  1.0000
  C   C4        1.0  0.24343  0.31417  0.29503  1.0000
  C   C5        1.0  0.19245  0.80507  0.38443  1.0000
  C   C6        1.0  0.80829  0.69498  0.61530  1.0000
  C   C7        1.0  0.80743  0.19497  0.61524  1.0000
  C   C8        1.0  0.19169  0.30521  0.38429  1.0000
  C   C9        1.0  0.37930  0.82274  0.20464  1.0000
  C   C10       1.0  0.17467  0.67767  0.79565  1.0000
  C   C11       1.0  0.62085  0.17775  0.79567  1.0000
  C   C12       1.0  0.82531  0.32236  0.20447  1.0000
  C   C13       1.0  0.43815  0.73451  0.13519  1.0000
  C   C14       1.0  0.30290  0.76594  0.86512  1.0000
  C   C15       1.0  0.56173  0.26591  0.86501  1.0000
  C   C16       1.0  0.69713  0.23415  0.13492  1.0000
  C   C17       1.0  0.58678  0.76668  0.13851  1.0000
  C   C18       1.0  0.44827  0.73359  0.86194  1.0000
  C   C19       1.0  0.41318  0.23345  0.86170  1.0000
  C   C20       1.0  0.55174  0.26634  0.13815  1.0000
  C   C21       1.0  0.66835  0.89259  0.21187  1.0000
  C   C22       1.0  0.45663  0.60743  0.78883  1.0000
  C   C23       1.0  0.33196  0.10726  0.78846  1.0000
  C   C24       1.0  0.54330  0.39230  0.21140  1.0000
  C   C25       1.0  0.60287  0.97548  0.27927  1.0000
  C   C26       1.0  0.32385  0.52442  0.72147  1.0000
  C   C27       1.0  0.39773  0.02442  0.72123  1.0000
  C   C28       1.0  0.67606  0.47515  0.27891  1.0000
  C   C29       1.0  0.65658  0.66969  0.06790  1.0000
  C   C30       1.0  0.58877  0.83047  0.93235  1.0000
  C   C31       1.0  0.34314  0.33033  0.93221  1.0000
  C   C32       1.0  0.41130  0.16941  0.06764  1.0000
  C   C33       1.0  0.71378  0.75011  0.00015  1.0000
  C   C34       1.0  0.28613  0.24978  0.99999  1.0000
  N   N1        1.0  0.20006  0.69523  0.43467  1.0000
  N   N2        1.0  0.76549  0.80495  0.56516  1.0000
  N   N3        1.0  0.80021  0.30497  0.56519  1.0000
  N   N4        1.0  0.23515  0.19570  0.43475  1.0000
  N   N5        1.0  0.33750  0.71064  0.50952  1.0000
  N   N6        1.0  0.82815  0.78982  0.49042  1.0000
  N   N7        1.0  0.66282  0.29006  0.49045  1.0000
  N   N8        1.0  0.17309  0.21112  0.50988  1.0000
  N   N9        1.0  0.41205  0.82862  0.50429  1.0000
  N   N10       1.0  0.90827  0.67187  0.49565  1.0000
  N   N11       1.0  0.58779  0.17219  0.49561  1.0000
  N   N12       1.0  0.09284  0.32881  0.50463  1.0000
  N   N13       1.0  0.32347  0.88954  0.42652  1.0000
  N   N14       1.0  0.89749  0.61081  0.57322  1.0000
  N   N15       1.0  0.67606  0.11094  0.57313  1.0000
  N   N16       1.0  0.10282  0.38951  0.42658  1.0000
  N   N17       1.0  0.46124  0.94057  0.27674  1.0000
  N   N18       1.0  0.18464  0.55955  0.72375  1.0000
  N   N19       1.0  0.53926  0.05965  0.72368  1.0000
  N   N20       1.0  0.81526  0.44020  0.27653  1.0000
  O   O1        1.0  0.04203  0.91138  0.24429  1.0000
  O   O2        1.0  0.79737  0.58733  0.75470  1.0000
  O   O3        1.0  0.95758  0.08718  0.75460  1.0000
  O   O4        1.0  0.20141  0.41166  0.24403  1.0000
  O   O5        1.0  0.94697  0.71111  0.27994  1.0000
  O   O6        1.0  0.66731  0.78826  0.71994  1.0000
  O   O7        1.0  0.05275  0.28843  0.72022  1.0000
  O   O8        1.0  0.33168  0.21091  0.27919  1.0000
