data_image0
_chemical_formula_structural       Cu4H28C36N20O12
_chemical_formula_sum              "Cu4 H28 C36 N20 O12"
_cell_length_a       9.16995
_cell_length_b       9.49715
_cell_length_c       13.679
_cell_angle_alpha    110.335
_cell_angle_beta     101.775
_cell_angle_gamma    89.9768

_space_group_name_H-M_alt    "P 1"
_space_group_IT_number       1

loop_
  _space_group_symop_operation_xyz
  'x, y, z'

loop_
  _atom_site_type_symbol
  _atom_site_label
  _atom_site_symmetry_multiplicity
  _atom_site_fract_x
  _atom_site_fract_y
  _atom_site_fract_z
  _atom_site_occupancy
  Cu  Cu1       1.0  0.93438  0.63276  0.62816  1.0000
  Cu  Cu2       1.0  0.56580  0.00455  0.37189  1.0000
  Cu  Cu3       1.0  0.06557  0.36716  0.37179  1.0000
  Cu  Cu4       1.0  0.43421  0.99545  0.62817  1.0000
  H   H1        1.0  0.19434  0.73145  0.80325  1.0000
  H   H2        1.0  0.30635  0.92829  0.19669  1.0000
  H   H3        1.0  0.80560  0.26850  0.19668  1.0000
  H   H4        1.0  0.69357  0.07173  0.80336  1.0000
  H   H5        1.0  0.35822  0.62727  0.92475  1.0000
  H   H6        1.0  0.14222  0.70269  0.07518  1.0000
  H   H7        1.0  0.64173  0.37274  0.07521  1.0000
  H   H8        1.0  0.85774  0.29731  0.92486  1.0000
  H   H9        1.0  0.07460  0.21332  0.77631  1.0000
  H   H10       1.0  0.42522  0.43695  0.22385  1.0000
  H   H11       1.0  0.92538  0.78667  0.22370  1.0000
  H   H12       1.0  0.57482  0.56306  0.77614  1.0000
  H   H13       1.0  0.92348  0.33266  0.65818  1.0000
  H   H14       1.0  0.57644  0.67431  0.34204  1.0000
  H   H15       1.0  0.07649  0.66728  0.34180  1.0000
  H   H16       1.0  0.42357  0.32572  0.65797  1.0000
  H   H17       1.0  0.42300  0.42511  0.98280  1.0000
  H   H18       1.0  0.07710  0.44250  0.01724  1.0000
  H   H19       1.0  0.57699  0.57494  0.01717  1.0000
  H   H20       1.0  0.92292  0.55750  0.98277  1.0000
  H   H21       1.0  0.38102  0.24507  0.88029  1.0000
  H   H22       1.0  0.11908  0.36497  0.11971  1.0000
  H   H23       1.0  0.61899  0.75496  0.11969  1.0000
  H   H24       1.0  0.88097  0.63503  0.88030  1.0000
  H   H25       1.0  0.16939  0.19144  0.94778  1.0000
  H   H26       1.0  0.33070  0.24367  0.05222  1.0000
  H   H27       1.0  0.83066  0.80858  0.05225  1.0000
  H   H28       1.0  0.66937  0.75637  0.94778  1.0000
  C   C1        1.0  0.18623  0.94375  0.71022  1.0000
  C   C2        1.0  0.31362  0.23334  0.28981  1.0000
  C   C3        1.0  0.81373  0.05623  0.28978  1.0000
  C   C4        1.0  0.68642  0.76670  0.71023  1.0000
  C   C5        1.0  0.19680  0.80459  0.61882  1.0000
  C   C6        1.0  0.30312  0.18565  0.38121  1.0000
  C   C7        1.0  0.80317  0.19539  0.38117  1.0000
  C   C8        1.0  0.69689  0.81437  0.61883  1.0000
  C   C9        1.0  0.17385  0.61578  0.79786  1.0000
  C   C10       1.0  0.32662  0.81798  0.20211  1.0000
  C   C11       1.0  0.82611  0.38418  0.20208  1.0000
  C   C12       1.0  0.67334  0.18205  0.79794  1.0000
  C   C13       1.0  0.26404  0.55649  0.86621  1.0000
  C   C14       1.0  0.23632  0.69041  0.13378  1.0000
  C   C15       1.0  0.73593  0.44350  0.13375  1.0000
  C   C16       1.0  0.76366  0.30961  0.86626  1.0000
  C   C17       1.0  0.23304  0.40884  0.85986  1.0000
  C   C18       1.0  0.26711  0.54908  0.14018  1.0000
  C   C19       1.0  0.76693  0.59115  0.14012  1.0000
  C   C20       1.0  0.73290  0.45093  0.85984  1.0000
  C   C21       1.0  0.10637  0.32802  0.78438  1.0000
  C   C22       1.0  0.39365  0.54361  0.21572  1.0000
  C   C23       1.0  0.89361  0.67196  0.21561  1.0000
  C   C24       1.0  0.60637  0.45641  0.78429  1.0000
  C   C25       1.0  0.02170  0.39360  0.71776  1.0000
  C   C26       1.0  0.47842  0.67576  0.28235  1.0000
  C   C27       1.0  0.97828  0.60635  0.28220  1.0000
  C   C28       1.0  0.52159  0.32427  0.71766  1.0000
  C   C29       1.0  0.33172  0.34121  0.93105  1.0000
  C   C30       1.0  0.16837  0.41029  0.06897  1.0000
  C   C31       1.0  0.66828  0.65882  0.06893  1.0000
  C   C32       1.0  0.83166  0.58971  0.93104  1.0000
  C   C33       1.0  0.25004  0.28650  1.00000  1.0000
  C   C34       1.0  0.75000  0.71352  0.00001  1.0000
  C   C35       1.0  0.50009  0.00002  1.00000  1.0000
  C   C36       1.0  0.00005  0.99995  0.99996  1.0000
  N   N1        1.0  0.30723  0.79880  0.56725  1.0000
  N   N2        1.0  0.19267  0.23149  0.43278  1.0000
  N   N3        1.0  0.69276  0.20120  0.43276  1.0000
  N   N4        1.0  0.80729  0.76851  0.56723  1.0000
  N   N5        1.0  0.29460  0.66184  0.49147  1.0000
  N   N6        1.0  0.20534  0.17033  0.50853  1.0000
  N   N7        1.0  0.70540  0.33818  0.50852  1.0000
  N   N8        1.0  0.79459  0.82967  0.49147  1.0000
  N   N9        1.0  0.17762  0.58603  0.49737  1.0000
  N   N10       1.0  0.32238  0.08861  0.50263  1.0000
  N   N11       1.0  0.82237  0.41397  0.50260  1.0000
  N   N12       1.0  0.67756  0.91141  0.49741  1.0000
  N   N13       1.0  0.11435  0.67339  0.57637  1.0000
  N   N14       1.0  0.38565  0.09692  0.42365  1.0000
  N   N15       1.0  0.88562  0.32659  0.42359  1.0000
  N   N16       1.0  0.61434  0.90311  0.57641  1.0000
  N   N17       1.0  0.05540  0.53470  0.72338  1.0000
  N   N18       1.0  0.44493  0.81127  0.27665  1.0000
  N   N19       1.0  0.94458  0.46523  0.27656  1.0000
  N   N20       1.0  0.55504  0.18875  0.72338  1.0000
  O   O1        1.0  0.09019  0.95079  0.76399  1.0000
  O   O2        1.0  0.40961  0.18642  0.23598  1.0000
  O   O3        1.0  0.90977  0.04921  0.23600  1.0000
  O   O4        1.0  0.59046  0.81366  0.76408  1.0000
  O   O5        1.0  0.28712  0.04878  0.72514  1.0000
  O   O6        1.0  0.21277  0.32355  0.27492  1.0000
  O   O7        1.0  0.71287  0.95119  0.27487  1.0000
  O   O8        1.0  0.78725  0.67645  0.72510  1.0000
  O   O9        1.0  0.58581  0.09989  0.01243  1.0000
  O   O10       1.0  0.91371  0.08706  0.98774  1.0000
  O   O11       1.0  0.41435  0.90015  0.98757  1.0000
  O   O12       1.0  0.08637  0.91286  0.01218  1.0000
