data_image0
_chemical_formula_structural       Cu4H28C34N20O8
_chemical_formula_sum              "Cu4 H28 C34 N20 O8"
_cell_length_a       9.47347
_cell_length_b       9.32941
_cell_length_c       14.5345
_cell_angle_alpha    108.701
_cell_angle_beta     96.6169
_cell_angle_gamma    89.9921

_space_group_name_H-M_alt    "P 1"
_space_group_IT_number       1

loop_
  _space_group_symop_operation_xyz
  'x, y, z'

loop_
  _atom_site_type_symbol
  _atom_site_label
  _atom_site_symmetry_multiplicity
  _atom_site_fract_x
  _atom_site_fract_y
  _atom_site_fract_z
  _atom_site_occupancy
  Cu  Cu1       1.0  0.87477  0.02076  0.38295  1.0000
  Cu  Cu2       1.0  0.62525  0.63761  0.61685  1.0000
  Cu  Cu3       1.0  0.12511  0.97923  0.61682  1.0000
  Cu  Cu4       1.0  0.37473  0.36243  0.38314  1.0000
  H   H1        1.0  0.12988  0.52654  0.25458  1.0000
  H   H2        1.0  0.37011  0.27163  0.74523  1.0000
  H   H3        1.0  0.87007  0.47354  0.74547  1.0000
  H   H4        1.0  0.62986  0.72835  0.25477  1.0000
  H   H5        1.0  0.00820  0.72197  0.37459  1.0000
  H   H6        1.0  0.49213  0.34705  0.62530  1.0000
  H   H7        1.0  0.99175  0.27813  0.62542  1.0000
  H   H8        1.0  0.50786  0.65283  0.37466  1.0000
  H   H9        1.0  0.05921  0.79380  0.05995  1.0000
  H   H10       1.0  0.44041  0.73348  0.93969  1.0000
  H   H11       1.0  0.94080  0.20623  0.94006  1.0000
  H   H12       1.0  0.55966  0.26653  0.06025  1.0000
  H   H13       1.0  0.93426  0.97566  0.18705  1.0000
  H   H14       1.0  0.56546  0.78828  0.81260  1.0000
  H   H15       1.0  0.06566  0.02430  0.81287  1.0000
  H   H16       1.0  0.43451  0.21167  0.18725  1.0000
  H   H17       1.0  0.10075  0.43142  0.03145  1.0000
  H   H18       1.0  0.39907  0.39988  0.96844  1.0000
  H   H19       1.0  0.89924  0.56861  0.96857  1.0000
  H   H20       1.0  0.60094  0.60015  0.03155  1.0000
  H   H21       1.0  0.25833  0.47174  0.11201  1.0000
  H   H22       1.0  0.24155  0.35947  0.88783  1.0000
  H   H23       1.0  0.74167  0.52827  0.88800  1.0000
  H   H24       1.0  0.75846  0.64057  0.11216  1.0000
  H   H25       1.0  0.32825  0.67092  0.04170  1.0000
  H   H26       1.0  0.17142  0.62894  0.95788  1.0000
  H   H27       1.0  0.67175  0.32910  0.95831  1.0000
  H   H28       1.0  0.82857  0.37109  0.04213  1.0000
  C   C1        1.0  0.08873  0.62445  0.23600  1.0000
  C   C2        1.0  0.41123  0.38812  0.76379  1.0000
  C   C3        1.0  0.91126  0.37564  0.76403  1.0000
  C   C4        1.0  0.58879  0.61185  0.23620  1.0000
  C   C5        1.0  0.01911  0.73270  0.30333  1.0000
  C   C6        1.0  0.48092  0.42903  0.69647  1.0000
  C   C7        1.0  0.98085  0.26738  0.69667  1.0000
  C   C8        1.0  0.51908  0.57088  0.30347  1.0000
  C   C9        1.0  0.04895  0.77092  0.12783  1.0000
  C   C10       1.0  0.45075  0.64276  0.87184  1.0000
  C   C11       1.0  0.95106  0.22910  0.87217  1.0000
  C   C12       1.0  0.54929  0.35723  0.12810  1.0000
  C   C13       1.0  0.10549  0.64214  0.14569  1.0000
  C   C14       1.0  0.39429  0.49613  0.85402  1.0000
  C   C15       1.0  0.89452  0.35789  0.85433  1.0000
  C   C16       1.0  0.60574  0.50388  0.14595  1.0000
  C   C17       1.0  0.97875  0.87379  0.19802  1.0000
  C   C18       1.0  0.52099  0.67544  0.80166  1.0000
  C   C19       1.0  0.02118  0.12622  0.80194  1.0000
  C   C20       1.0  0.47899  0.32451  0.19824  1.0000
  C   C21       1.0  0.17937  0.52376  0.07217  1.0000
  C   C22       1.0  0.32042  0.45138  0.92761  1.0000
  C   C23       1.0  0.82064  0.47626  0.92785  1.0000
  C   C24       1.0  0.67959  0.54866  0.07238  1.0000
  C   C25       1.0  0.24985  0.57945  0.99983  1.0000
  C   C26       1.0  0.75015  0.42057  0.00017  1.0000
  C   C27       1.0  0.13385  0.20694  0.39883  1.0000
  C   C28       1.0  0.36630  0.80834  0.60108  1.0000
  C   C29       1.0  0.86628  0.79289  0.60123  1.0000
  C   C30       1.0  0.63376  0.19176  0.39894  1.0000
  C   C31       1.0  0.08735  0.25975  0.31373  1.0000
  C   C32       1.0  0.41244  0.94622  0.68628  1.0000
  C   C33       1.0  0.91253  0.74012  0.68639  1.0000
  C   C34       1.0  0.58730  0.05403  0.31375  1.0000
  N   N1        1.0  0.96476  0.85520  0.28470  1.0000
  N   N2        1.0  0.53513  0.57020  0.71505  1.0000
  N   N3        1.0  0.03512  0.14484  0.71527  1.0000
  N   N4        1.0  0.46481  0.42971  0.28487  1.0000
  N   N5        1.0  0.06693  0.12097  0.43934  1.0000
  N   N6        1.0  0.43339  0.68200  0.56077  1.0000
  N   N7        1.0  0.93326  0.87893  0.56082  1.0000
  N   N8        1.0  0.56690  0.31827  0.43945  1.0000
  N   N9        1.0  0.16112  0.10536  0.51227  1.0000
  N   N10       1.0  0.33916  0.59308  0.48785  1.0000
  N   N11       1.0  0.83904  0.89464  0.48778  1.0000
  N   N12       1.0  0.66124  0.40682  0.51223  1.0000
  N   N13       1.0  0.28171  0.17955  0.51631  1.0000
  N   N14       1.0  0.21856  0.66298  0.48374  1.0000
  N   N15       1.0  0.71856  0.82047  0.48367  1.0000
  N   N16       1.0  0.78185  0.33664  0.51618  1.0000
  N   N17       1.0  0.26549  0.24335  0.44567  1.0000
  N   N18       1.0  0.23466  0.79766  0.55425  1.0000
  N   N19       1.0  0.73473  0.75648  0.55431  1.0000
  N   N20       1.0  0.76548  0.20216  0.44563  1.0000
  O   O1        1.0  0.18901  0.33415  0.29369  1.0000
  O   O2        1.0  0.31052  0.04042  0.70616  1.0000
  O   O3        1.0  0.81070  0.66576  0.70631  1.0000
  O   O4        1.0  0.68910  0.95977  0.29355  1.0000
  O   O5        1.0  0.96529  0.23109  0.26959  1.0000
  O   O6        1.0  0.53430  0.96188  0.73068  1.0000
  O   O7        1.0  0.03448  0.76876  0.73070  1.0000
  O   O8        1.0  0.46525  0.03851  0.26962  1.0000
