data_image0
_chemical_formula_structural       Ca4H24C20N8O24
_chemical_formula_sum              "Ca4 H24 C20 N8 O24"
_cell_length_a       6.71475
_cell_length_b       6.73998
_cell_length_c       17.8483
_cell_angle_alpha    89.9993
_cell_angle_beta     89.9997
_cell_angle_gamma    96.8076

_space_group_name_H-M_alt    "P 1"
_space_group_IT_number       1

loop_
  _space_group_symop_operation_xyz
  'x, y, z'

loop_
  _atom_site_type_symbol
  _atom_site_label
  _atom_site_symmetry_multiplicity
  _atom_site_fract_x
  _atom_site_fract_y
  _atom_site_fract_z
  _atom_site_occupancy
  Ca  Ca1       1.0  0.65015  0.70260  0.39297  1.0000
  Ca  Ca2       1.0  0.34985  0.79739  0.89297  1.0000
  Ca  Ca3       1.0  0.34986  0.29742  0.60703  1.0000
  Ca  Ca4       1.0  0.65015  0.20259  0.10703  1.0000
  H   H1        1.0  0.11568  0.35977  0.38164  1.0000
  H   H2        1.0  0.88431  0.14022  0.88164  1.0000
  H   H3        1.0  0.88430  0.64025  0.61836  1.0000
  H   H4        1.0  0.11570  0.85975  0.11836  1.0000
  H   H5        1.0  0.95264  0.26561  0.25443  1.0000
  H   H6        1.0  0.04735  0.23439  0.75443  1.0000
  H   H7        1.0  0.04736  0.73436  0.74557  1.0000
  H   H8        1.0  0.95264  0.76563  0.24557  1.0000
  H   H9        1.0  0.74375  0.32149  0.48962  1.0000
  H   H10       1.0  0.25625  0.17851  0.98962  1.0000
  H   H11       1.0  0.25624  0.67853  0.51038  1.0000
  H   H12       1.0  0.74376  0.82148  0.01038  1.0000
  H   H13       1.0  0.71563  0.25711  0.40436  1.0000
  H   H14       1.0  0.28437  0.24289  0.90436  1.0000
  H   H15       1.0  0.28437  0.74289  0.59564  1.0000
  H   H16       1.0  0.71563  0.75711  0.09564  1.0000
  H   H17       1.0  0.68270  0.94068  0.53604  1.0000
  H   H18       1.0  0.31730  0.55932  0.03604  1.0000
  H   H19       1.0  0.31727  0.05935  0.46396  1.0000
  H   H20       1.0  0.68272  0.44066  0.96396  1.0000
  H   H21       1.0  0.55148  0.73624  0.54623  1.0000
  H   H22       1.0  0.44852  0.76375  0.04623  1.0000
  H   H23       1.0  0.44851  0.26378  0.45377  1.0000
  H   H24       1.0  0.55149  0.23623  0.95377  1.0000
  C   C1        1.0  0.23716  0.38102  0.20511  1.0000
  C   C2        1.0  0.76284  0.11898  0.70511  1.0000
  C   C3        1.0  0.76284  0.61895  0.79489  1.0000
  C   C4        1.0  0.23716  0.88104  0.29489  1.0000
  C   C5        1.0  0.18982  0.38534  0.32791  1.0000
  C   C6        1.0  0.81019  0.11465  0.82791  1.0000
  C   C7        1.0  0.81018  0.61467  0.67208  1.0000
  C   C8        1.0  0.18982  0.88533  0.17209  1.0000
  C   C9        1.0  0.17748  0.32376  0.12672  1.0000
  C   C10       1.0  0.82252  0.17626  0.62672  1.0000
  C   C11       1.0  0.82252  0.67620  0.87328  1.0000
  C   C12       1.0  0.17748  0.82379  0.37328  1.0000
  C   C13       1.0  0.60702  0.56569  0.21396  1.0000
  C   C14       1.0  0.39299  0.93431  0.71396  1.0000
  C   C15       1.0  0.39298  0.43431  0.78604  1.0000
  C   C16       1.0  0.60702  0.06569  0.28604  1.0000
  C   C17       1.0  0.41090  0.46886  0.24158  1.0000
  C   C18       1.0  0.58910  0.03114  0.74157  1.0000
  C   C19       1.0  0.58909  0.53113  0.75842  1.0000
  C   C20       1.0  0.41090  0.96886  0.25843  1.0000
  N   N1        1.0  0.37761  0.46950  0.31800  1.0000
  N   N2        1.0  0.62239  0.03048  0.81800  1.0000
  N   N3        1.0  0.62237  0.53051  0.68200  1.0000
  N   N4        1.0  0.37762  0.96949  0.18200  1.0000
  N   N5        1.0  0.10065  0.33364  0.26177  1.0000
  N   N6        1.0  0.89934  0.16635  0.76177  1.0000
  N   N7        1.0  0.89934  0.66634  0.73823  1.0000
  N   N8        1.0  0.10066  0.83366  0.23823  1.0000
  O   O1        1.0  0.65659  0.54810  0.14554  1.0000
  O   O2        1.0  0.34342  0.95190  0.64554  1.0000
  O   O3        1.0  0.34340  0.45190  0.85446  1.0000
  O   O4        1.0  0.65660  0.04810  0.35446  1.0000
  O   O5        1.0  0.71810  0.66445  0.26237  1.0000
  O   O6        1.0  0.28190  0.83553  0.76237  1.0000
  O   O7        1.0  0.28189  0.33555  0.73763  1.0000
  O   O8        1.0  0.71810  0.16446  0.23763  1.0000
  O   O9        1.0  0.99347  0.28584  0.11310  1.0000
  O   O10       1.0  0.00653  0.21422  0.61310  1.0000
  O   O11       1.0  0.00652  0.71414  0.88691  1.0000
  O   O12       1.0  0.99347  0.78585  0.38691  1.0000
  O   O13       1.0  0.31629  0.31149  0.07760  1.0000
  O   O14       1.0  0.68372  0.18851  0.57760  1.0000
  O   O15       1.0  0.68371  0.68845  0.92240  1.0000
  O   O16       1.0  0.31629  0.81154  0.42241  1.0000
  O   O17       1.0  0.71165  0.37318  0.43931  1.0000
  O   O18       1.0  0.28835  0.12681  0.93931  1.0000
  O   O19       1.0  0.28835  0.62683  0.56069  1.0000
  O   O20       1.0  0.71165  0.87318  0.06069  1.0000
  O   O21       1.0  0.67535  0.79830  0.52160  1.0000
  O   O22       1.0  0.32465  0.70169  0.02160  1.0000
  O   O23       1.0  0.32464  0.20173  0.47841  1.0000
  O   O24       1.0  0.67536  0.29828  0.97841  1.0000
