data_image0
_chemical_formula_structural       Ca4H24C20N8O24
_chemical_formula_sum              "Ca4 H24 C20 N8 O24"
_cell_length_a       6.77259
_cell_length_b       6.83581
_cell_length_c       18.956
_cell_angle_alpha    90.0003
_cell_angle_beta     90.0012
_cell_angle_gamma    99.6452

_space_group_name_H-M_alt    "P 1"
_space_group_IT_number       1

loop_
  _space_group_symop_operation_xyz
  'x, y, z'

loop_
  _atom_site_type_symbol
  _atom_site_label
  _atom_site_symmetry_multiplicity
  _atom_site_fract_x
  _atom_site_fract_y
  _atom_site_fract_z
  _atom_site_occupancy
  Ca  Ca1       1.0  0.55702  0.74622  0.88391  1.0000
  Ca  Ca2       1.0  0.44299  0.75378  0.38390  1.0000
  Ca  Ca3       1.0  0.44299  0.25378  0.11609  1.0000
  Ca  Ca4       1.0  0.55702  0.24622  0.61610  1.0000
  H   H1        1.0  0.02239  0.90019  0.63010  1.0000
  H   H2        1.0  0.97764  0.59983  0.13009  1.0000
  H   H3        1.0  0.97762  0.09982  0.36990  1.0000
  H   H4        1.0  0.02238  0.40019  0.86991  1.0000
  H   H5        1.0  0.71793  0.95039  0.02977  1.0000
  H   H6        1.0  0.28208  0.54961  0.52977  1.0000
  H   H7        1.0  0.28209  0.04962  0.97023  1.0000
  H   H8        1.0  0.71792  0.45039  0.47023  1.0000
  H   H9        1.0  0.82983  0.81650  0.97911  1.0000
  H   H10       1.0  0.17016  0.68348  0.47910  1.0000
  H   H11       1.0  0.17017  0.18349  0.02090  1.0000
  H   H12       1.0  0.82984  0.31651  0.52089  1.0000
  H   H13       1.0  0.62231  0.31859  0.89530  1.0000
  H   H14       1.0  0.37770  0.18141  0.39530  1.0000
  H   H15       1.0  0.37769  0.68142  0.10470  1.0000
  H   H16       1.0  0.62229  0.81859  0.60470  1.0000
  H   H17       1.0  0.47439  0.35340  0.95341  1.0000
  H   H18       1.0  0.52560  0.14659  0.45342  1.0000
  H   H19       1.0  0.52559  0.64658  0.04659  1.0000
  H   H20       1.0  0.47439  0.85342  0.54659  1.0000
  H   H21       1.0  0.86788  0.79729  0.75054  1.0000
  H   H22       1.0  0.13212  0.70270  0.25055  1.0000
  H   H23       1.0  0.13211  0.20272  0.24946  1.0000
  H   H24       1.0  0.86788  0.29730  0.74946  1.0000
  C   C1        1.0  0.53236  0.10831  0.78269  1.0000
  C   C2        1.0  0.46766  0.39167  0.28267  1.0000
  C   C3        1.0  0.46765  0.89169  0.21732  1.0000
  C   C4        1.0  0.53234  0.60832  0.71732  1.0000
  C   C5        1.0  0.33046  0.01171  0.75913  1.0000
  C   C6        1.0  0.66953  0.48829  0.25910  1.0000
  C   C7        1.0  0.66954  0.98829  0.24088  1.0000
  C   C8        1.0  0.33047  0.51170  0.74089  1.0000
  C   C9        1.0  0.15891  0.91719  0.79472  1.0000
  C   C10       1.0  0.84108  0.58279  0.29471  1.0000
  C   C11       1.0  0.84108  0.08281  0.20528  1.0000
  C   C12       1.0  0.15891  0.41721  0.70528  1.0000
  C   C13       1.0  0.10227  0.92456  0.67986  1.0000
  C   C14       1.0  0.89776  0.57545  0.17985  1.0000
  C   C15       1.0  0.89773  0.07545  0.32015  1.0000
  C   C16       1.0  0.10225  0.42455  0.82015  1.0000
  C   C17       1.0  0.10866  0.86439  0.86974  1.0000
  C   C18       1.0  0.89135  0.63561  0.36973  1.0000
  C   C19       1.0  0.89134  0.13561  0.13026  1.0000
  C   C20       1.0  0.10865  0.36440  0.63027  1.0000
  N   N1        1.0  0.29056  0.01535  0.68770  1.0000
  N   N2        1.0  0.70944  0.48465  0.18769  1.0000
  N   N3        1.0  0.70944  0.98465  0.31230  1.0000
  N   N4        1.0  0.29058  0.51535  0.81231  1.0000
  N   N5        1.0  0.01831  0.86637  0.74269  1.0000
  N   N6        1.0  0.98169  0.63362  0.24268  1.0000
  N   N7        1.0  0.98168  0.13364  0.25731  1.0000
  N   N8        1.0  0.01832  0.36638  0.75731  1.0000
  O   O1        1.0  0.92526  0.82214  0.88623  1.0000
  O   O2        1.0  0.07476  0.67779  0.38622  1.0000
  O   O3        1.0  0.07474  0.17783  0.11378  1.0000
  O   O4        1.0  0.92523  0.32218  0.61378  1.0000
  O   O5        1.0  0.63812  0.21007  0.73515  1.0000
  O   O6        1.0  0.36188  0.28989  0.23513  1.0000
  O   O7        1.0  0.36188  0.78992  0.26486  1.0000
  O   O8        1.0  0.63813  0.71009  0.76486  1.0000
  O   O9        1.0  0.69953  0.82493  0.00147  1.0000
  O   O10       1.0  0.30048  0.67505  0.50146  1.0000
  O   O11       1.0  0.30048  0.17507  0.99853  1.0000
  O   O12       1.0  0.69952  0.32495  0.49854  1.0000
  O   O13       1.0  0.59356  0.42349  0.92789  1.0000
  O   O14       1.0  0.40642  0.07652  0.42790  1.0000
  O   O15       1.0  0.40642  0.57651  0.07211  1.0000
  O   O16       1.0  0.59357  0.92349  0.57211  1.0000
  O   O17       1.0  0.25272  0.86116  0.91332  1.0000
  O   O18       1.0  0.74733  0.63888  0.41331  1.0000
  O   O19       1.0  0.74729  0.13885  0.08668  1.0000
  O   O20       1.0  0.25267  0.36114  0.58668  1.0000
  O   O21       1.0  0.59381  0.08920  0.84516  1.0000
  O   O22       1.0  0.40621  0.41079  0.34514  1.0000
  O   O23       1.0  0.40618  0.91079  0.15485  1.0000
  O   O24       1.0  0.59379  0.58920  0.65486  1.0000
