data_image0
_chemical_formula_structural       NiH16C14N14O2
_chemical_formula_sum              "Ni1 H16 C14 N14 O2"
_cell_length_a       7.39399
_cell_length_b       8.47116
_cell_length_c       8.47106
_cell_angle_alpha    108.251
_cell_angle_beta     99.041
_cell_angle_gamma    99.0409

_space_group_name_H-M_alt    "P 1"
_space_group_IT_number       1

loop_
  _space_group_symop_operation_xyz
  'x, y, z'

loop_
  _atom_site_type_symbol
  _atom_site_label
  _atom_site_symmetry_multiplicity
  _atom_site_fract_x
  _atom_site_fract_y
  _atom_site_fract_z
  _atom_site_occupancy
  Ni  Ni1       1.0  0.49999  0.99999  0.50000  1.0000
  H   H1        1.0  0.58398  0.81284  0.13367  1.0000
  H   H2        1.0  0.41600  0.36632  0.68713  1.0000
  H   H3        1.0  0.41602  0.18717  0.86632  1.0000
  H   H4        1.0  0.58400  0.63367  0.31287  1.0000
  H   H5        1.0  0.75621  0.31864  0.47721  1.0000
  H   H6        1.0  0.24378  0.02278  0.18134  1.0000
  H   H7        1.0  0.24378  0.68135  0.52279  1.0000
  H   H8        1.0  0.75620  0.97722  0.81866  1.0000
  H   H9        1.0  0.91261  0.45186  0.29841  1.0000
  H   H10       1.0  0.08738  0.20160  0.04814  1.0000
  H   H11       1.0  0.08738  0.54814  0.70161  1.0000
  H   H12       1.0  0.91261  0.79842  0.95187  1.0000
  H   H13       1.0  0.82467  0.34642  0.07363  1.0000
  H   H14       1.0  0.17533  0.42638  0.15358  1.0000
  H   H15       1.0  0.17533  0.65359  0.92638  1.0000
  H   H16       1.0  0.82467  0.57363  0.84643  1.0000
  C   C1        1.0  0.65207  0.94666  0.18924  1.0000
  C   C2        1.0  0.34793  0.31076  0.55333  1.0000
  C   C3        1.0  0.34793  0.05334  0.81075  1.0000
  C   C4        1.0  0.65207  0.68924  0.44667  1.0000
  C   C5        1.0  0.73756  0.20299  0.36867  1.0000
  C   C6        1.0  0.26245  0.13134  0.29700  1.0000
  C   C7        1.0  0.26243  0.79700  0.63133  1.0000
  C   C8        1.0  0.73755  0.86866  0.70300  1.0000
  C   C9        1.0  0.90313  0.33597  0.19047  1.0000
  C   C10       1.0  0.09688  0.30954  0.16404  1.0000
  C   C11       1.0  0.09686  0.66404  0.80954  1.0000
  C   C12       1.0  0.90312  0.69047  0.83597  1.0000
  C   C13       1.0  0.87451  0.26628  0.76627  1.0000
  C   C14       1.0  0.12553  0.73372  0.23373  1.0000
  N   N1        1.0  0.79786  0.19560  0.22618  1.0000
  N   N2        1.0  0.20214  0.27383  0.30441  1.0000
  N   N3        1.0  0.20214  0.80440  0.77382  1.0000
  N   N4        1.0  0.79785  0.72617  0.69559  1.0000
  N   N5        1.0  0.74604  0.03358  0.11067  1.0000
  N   N6        1.0  0.25396  0.38934  0.46643  1.0000
  N   N7        1.0  0.25396  0.96642  0.88933  1.0000
  N   N8        1.0  0.74604  0.61065  0.53357  1.0000
  N   N9        1.0  0.64333  0.04667  0.34830  1.0000
  N   N10       1.0  0.35668  0.15170  0.45333  1.0000
  N   N11       1.0  0.35666  0.95332  0.65169  1.0000
  N   N12       1.0  0.64332  0.84829  0.54667  1.0000
  N   N13       1.0  0.72155  0.28769  0.78771  1.0000
  N   N14       1.0  0.27848  0.71229  0.21229  1.0000
  O   O1        1.0  0.02962  0.24456  0.74456  1.0000
  O   O2        1.0  0.97042  0.75541  0.25540  1.0000
