data_image0
_chemical_formula_structural       Na2H14C12N4O12
_chemical_formula_sum              "Na2 H14 C12 N4 O12"
_cell_length_a       7.55229
_cell_length_b       7.822
_cell_length_c       8.39342
_cell_angle_alpha    69.5338
_cell_angle_beta     71.3235
_cell_angle_gamma    85.5949

_space_group_name_H-M_alt    "P 1"
_space_group_IT_number       1

loop_
  _space_group_symop_operation_xyz
  'x, y, z'

loop_
  _atom_site_type_symbol
  _atom_site_label
  _atom_site_symmetry_multiplicity
  _atom_site_fract_x
  _atom_site_fract_y
  _atom_site_fract_z
  _atom_site_occupancy
  Na  Na1       1.0  0.22106  0.02139  0.35916  1.0000
  Na  Na2       1.0  0.77894  0.97861  0.64084  1.0000
  H   H1        1.0  0.68905  0.44208  0.32831  1.0000
  H   H2        1.0  0.31095  0.55792  0.67169  1.0000
  H   H3        1.0  0.87627  0.66869  0.03187  1.0000
  H   H4        1.0  0.12373  0.33131  0.96813  1.0000
  H   H5        1.0  0.92761  0.78882  0.36093  1.0000
  H   H6        1.0  0.07239  0.21118  0.63907  1.0000
  H   H7        1.0  0.31657  0.32762  0.46512  1.0000
  H   H8        1.0  0.68343  0.67238  0.53488  1.0000
  H   H9        1.0  0.10991  0.83598  0.74583  1.0000
  H   H10       1.0  0.89009  0.16402  0.25417  1.0000
  H   H11       1.0  0.33424  0.13038  0.61906  1.0000
  H   H12       1.0  0.66577  0.86962  0.38093  1.0000
  H   H13       1.0  0.02362  0.70500  0.67849  1.0000
  H   H14       1.0  0.97638  0.29500  0.32151  1.0000
  C   C1        1.0  0.35552  0.87589  0.87736  1.0000
  C   C2        1.0  0.64448  0.12411  0.12264  1.0000
  C   C3        1.0  0.45180  0.76309  0.01140  1.0000
  C   C4        1.0  0.54820  0.23691  0.98860  1.0000
  C   C5        1.0  0.34766  0.64652  0.18212  1.0000
  C   C6        1.0  0.65234  0.35348  0.81788  1.0000
  C   C7        1.0  0.62046  0.53630  0.23812  1.0000
  C   C8        1.0  0.37954  0.46370  0.76188  1.0000
  C   C9        1.0  0.72400  0.65947  0.07287  1.0000
  C   C10       1.0  0.27600  0.34053  0.92713  1.0000
  C   C11       1.0  0.13702  0.64718  0.25553  1.0000
  C   C12       1.0  0.86298  0.35282  0.74448  1.0000
  N   N1        1.0  0.43293  0.53010  0.29260  1.0000
  N   N2        1.0  0.56707  0.46990  0.70740  1.0000
  N   N3        1.0  0.63940  0.76940  0.95908  1.0000
  N   N4        1.0  0.36060  0.23060  0.04092  1.0000
  O   O1        1.0  0.25589  0.20350  0.54064  1.0000
  O   O2        1.0  0.74411  0.79650  0.45936  1.0000
  O   O3        1.0  0.07913  0.79530  0.29242  1.0000
  O   O4        1.0  0.92087  0.20470  0.70758  1.0000
  O   O5        1.0  0.06577  0.83209  0.64677  1.0000
  O   O6        1.0  0.93423  0.16791  0.35323  1.0000
  O   O7        1.0  0.45078  0.00653  0.74253  1.0000
  O   O8        1.0  0.54922  0.99347  0.25747  1.0000
  O   O9        1.0  0.18884  0.82543  0.91065  1.0000
  O   O10       1.0  0.81116  0.17457  0.08934  1.0000
  O   O11       1.0  0.03542  0.51493  0.28823  1.0000
  O   O12       1.0  0.96458  0.48507  0.71177  1.0000
