data_image0
_chemical_formula_structural       Nd4H44C32S4O44
_chemical_formula_sum              "Nd4 H44 C32 S4 O44"
_cell_length_a       6.96631
_cell_length_b       10.5407
_cell_length_c       16.6789
_cell_angle_alpha    90
_cell_angle_beta     90
_cell_angle_gamma    90

_space_group_name_H-M_alt    "P 1"
_space_group_IT_number       1

loop_
  _space_group_symop_operation_xyz
  'x, y, z'

loop_
  _atom_site_type_symbol
  _atom_site_label
  _atom_site_symmetry_multiplicity
  _atom_site_fract_x
  _atom_site_fract_y
  _atom_site_fract_z
  _atom_site_occupancy
  Nd  Nd1       1.0  0.10528  0.74897  0.08201  1.0000
  Nd  Nd2       1.0  0.89472  0.24897  0.91799  1.0000
  Nd  Nd3       1.0  0.39472  0.24897  0.58201  1.0000
  Nd  Nd4       1.0  0.60528  0.74897  0.41799  1.0000
  H   H1        1.0  0.69284  0.85314  0.08836  1.0000
  H   H2        1.0  0.30716  0.35314  0.91164  1.0000
  H   H3        1.0  0.80716  0.35314  0.58836  1.0000
  H   H4        1.0  0.19284  0.85314  0.41164  1.0000
  H   H5        1.0  0.81966  0.97744  0.07235  1.0000
  H   H6        1.0  0.18034  0.47744  0.92765  1.0000
  H   H7        1.0  0.68034  0.47744  0.57235  1.0000
  H   H8        1.0  0.31966  0.97744  0.42765  1.0000
  H   H9        1.0  0.75610  0.57575  0.09652  1.0000
  H   H10       1.0  0.24390  0.07575  0.90347  1.0000
  H   H11       1.0  0.74390  0.07575  0.59653  1.0000
  H   H12       1.0  0.25610  0.57575  0.40347  1.0000
  H   H13       1.0  0.80591  0.56291  0.00282  1.0000
  H   H14       1.0  0.19409  0.06291  0.99718  1.0000
  H   H15       1.0  0.69409  0.06291  0.50282  1.0000
  H   H16       1.0  0.30591  0.56291  0.49718  1.0000
  H   H17       1.0  0.48203  0.82582  0.00777  1.0000
  H   H18       1.0  0.51797  0.32582  0.99223  1.0000
  H   H19       1.0  0.01797  0.32582  0.50777  1.0000
  H   H20       1.0  0.98203  0.82582  0.49223  1.0000
  H   H21       1.0  0.55329  0.69564  0.04482  1.0000
  H   H22       1.0  0.44671  0.19564  0.95518  1.0000
  H   H23       1.0  0.94671  0.19564  0.54482  1.0000
  H   H24       1.0  0.05329  0.69564  0.45519  1.0000
  H   H25       1.0  0.42214  0.42124  0.30439  1.0000
  H   H26       1.0  0.57785  0.92125  0.69561  1.0000
  H   H27       1.0  0.07785  0.92124  0.80439  1.0000
  H   H28       1.0  0.92215  0.42124  0.19561  1.0000
  H   H29       1.0  0.31356  0.21637  0.08473  1.0000
  H   H30       1.0  0.68644  0.71637  0.91527  1.0000
  H   H31       1.0  0.18644  0.71637  0.58473  1.0000
  H   H32       1.0  0.81356  0.21637  0.41527  1.0000
  H   H33       1.0  0.28573  0.02279  0.31083  1.0000
  H   H34       1.0  0.71427  0.52279  0.68917  1.0000
  H   H35       1.0  0.21427  0.52279  0.81083  1.0000
  H   H36       1.0  0.78572  0.02279  0.18917  1.0000
  H   H37       1.0  0.99596  0.64681  0.25000  1.0000
  H   H38       1.0  0.00404  0.14681  0.75000  1.0000
  H   H39       1.0  0.50404  0.14681  0.75000  1.0000
  H   H40       1.0  0.49596  0.64681  0.25000  1.0000
  H   H41       1.0  0.87707  0.77409  0.23819  1.0000
  H   H42       1.0  0.12293  0.27409  0.76181  1.0000
  H   H43       1.0  0.62293  0.27409  0.73819  1.0000
  H   H44       1.0  0.37707  0.77409  0.26181  1.0000
  C   C1        1.0  0.35074  0.22343  0.31777  1.0000
  C   C2        1.0  0.64926  0.72343  0.68224  1.0000
  C   C3        1.0  0.14926  0.72343  0.81776  1.0000
  C   C4        1.0  0.85074  0.22343  0.18224  1.0000
  C   C5        1.0  0.38334  0.33416  0.27341  1.0000
  C   C6        1.0  0.61666  0.83416  0.72659  1.0000
  C   C7        1.0  0.11666  0.83416  0.77341  1.0000
  C   C8        1.0  0.88334  0.33416  0.22659  1.0000
  C   C9        1.0  0.32606  0.21773  0.14970  1.0000
  C   C10       1.0  0.67394  0.71773  0.85030  1.0000
  C   C11       1.0  0.17394  0.71773  0.64970  1.0000
  C   C12       1.0  0.82606  0.21773  0.35030  1.0000
  C   C13       1.0  0.29897  0.10640  0.19412  1.0000
  C   C14       1.0  0.70103  0.60640  0.80588  1.0000
  C   C15       1.0  0.20103  0.60640  0.69412  1.0000
  C   C16       1.0  0.79897  0.10640  0.30588  1.0000
  C   C17       1.0  0.36783  0.33038  0.18997  1.0000
  C   C18       1.0  0.63217  0.83038  0.81003  1.0000
  C   C19       1.0  0.13217  0.83037  0.68997  1.0000
  C   C20       1.0  0.86784  0.33038  0.31003  1.0000
  C   C21       1.0  0.36644  0.22769  0.40737  1.0000
  C   C22       1.0  0.63356  0.72769  0.59263  1.0000
  C   C23       1.0  0.13356  0.72769  0.90737  1.0000
  C   C24       1.0  0.86644  0.22769  0.09263  1.0000
  C   C25       1.0  0.25391  0.98285  0.15454  1.0000
  C   C26       1.0  0.74608  0.48285  0.84546  1.0000
  C   C27       1.0  0.24609  0.48285  0.65454  1.0000
  C   C28       1.0  0.75391  0.98285  0.34546  1.0000
  C   C29       1.0  0.30889  0.11031  0.27774  1.0000
  C   C30       1.0  0.69111  0.61030  0.72226  1.0000
  C   C31       1.0  0.19111  0.61031  0.77774  1.0000
  C   C32       1.0  0.80889  0.11031  0.22226  1.0000
  S   S1        1.0  0.40722  0.47271  0.13477  1.0000
  S   S2        1.0  0.59278  0.97271  0.86523  1.0000
  S   S3        1.0  0.09278  0.97271  0.63477  1.0000
  S   S4        1.0  0.90722  0.47271  0.36523  1.0000
  O   O1        1.0  0.82331  0.88780  0.09272  1.0000
  O   O2        1.0  0.17669  0.38780  0.90728  1.0000
  O   O3        1.0  0.67669  0.38780  0.59272  1.0000
  O   O4        1.0  0.32331  0.88780  0.40728  1.0000
  O   O5        1.0  0.80697  0.62229  0.04972  1.0000
  O   O6        1.0  0.19303  0.12229  0.95028  1.0000
  O   O7        1.0  0.69303  0.12229  0.54972  1.0000
  O   O8        1.0  0.30697  0.62229  0.45028  1.0000
  O   O9        1.0  0.46283  0.76626  0.05377  1.0000
  O   O10       1.0  0.53717  0.26626  0.94623  1.0000
  O   O11       1.0  0.03717  0.26626  0.55377  1.0000
  O   O12       1.0  0.96283  0.76626  0.44623  1.0000
  O   O13       1.0  0.56959  0.53733  0.17442  1.0000
  O   O14       1.0  0.43041  0.03733  0.82558  1.0000
  O   O15       1.0  0.93041  0.03733  0.67442  1.0000
  O   O16       1.0  0.06959  0.53734  0.32558  1.0000
  O   O17       1.0  0.25254  0.88086  0.19573  1.0000
  O   O18       1.0  0.74745  0.38086  0.80427  1.0000
  O   O19       1.0  0.24746  0.38086  0.69573  1.0000
  O   O20       1.0  0.75254  0.88086  0.30427  1.0000
  O   O21       1.0  0.45118  0.43699  0.05215  1.0000
  O   O22       1.0  0.54882  0.93699  0.94785  1.0000
  O   O23       1.0  0.04882  0.93699  0.55214  1.0000
  O   O24       1.0  0.95119  0.43699  0.44785  1.0000
  O   O25       1.0  0.22917  0.54876  0.14047  1.0000
  O   O26       1.0  0.77083  0.04876  0.85953  1.0000
  O   O27       1.0  0.27083  0.04876  0.64047  1.0000
  O   O28       1.0  0.72917  0.54876  0.35954  1.0000
  O   O29       1.0  0.21033  0.97901  0.07993  1.0000
  O   O30       1.0  0.78967  0.47901  0.92007  1.0000
  O   O31       1.0  0.28967  0.47901  0.57993  1.0000
  O   O32       1.0  0.71033  0.97901  0.42007  1.0000
  O   O33       1.0  0.41961  0.33016  0.44099  1.0000
  O   O34       1.0  0.58038  0.83016  0.55901  1.0000
  O   O35       1.0  0.08039  0.83016  0.94099  1.0000
  O   O36       1.0  0.91961  0.33016  0.05901  1.0000
  O   O37       1.0  0.32652  0.12921  0.44982  1.0000
  O   O38       1.0  0.67348  0.62921  0.55018  1.0000
  O   O39       1.0  0.17348  0.62921  0.94982  1.0000
  O   O40       1.0  0.82652  0.12922  0.05018  1.0000
  O   O41       1.0  0.93745  0.70288  0.20914  1.0000
  O   O42       1.0  0.06255  0.20288  0.79086  1.0000
  O   O43       1.0  0.56255  0.20288  0.70914  1.0000
  O   O44       1.0  0.43745  0.70288  0.29086  1.0000
