data_image0
_chemical_formula_structural       Nd4H44C32S4O44
_chemical_formula_sum              "Nd4 H44 C32 S4 O44"
_cell_length_a       7.00327
_cell_length_b       10.5875
_cell_length_c       16.467
_cell_angle_alpha    90
_cell_angle_beta     90
_cell_angle_gamma    90

_space_group_name_H-M_alt    "P 1"
_space_group_IT_number       1

loop_
  _space_group_symop_operation_xyz
  'x, y, z'

loop_
  _atom_site_type_symbol
  _atom_site_label
  _atom_site_symmetry_multiplicity
  _atom_site_fract_x
  _atom_site_fract_y
  _atom_site_fract_z
  _atom_site_occupancy
  Nd  Nd1       1.0  0.89778  0.00427  0.41696  1.0000
  Nd  Nd2       1.0  0.10222  0.50427  0.58304  1.0000
  Nd  Nd3       1.0  0.39778  0.00427  0.08304  1.0000
  Nd  Nd4       1.0  0.60222  0.50426  0.91696  1.0000
  H   H1        1.0  0.57912  0.67593  0.19586  1.0000
  H   H2        1.0  0.42088  0.17593  0.80414  1.0000
  H   H3        1.0  0.07912  0.67593  0.30414  1.0000
  H   H4        1.0  0.92089  0.17593  0.69586  1.0000
  H   H5        1.0  0.71055  0.27876  0.18991  1.0000
  H   H6        1.0  0.28945  0.77876  0.81009  1.0000
  H   H7        1.0  0.21056  0.27876  0.31009  1.0000
  H   H8        1.0  0.78946  0.77876  0.68991  1.0000
  H   H9        1.0  0.68850  0.47292  0.41863  1.0000
  H   H10       1.0  0.31151  0.97291  0.58136  1.0000
  H   H11       1.0  0.18848  0.47291  0.08137  1.0000
  H   H12       1.0  0.81151  0.97291  0.91864  1.0000
  H   H13       1.0  0.52030  0.08240  0.49093  1.0000
  H   H14       1.0  0.47970  0.58240  0.50907  1.0000
  H   H15       1.0  0.02030  0.08240  0.00907  1.0000
  H   H16       1.0  0.97969  0.58240  0.99093  1.0000
  H   H17       1.0  0.44921  0.95241  0.45407  1.0000
  H   H18       1.0  0.55080  0.45242  0.54593  1.0000
  H   H19       1.0  0.94921  0.95242  0.04593  1.0000
  H   H20       1.0  0.05079  0.45242  0.95407  1.0000
  H   H21       1.0  0.19689  0.81869  0.49572  1.0000
  H   H22       1.0  0.80311  0.31869  0.50428  1.0000
  H   H23       1.0  0.69688  0.81869  0.00428  1.0000
  H   H24       1.0  0.30310  0.31869  0.99572  1.0000
  H   H25       1.0  0.24938  0.83287  0.40116  1.0000
  H   H26       1.0  0.75062  0.33286  0.59884  1.0000
  H   H27       1.0  0.74937  0.83287  0.09884  1.0000
  H   H28       1.0  0.25062  0.33287  0.90116  1.0000
  H   H29       1.0  0.18057  0.23235  0.42840  1.0000
  H   H30       1.0  0.81943  0.73235  0.57160  1.0000
  H   H31       1.0  0.68057  0.23236  0.07160  1.0000
  H   H32       1.0  0.31943  0.73235  0.92839  1.0000
  H   H33       1.0  0.30705  0.10958  0.41000  1.0000
  H   H34       1.0  0.69295  0.60958  0.59000  1.0000
  H   H35       1.0  0.80705  0.10958  0.09000  1.0000
  H   H36       1.0  0.19295  0.60958  0.91000  1.0000
  H   H37       1.0  0.12291  0.03187  0.25912  1.0000
  H   H38       1.0  0.87709  0.53187  0.74088  1.0000
  H   H39       1.0  0.62291  0.03187  0.24088  1.0000
  H   H40       1.0  0.37710  0.53187  0.75912  1.0000
  H   H41       1.0  0.00794  0.90326  0.24722  1.0000
  H   H42       1.0  0.99206  0.40326  0.75278  1.0000
  H   H43       1.0  0.50794  0.90326  0.25278  1.0000
  H   H44       1.0  0.49206  0.40326  0.74722  1.0000
  C   C1        1.0  0.62967  0.48228  0.09238  1.0000
  C   C2        1.0  0.37033  0.98228  0.90762  1.0000
  C   C3        1.0  0.12966  0.48229  0.40763  1.0000
  C   C4        1.0  0.87033  0.98228  0.59238  1.0000
  C   C5        1.0  0.63390  0.58583  0.31188  1.0000
  C   C6        1.0  0.36610  0.08583  0.68811  1.0000
  C   C7        1.0  0.13390  0.58584  0.18811  1.0000
  C   C8        1.0  0.86611  0.08583  0.81189  1.0000
  C   C9        1.0  0.74684  0.23917  0.34714  1.0000
  C   C10       1.0  0.25316  0.73916  0.65286  1.0000
  C   C11       1.0  0.24683  0.23917  0.15286  1.0000
  C   C12       1.0  0.75316  0.73917  0.84715  1.0000
  C   C13       1.0  0.61715  0.58924  0.22745  1.0000
  C   C14       1.0  0.38286  0.08924  0.77254  1.0000
  C   C15       1.0  0.11714  0.58925  0.27255  1.0000
  C   C16       1.0  0.88286  0.08924  0.72746  1.0000
  C   C17       1.0  0.64773  0.47860  0.18284  1.0000
  C   C18       1.0  0.35228  0.97860  0.81716  1.0000
  C   C19       1.0  0.14773  0.47861  0.31716  1.0000
  C   C20       1.0  0.85228  0.97860  0.68284  1.0000
  C   C21       1.0  0.68908  0.36610  0.22336  1.0000
  C   C22       1.0  0.31094  0.86609  0.77664  1.0000
  C   C23       1.0  0.18908  0.36610  0.27665  1.0000
  C   C24       1.0  0.81094  0.86609  0.72335  1.0000
  C   C25       1.0  0.70058  0.36258  0.30795  1.0000
  C   C26       1.0  0.29942  0.86257  0.69205  1.0000
  C   C27       1.0  0.20058  0.36258  0.19205  1.0000
  C   C28       1.0  0.79942  0.86257  0.80795  1.0000
  C   C29       1.0  0.67505  0.47373  0.35287  1.0000
  C   C30       1.0  0.32495  0.97372  0.64713  1.0000
  C   C31       1.0  0.17505  0.47373  0.14713  1.0000
  C   C32       1.0  0.82495  0.97372  0.85287  1.0000
  S   S1        1.0  0.59670  0.72860  0.36665  1.0000
  S   S2        1.0  0.40330  0.22860  0.63335  1.0000
  S   S3        1.0  0.09670  0.72861  0.13336  1.0000
  S   S4        1.0  0.90330  0.22860  0.86665  1.0000
  O   O1        1.0  0.66950  0.38434  0.04938  1.0000
  O   O2        1.0  0.33052  0.88434  0.95062  1.0000
  O   O3        1.0  0.16946  0.38434  0.45063  1.0000
  O   O4        1.0  0.83051  0.88434  0.54938  1.0000
  O   O5        1.0  0.57442  0.58405  0.05866  1.0000
  O   O6        1.0  0.42557  0.08406  0.94134  1.0000
  O   O7        1.0  0.07443  0.58406  0.44134  1.0000
  O   O8        1.0  0.92558  0.08405  0.55866  1.0000
  O   O9        1.0  0.79109  0.23365  0.42247  1.0000
  O   O10       1.0  0.20891  0.73364  0.57753  1.0000
  O   O11       1.0  0.29108  0.23365  0.07753  1.0000
  O   O12       1.0  0.70891  0.73364  0.92247  1.0000
  O   O13       1.0  0.74956  0.13861  0.30438  1.0000
  O   O14       1.0  0.25044  0.63861  0.69562  1.0000
  O   O15       1.0  0.24956  0.13861  0.19562  1.0000
  O   O16       1.0  0.75044  0.63861  0.80438  1.0000
  O   O17       1.0  0.77395  0.80369  0.35959  1.0000
  O   O18       1.0  0.22605  0.30369  0.64041  1.0000
  O   O19       1.0  0.27395  0.80369  0.14041  1.0000
  O   O20       1.0  0.72605  0.30369  0.85959  1.0000
  O   O21       1.0  0.55278  0.69531  0.45067  1.0000
  O   O22       1.0  0.44720  0.19531  0.54933  1.0000
  O   O23       1.0  0.05279  0.69531  0.04933  1.0000
  O   O24       1.0  0.94722  0.19531  0.95067  1.0000
  O   O25       1.0  0.43542  0.79249  0.32588  1.0000
  O   O26       1.0  0.56458  0.29249  0.67412  1.0000
  O   O27       1.0  0.93542  0.79249  0.17412  1.0000
  O   O28       1.0  0.06458  0.29249  0.82588  1.0000
  O   O29       1.0  0.54090  0.02175  0.44522  1.0000
  O   O30       1.0  0.45910  0.52175  0.55478  1.0000
  O   O31       1.0  0.04090  0.02175  0.05478  1.0000
  O   O32       1.0  0.95910  0.52176  0.94522  1.0000
  O   O33       1.0  0.19583  0.87838  0.44837  1.0000
  O   O34       1.0  0.80417  0.37838  0.55163  1.0000
  O   O35       1.0  0.69582  0.87838  0.05163  1.0000
  O   O36       1.0  0.30417  0.37838  0.94837  1.0000
  O   O37       1.0  0.17713  0.14387  0.40662  1.0000
  O   O38       1.0  0.82288  0.64387  0.59338  1.0000
  O   O39       1.0  0.67712  0.14388  0.09338  1.0000
  O   O40       1.0  0.32287  0.64387  0.90662  1.0000
  O   O41       1.0  0.06371  0.96055  0.28846  1.0000
  O   O42       1.0  0.93629  0.46055  0.71154  1.0000
  O   O43       1.0  0.56371  0.96055  0.21154  1.0000
  O   O44       1.0  0.43629  0.46055  0.78846  1.0000
