data_image0
_chemical_formula_structural       CuH32C34N8O14
_chemical_formula_sum              "Cu1 H32 C34 N8 O14"
_cell_length_a       6.67559
_cell_length_b       10.8898
_cell_length_c       13.2227
_cell_angle_alpha    91.2139
_cell_angle_beta     79.7264
_cell_angle_gamma    77.1799

_space_group_name_H-M_alt    "P 1"
_space_group_IT_number       1

loop_
  _space_group_symop_operation_xyz
  'x, y, z'

loop_
  _atom_site_type_symbol
  _atom_site_label
  _atom_site_symmetry_multiplicity
  _atom_site_fract_x
  _atom_site_fract_y
  _atom_site_fract_z
  _atom_site_occupancy
  Cu  Cu1       1.0  0.99999  0.00001  0.00000  1.0000
  H   H1        1.0  0.55585  0.90875  0.23130  1.0000
  H   H2        1.0  0.44415  0.09125  0.76869  1.0000
  H   H3        1.0  0.34191  0.92674  0.11059  1.0000
  H   H4        1.0  0.65808  0.07326  0.88941  1.0000
  H   H5        1.0  0.08328  0.06616  0.42575  1.0000
  H   H6        1.0  0.91671  0.93383  0.57426  1.0000
  H   H7        1.0  0.75418  0.16699  0.36828  1.0000
  H   H8        1.0  0.24581  0.83301  0.63173  1.0000
  H   H9        1.0  0.73262  0.14382  0.18042  1.0000
  H   H10       1.0  0.26737  0.85619  0.81959  1.0000
  H   H11       1.0  0.76226  0.91472  0.41991  1.0000
  H   H12       1.0  0.23774  0.08527  0.58009  1.0000
  H   H13       1.0  0.79240  0.81154  0.31118  1.0000
  H   H14       1.0  0.20760  0.18845  0.68882  1.0000
  H   H15       1.0  0.66189  0.75499  0.53766  1.0000
  H   H16       1.0  0.33811  0.24500  0.46235  1.0000
  H   H17       1.0  0.66506  0.65206  0.43300  1.0000
  H   H18       1.0  0.33494  0.34793  0.56700  1.0000
  H   H19       1.0  0.04590  0.74782  0.47364  1.0000
  H   H20       1.0  0.95409  0.25219  0.52636  1.0000
  H   H21       1.0  0.04870  0.64247  0.37113  1.0000
  H   H22       1.0  0.95130  0.35754  0.62886  1.0000
  H   H23       1.0  0.19689  0.54101  0.51884  1.0000
  H   H24       1.0  0.80314  0.45900  0.48115  1.0000
  H   H25       1.0  0.94693  0.58669  0.59870  1.0000
  H   H26       1.0  0.05309  0.41331  0.40130  1.0000
  H   H27       1.0  0.24317  0.59253  0.05362  1.0000
  H   H28       1.0  0.75684  0.40748  0.94638  1.0000
  H   H29       1.0  0.93855  0.32636  0.22089  1.0000
  H   H30       1.0  0.06146  0.67364  0.77911  1.0000
  H   H31       1.0  0.58232  0.69805  0.17980  1.0000
  H   H32       1.0  0.41768  0.30195  0.82020  1.0000
  C   C1        1.0  0.21532  0.97992  0.16980  1.0000
  C   C2        1.0  0.78467  0.02008  0.83020  1.0000
  C   C3        1.0  0.24123  0.98989  0.27242  1.0000
  C   C4        1.0  0.75876  0.01011  0.72758  1.0000
  C   C5        1.0  0.07157  0.05821  0.34518  1.0000
  C   C6        1.0  0.92843  0.94179  0.65483  1.0000
  C   C7        1.0  0.88749  0.11469  0.31255  1.0000
  C   C8        1.0  0.11251  0.88531  0.68745  1.0000
  C   C9        1.0  0.87353  0.10179  0.20946  1.0000
  C   C10       1.0  0.12646  0.89822  0.79055  1.0000
  C   C11       1.0  0.47526  0.89194  0.38840  1.0000
  C   C12       1.0  0.52470  0.10805  0.61161  1.0000
  C   C13       1.0  0.70320  0.83715  0.38998  1.0000
  C   C14       1.0  0.29679  0.16284  0.61001  1.0000
  C   C15       1.0  0.74010  0.72522  0.45759  1.0000
  C   C16       1.0  0.25990  0.27477  0.54241  1.0000
  C   C17       1.0  0.97405  0.67181  0.45178  1.0000
  C   C18       1.0  0.02595  0.32819  0.54822  1.0000
  C   C19       1.0  0.02795  0.56022  0.51824  1.0000
  C   C20       1.0  0.97206  0.43978  0.48176  1.0000
  C   C21       1.0  0.91204  0.66020  0.11379  1.0000
  C   C22       1.0  0.08795  0.33981  0.88621  1.0000
  C   C23       1.0  0.10208  0.57006  0.09632  1.0000
  C   C24       1.0  0.89793  0.42995  0.90369  1.0000
  C   C25       1.0  0.10647  0.45135  0.13485  1.0000
  C   C26       1.0  0.89354  0.54865  0.86515  1.0000
  C   C27       1.0  0.93060  0.41911  0.19087  1.0000
  C   C28       1.0  0.06940  0.58089  0.80913  1.0000
  C   C29       1.0  0.74436  0.51059  0.20557  1.0000
  C   C30       1.0  0.25563  0.48941  0.79443  1.0000
  C   C31       1.0  0.73145  0.62953  0.16745  1.0000
  C   C32       1.0  0.26856  0.37046  0.83255  1.0000
  C   C33       1.0  0.89663  0.79196  0.07767  1.0000
  C   C34       1.0  0.10337  0.20805  0.92233  1.0000
  N   N1        1.0  0.03634  0.03427  0.14045  1.0000
  N   N2        1.0  0.96365  0.96574  0.85955  1.0000
  N   N3        1.0  0.43575  0.93227  0.29438  1.0000
  N   N4        1.0  0.56426  0.06773  0.70562  1.0000
  N   N5        1.0  0.30552  0.35499  0.11666  1.0000
  N   N6        1.0  0.69448  0.64501  0.88334  1.0000
  N   N7        1.0  0.55295  0.48135  0.26385  1.0000
  N   N8        1.0  0.44704  0.51865  0.73615  1.0000
  O   O1        1.0  0.33596  0.90157  0.46561  1.0000
  O   O2        1.0  0.66406  0.09841  0.53437  1.0000
  O   O3        1.0  0.06241  0.81296  0.02198  1.0000
  O   O4        1.0  0.93759  0.18704  0.97802  1.0000
  O   O5        1.0  0.72687  0.87292  0.10439  1.0000
  O   O6        1.0  0.27312  0.12708  0.89562  1.0000
  O   O7        1.0  0.38639  0.56088  0.26760  1.0000
  O   O8        1.0  0.61362  0.43911  0.73240  1.0000
  O   O9        1.0  0.56897  0.37964  0.30532  1.0000
  O   O10       1.0  0.43105  0.62035  0.69467  1.0000
  O   O11       1.0  0.45988  0.38292  0.06340  1.0000
  O   O12       1.0  0.54012  0.61708  0.93660  1.0000
  O   O13       1.0  0.30697  0.25246  0.15556  1.0000
  O   O14       1.0  0.69304  0.74754  0.84444  1.0000
