data_image0
_chemical_formula_structural       Gd2H30C30N2O16
_chemical_formula_sum              "Gd2 H30 C30 N2 O16"
_cell_length_a       8.34219
_cell_length_b       10.2649
_cell_length_c       11.0742
_cell_angle_alpha    66.1149
_cell_angle_beta     71.003
_cell_angle_gamma    78.9608

_space_group_name_H-M_alt    "P 1"
_space_group_IT_number       1

loop_
  _space_group_symop_operation_xyz
  'x, y, z'

loop_
  _atom_site_type_symbol
  _atom_site_label
  _atom_site_symmetry_multiplicity
  _atom_site_fract_x
  _atom_site_fract_y
  _atom_site_fract_z
  _atom_site_occupancy
  Gd  Gd1       1.0  0.14436  0.43880  0.64569  1.0000
  Gd  Gd2       1.0  0.85564  0.56120  0.35431  1.0000
  H   H1        1.0  0.40430  0.59517  0.37987  1.0000
  H   H2        1.0  0.59570  0.40483  0.62013  1.0000
  H   H3        1.0  0.46623  0.43724  0.41863  1.0000
  H   H4        1.0  0.53377  0.56276  0.58137  1.0000
  H   H5        1.0  0.14098  0.65252  0.82172  1.0000
  H   H6        1.0  0.85902  0.34748  0.17829  1.0000
  H   H7        1.0  0.50993  0.80508  0.53322  1.0000
  H   H8        1.0  0.49007  0.19491  0.46678  1.0000
  H   H9        1.0  0.61452  0.73727  0.66630  1.0000
  H   H10       1.0  0.38548  0.26273  0.33369  1.0000
  H   H11       1.0  0.53437  0.91958  0.61162  1.0000
  H   H12       1.0  0.46564  0.08042  0.38838  1.0000
  H   H13       1.0  0.16810  0.80496  0.90429  1.0000
  H   H14       1.0  0.83191  0.19505  0.09571  1.0000
  H   H15       1.0  0.26049  0.96354  0.77065  1.0000
  H   H16       1.0  0.73952  0.03646  0.22934  1.0000
  H   H17       1.0  0.38017  0.83649  0.88180  1.0000
  H   H18       1.0  0.61984  0.16351  0.11820  1.0000
  H   H19       1.0  0.99283  0.97430  0.73417  1.0000
  H   H20       1.0  0.00717  0.02569  0.26583  1.0000
  H   H21       1.0  0.06140  0.23480  0.30710  1.0000
  H   H22       1.0  0.93860  0.76520  0.69290  1.0000
  H   H23       1.0  0.55763  0.33578  0.87470  1.0000
  H   H24       1.0  0.44237  0.66422  0.12530  1.0000
  H   H25       1.0  0.73828  0.62969  0.97831  1.0000
  H   H26       1.0  0.26171  0.37031  0.02169  1.0000
  H   H27       1.0  0.20079  0.08478  0.08302  1.0000
  H   H28       1.0  0.79921  0.91523  0.91698  1.0000
  H   H29       1.0  0.65923  0.11826  0.75465  1.0000
  H   H30       1.0  0.34077  0.88174  0.24535  1.0000
  C   C1        1.0  0.26113  0.67430  0.73959  1.0000
  C   C2        1.0  0.73888  0.32570  0.26041  1.0000
  C   C3        1.0  0.51126  0.81089  0.62963  1.0000
  C   C4        1.0  0.48874  0.18911  0.37037  1.0000
  C   C5        1.0  0.28551  0.84929  0.82775  1.0000
  C   C6        1.0  0.71450  0.15071  0.17225  1.0000
  C   C7        1.0  0.06271  0.23683  0.55163  1.0000
  C   C8        1.0  0.93729  0.76317  0.44837  1.0000
  C   C9        1.0  0.02812  0.11607  0.52381  1.0000
  C   C10       1.0  0.97188  0.88393  0.47620  1.0000
  C   C11       1.0  0.99538  0.98402  0.63205  1.0000
  C   C12       1.0  0.00462  0.01598  0.36795  1.0000
  C   C13       1.0  0.03354  0.13190  0.39088  1.0000
  C   C14       1.0  0.96646  0.86809  0.60912  1.0000
  C   C15       1.0  0.83464  0.45861  0.82984  1.0000
  C   C16       1.0  0.16536  0.54139  0.17016  1.0000
  C   C17       1.0  0.66222  0.48084  0.91802  1.0000
  C   C18       1.0  0.33777  0.51916  0.08198  1.0000
  C   C19       1.0  0.52915  0.40730  0.93038  1.0000
  C   C20       1.0  0.47085  0.59270  0.06962  1.0000
  C   C21       1.0  0.63307  0.57427  0.98774  1.0000
  C   C22       1.0  0.36692  0.42573  0.01226  1.0000
  C   C23       1.0  0.33531  0.23428  0.81759  1.0000
  C   C24       1.0  0.66469  0.76572  0.18241  1.0000
  C   C25       1.0  0.42124  0.11254  0.91057  1.0000
  C   C26       1.0  0.57876  0.88746  0.08943  1.0000
  C   C27       1.0  0.33194  0.04622  0.04862  1.0000
  C   C28       1.0  0.66806  0.95378  0.95138  1.0000
  C   C29       1.0  0.59031  0.06571  0.86194  1.0000
  C   C30       1.0  0.40969  0.93429  0.13806  1.0000
  N   N1        1.0  0.34842  0.77370  0.73264  1.0000
  N   N2        1.0  0.65158  0.22630  0.26736  1.0000
  O   O1        1.0  0.00667  0.36493  0.49236  1.0000
  O   O2        1.0  0.99333  0.63506  0.50764  1.0000
  O   O3        1.0  0.15060  0.20891  0.63481  1.0000
  O   O4        1.0  0.84939  0.79109  0.36519  1.0000
  O   O5        1.0  0.86306  0.36415  0.77688  1.0000
  O   O6        1.0  0.13694  0.63585  0.22312  1.0000
  O   O7        1.0  0.95197  0.53748  0.80679  1.0000
  O   O8        1.0  0.04802  0.46253  0.19321  1.0000
  O   O9        1.0  0.18230  0.27548  0.86546  1.0000
  O   O10       1.0  0.81770  0.72452  0.13454  1.0000
  O   O11       1.0  0.41588  0.29623  0.69092  1.0000
  O   O12       1.0  0.58412  0.70378  0.30907  1.0000
  O   O13       1.0  0.36010  0.49904  0.42926  1.0000
  O   O14       1.0  0.63990  0.50096  0.57074  1.0000
  O   O15       1.0  0.30808  0.60696  0.65844  1.0000
  O   O16       1.0  0.69192  0.39303  0.34156  1.0000
