data_image0
_chemical_formula_structural       MnNiH18C18N6O2
_chemical_formula_sum              "Mn1 Ni1 H18 C18 N6 O2"
_cell_length_a       7.82916
_cell_length_b       8.01818
_cell_length_c       8.86585
_cell_angle_alpha    114.224
_cell_angle_beta     108.197
_cell_angle_gamma    99.285

_space_group_name_H-M_alt    "P 1"
_space_group_IT_number       1

loop_
  _space_group_symop_operation_xyz
  'x, y, z'

loop_
  _atom_site_type_symbol
  _atom_site_label
  _atom_site_symmetry_multiplicity
  _atom_site_fract_x
  _atom_site_fract_y
  _atom_site_fract_z
  _atom_site_occupancy
  Mn  Mn1       1.0  0.50000  0.50000  0.00000  1.0000
  Ni  Ni1       1.0  1.00000  0.49999  0.50000  1.0000
  H   H1        1.0  0.19825  0.84388  0.43400  1.0000
  H   H2        1.0  0.80175  0.15612  0.56599  1.0000
  H   H3        1.0  0.21823  0.16126  0.88048  1.0000
  H   H4        1.0  0.78177  0.83874  0.11952  1.0000
  H   H5        1.0  0.49521  0.87401  0.03165  1.0000
  H   H6        1.0  0.50480  0.12599  0.96835  1.0000
  H   H7        1.0  0.40898  0.15599  0.19579  1.0000
  H   H8        1.0  0.59102  0.84401  0.80421  1.0000
  H   H9        1.0  0.25201  0.14148  0.40409  1.0000
  H   H10       1.0  0.74799  0.85852  0.59590  1.0000
  H   H11       1.0  0.12389  0.22275  0.11354  1.0000
  H   H12       1.0  0.87611  0.77725  0.88646  1.0000
  H   H13       1.0  0.04960  0.36514  0.01240  1.0000
  H   H14       1.0  0.95040  0.63486  0.98760  1.0000
  H   H15       1.0  0.43104  0.51253  0.34122  1.0000
  H   H16       1.0  0.56896  0.48748  0.65878  1.0000
  H   H17       1.0  0.21895  0.54214  0.36415  1.0000
  H   H18       1.0  0.78105  0.45786  0.63585  1.0000
  C   C1        1.0  0.29417  0.52774  0.27551  1.0000
  C   C2        1.0  0.70583  0.47226  0.72449  1.0000
  C   C3        1.0  0.92182  0.23533  0.35419  1.0000
  C   C4        1.0  0.07818  0.76467  0.64580  1.0000
  C   C5        1.0  0.26683  0.85740  0.34813  1.0000
  C   C6        1.0  0.73317  0.14261  0.65187  1.0000
  C   C7        1.0  0.43298  0.87502  0.12543  1.0000
  C   C8        1.0  0.56702  0.12498  0.87457  1.0000
  C   C9        1.0  0.32740  0.70706  0.25768  1.0000
  C   C10       1.0  0.67260  0.29294  0.74232  1.0000
  C   C11       1.0  0.19267  0.48336  0.66988  1.0000
  C   C12       1.0  0.80732  0.51662  0.33012  1.0000
  C   C13       1.0  0.38172  0.03146  0.21666  1.0000
  C   C14       1.0  0.61828  0.96854  0.78335  1.0000
  C   C15       1.0  0.29653  0.02337  0.33094  1.0000
  C   C16       1.0  0.70347  0.97664  0.66906  1.0000
  C   C17       1.0  0.17510  0.34447  0.09297  1.0000
  C   C18       1.0  0.82490  0.65553  0.90703  1.0000
  N   N1        1.0  0.31340  0.47364  0.78184  1.0000
  N   N2        1.0  0.68660  0.52635  0.21816  1.0000
  N   N3        1.0  0.87646  0.06645  0.26564  1.0000
  N   N4        1.0  0.12354  0.93354  0.73435  1.0000
  N   N5        1.0  0.41198  0.71624  0.14688  1.0000
  N   N6        1.0  0.58802  0.28376  0.85312  1.0000
  O   O1        1.0  0.29049  0.29484  0.99420  1.0000
  O   O2        1.0  0.70952  0.70516  0.00580  1.0000
