data_image0
_chemical_formula_structural       Zn4H48C64N8O16
_chemical_formula_sum              "Zn4 H48 C64 N8 O16"
_cell_length_a       11.0484
_cell_length_b       12.3864
_cell_length_c       21.31
_cell_angle_alpha    92.1012
_cell_angle_beta     105.274
_cell_angle_gamma    116.442

_space_group_name_H-M_alt    "P 1"
_space_group_IT_number       1

loop_
  _space_group_symop_operation_xyz
  'x, y, z'

loop_
  _atom_site_type_symbol
  _atom_site_label
  _atom_site_symmetry_multiplicity
  _atom_site_fract_x
  _atom_site_fract_y
  _atom_site_fract_z
  _atom_site_occupancy
  Zn  Zn1       1.0  0.35607  0.86725  0.72658  1.0000
  Zn  Zn2       1.0  0.26281  0.63282  0.77362  1.0000
  Zn  Zn3       1.0  0.64394  0.13275  0.27342  1.0000
  Zn  Zn4       1.0  0.73719  0.36718  0.22638  1.0000
  H   H1        1.0  0.12912  0.72782  0.52115  1.0000
  H   H2        1.0  0.38034  0.77220  0.97873  1.0000
  H   H3        1.0  0.87088  0.27218  0.47885  1.0000
  H   H4        1.0  0.61966  0.22780  0.02127  1.0000
  H   H5        1.0  0.03234  0.39005  0.59338  1.0000
  H   H6        1.0  0.54906  0.11025  0.90692  1.0000
  H   H7        1.0  0.96766  0.60995  0.40662  1.0000
  H   H8        1.0  0.45094  0.88975  0.09308  1.0000
  H   H9        1.0  0.99766  0.92683  0.72151  1.0000
  H   H10       1.0  0.84984  0.57286  0.77844  1.0000
  H   H11       1.0  0.00235  0.07317  0.27849  1.0000
  H   H12       1.0  0.15017  0.42715  0.22156  1.0000
  H   H13       1.0  0.76879  0.92551  0.71970  1.0000
  H   H14       1.0  0.62431  0.57444  0.78036  1.0000
  H   H15       1.0  0.23122  0.07449  0.28030  1.0000
  H   H16       1.0  0.37569  0.42557  0.21964  1.0000
  H   H17       1.0  0.32862  0.07466  0.80149  1.0000
  H   H18       1.0  0.95153  0.42483  0.69797  1.0000
  H   H19       1.0  0.67138  0.92533  0.19851  1.0000
  H   H20       1.0  0.04846  0.57517  0.30203  1.0000
  H   H21       1.0  0.31569  0.26861  0.82360  1.0000
  H   H22       1.0  0.72244  0.23101  0.67579  1.0000
  H   H23       1.0  0.68431  0.73139  0.17640  1.0000
  H   H24       1.0  0.27756  0.76899  0.32421  1.0000
  H   H25       1.0  0.36793  0.42192  0.74954  1.0000
  H   H26       1.0  0.69610  0.07809  0.75015  1.0000
  H   H27       1.0  0.63206  0.57807  0.25046  1.0000
  H   H28       1.0  0.30389  0.92190  0.24985  1.0000
  H   H29       1.0  0.43424  0.38758  0.65084  1.0000
  H   H30       1.0  0.89642  0.11287  0.84928  1.0000
  H   H31       1.0  0.56575  0.61242  0.34916  1.0000
  H   H32       1.0  0.10357  0.88713  0.15072  1.0000
  H   H33       1.0  0.55156  0.02893  0.57137  1.0000
  H   H34       1.0  0.45306  0.47164  0.92931  1.0000
  H   H35       1.0  0.44844  0.97108  0.42863  1.0000
  H   H36       1.0  0.54694  0.52835  0.07069  1.0000
  H   H37       1.0  0.37006  0.91372  0.55110  1.0000
  H   H38       1.0  0.40643  0.58655  0.94915  1.0000
  H   H39       1.0  0.62994  0.08628  0.44890  1.0000
  H   H40       1.0  0.59356  0.41345  0.05085  1.0000
  H   H41       1.0  0.49910  0.91280  0.62097  1.0000
  H   H42       1.0  0.46614  0.58756  0.87958  1.0000
  H   H43       1.0  0.50090  0.08720  0.37902  1.0000
  H   H44       1.0  0.53385  0.41244  0.12042  1.0000
  H   H45       1.0  0.47411  0.20001  0.58345  1.0000
  H   H46       1.0  0.19179  0.30037  0.91700  1.0000
  H   H47       1.0  0.52588  0.79999  0.41655  1.0000
  H   H48       1.0  0.80821  0.69962  0.08300  1.0000
  C   C1        1.0  0.18211  0.63414  0.63084  1.0000
  C   C2        1.0  0.41770  0.86604  0.86936  1.0000
  C   C3        1.0  0.81789  0.36587  0.36916  1.0000
  C   C4        1.0  0.58231  0.13396  0.13064  1.0000
  C   C5        1.0  0.08956  0.56485  0.56291  1.0000
  C   C6        1.0  0.46203  0.93526  0.93718  1.0000
  C   C7        1.0  0.91044  0.43516  0.43709  1.0000
  C   C8        1.0  0.53798  0.06473  0.06282  1.0000
  C   C9        1.0  0.07235  0.62801  0.51088  1.0000
  C   C10       1.0  0.43366  0.87201  0.98907  1.0000
  C   C11       1.0  0.92766  0.37199  0.48912  1.0000
  C   C12       1.0  0.56634  0.12799  0.01093  1.0000
  C   C13       1.0  0.01686  0.43658  0.55193  1.0000
  C   C14       1.0  0.52845  0.06354  0.94822  1.0000
  C   C15       1.0  0.98314  0.56342  0.44807  1.0000
  C   C16       1.0  0.47155  0.93645  0.05178  1.0000
  C   C17       1.0  0.07251  0.74982  0.74993  1.0000
  C   C18       1.0  0.92750  0.25019  0.25007  1.0000
  C   C19       1.0  0.93665  0.74985  0.74996  1.0000
  C   C20       1.0  0.06335  0.25015  0.25004  1.0000
  C   C21       1.0  0.91436  0.84965  0.73368  1.0000
  C   C22       1.0  0.83128  0.65006  0.76625  1.0000
  C   C23       1.0  0.08565  0.15036  0.26632  1.0000
  C   C24       1.0  0.16872  0.34995  0.23375  1.0000
  C   C25       1.0  0.78776  0.84903  0.73298  1.0000
  C   C26       1.0  0.70618  0.65087  0.76708  1.0000
  C   C27       1.0  0.21224  0.15097  0.26702  1.0000
  C   C28       1.0  0.29382  0.34913  0.23292  1.0000
  C   C29       1.0  0.54735  0.75016  0.75019  1.0000
  C   C30       1.0  0.45265  0.24985  0.24981  1.0000
  C   C31       1.0  0.68303  0.74999  0.75007  1.0000
  C   C32       1.0  0.31697  0.25001  0.24993  1.0000
  C   C33       1.0  0.41758  0.21104  0.67162  1.0000
  C   C34       1.0  0.03540  0.28910  0.82840  1.0000
  C   C35       1.0  0.58241  0.78896  0.32838  1.0000
  C   C36       1.0  0.96460  0.71090  0.17160  1.0000
  C   C37       1.0  0.38981  0.12380  0.71403  1.0000
  C   C38       1.0  0.05203  0.37608  0.78581  1.0000
  C   C39       1.0  0.61018  0.87619  0.28597  1.0000
  C   C40       1.0  0.94797  0.62392  0.21419  1.0000
  C   C41       1.0  0.35268  0.14309  0.76967  1.0000
  C   C42       1.0  0.93938  0.35660  0.72995  1.0000
  C   C43       1.0  0.64732  0.85690  0.23033  1.0000
  C   C44       1.0  0.06061  0.64340  0.27005  1.0000
  C   C45       1.0  0.34579  0.25135  0.78104  1.0000
  C   C46       1.0  0.81275  0.24837  0.71853  1.0000
  C   C47       1.0  0.65421  0.74865  0.21896  1.0000
  C   C48       1.0  0.18725  0.75163  0.28147  1.0000
  C   C49       1.0  0.37479  0.33844  0.73889  1.0000
  C   C50       1.0  0.79721  0.16156  0.76087  1.0000
  C   C51       1.0  0.62521  0.66156  0.26111  1.0000
  C   C52       1.0  0.20278  0.83844  0.23913  1.0000
  C   C53       1.0  0.41157  0.31990  0.68320  1.0000
  C   C54       1.0  0.90879  0.18034  0.81678  1.0000
  C   C55       1.0  0.58843  0.68010  0.31680  1.0000
  C   C56       1.0  0.09120  0.81965  0.18322  1.0000
  C   C57       1.0  0.44057  0.05125  0.63492  1.0000
  C   C58       1.0  0.25521  0.44882  0.86529  1.0000
  C   C59       1.0  0.55942  0.94875  0.36508  1.0000
  C   C60       1.0  0.74478  0.55117  0.13471  1.0000
  C   C61       1.0  0.46736  0.97266  0.59208  1.0000
  C   C62       1.0  0.40378  0.52762  0.90835  1.0000
  C   C63       1.0  0.53264  0.02734  0.40792  1.0000
  C   C64       1.0  0.59621  0.47238  0.09165  1.0000
  N   N1        1.0  0.44848  0.16143  0.62228  1.0000
  N   N2        1.0  0.16572  0.33879  0.87797  1.0000
  N   N3        1.0  0.55152  0.83857  0.37772  1.0000
  N   N4        1.0  0.83427  0.66121  0.12203  1.0000
  N   N5        1.0  0.40588  0.02656  0.68981  1.0000
  N   N6        1.0  0.18985  0.47330  0.81017  1.0000
  N   N7        1.0  0.59412  0.97344  0.31019  1.0000
  N   N8        1.0  0.81015  0.52670  0.18983  1.0000
  O   O1        1.0  0.23202  0.74998  0.63915  1.0000
  O   O2        1.0  0.34390  0.75011  0.86102  1.0000
  O   O3        1.0  0.76798  0.25002  0.36085  1.0000
  O   O4        1.0  0.65611  0.24988  0.13898  1.0000
  O   O5        1.0  0.20179  0.57169  0.67486  1.0000
  O   O6        1.0  0.45570  0.92858  0.82548  1.0000
  O   O7        1.0  0.79821  0.42831  0.32514  1.0000
  O   O8        1.0  0.54431  0.07142  0.17452  1.0000
  O   O9        1.0  0.17184  0.84965  0.74418  1.0000
  O   O10       1.0  0.07792  0.64995  0.75566  1.0000
  O   O11       1.0  0.82817  0.15035  0.25583  1.0000
  O   O12       1.0  0.92208  0.35005  0.24434  1.0000
  O   O13       1.0  0.52041  0.82977  0.72220  1.0000
  O   O14       1.0  0.46948  0.67076  0.77830  1.0000
  O   O15       1.0  0.47959  0.17023  0.27780  1.0000
  O   O16       1.0  0.53052  0.32924  0.22169  1.0000
