data_image0
_chemical_formula_structural       Zn6H20C12N16O16
_chemical_formula_sum              "Zn6 H20 C12 N16 O16"
_cell_length_a       6.51291
_cell_length_b       7.53242
_cell_length_c       14.6685
_cell_angle_alpha    90
_cell_angle_beta     89.9996
_cell_angle_gamma    95.9193

_space_group_name_H-M_alt    "P 1"
_space_group_IT_number       1

loop_
  _space_group_symop_operation_xyz
  'x, y, z'

loop_
  _atom_site_type_symbol
  _atom_site_label
  _atom_site_symmetry_multiplicity
  _atom_site_fract_x
  _atom_site_fract_y
  _atom_site_fract_z
  _atom_site_occupancy
  Zn  Zn1       1.0  0.23095  0.44739  0.21407  1.0000
  Zn  Zn2       1.0  0.26905  0.55262  0.71407  1.0000
  Zn  Zn3       1.0  0.76906  0.55262  0.78593  1.0000
  Zn  Zn4       1.0  0.73095  0.44739  0.28593  1.0000
  Zn  Zn5       1.0  0.49998  0.00002  0.50000  1.0000
  Zn  Zn6       1.0  0.99999  0.00001  1.00000  1.0000
  H   H1        1.0  0.95550  0.20875  0.24447  1.0000
  H   H2        1.0  0.54450  0.79126  0.74447  1.0000
  H   H3        1.0  0.04451  0.79126  0.75553  1.0000
  H   H4        1.0  0.45550  0.20875  0.25553  1.0000
  H   H5        1.0  0.26467  0.45848  0.40725  1.0000
  H   H6        1.0  0.23534  0.54153  0.90726  1.0000
  H   H7        1.0  0.73534  0.54153  0.59275  1.0000
  H   H8        1.0  0.76468  0.45848  0.09274  1.0000
  H   H9        1.0  0.06769  0.58709  0.43758  1.0000
  H   H10       1.0  0.43231  0.41290  0.93759  1.0000
  H   H11       1.0  0.93232  0.41291  0.56242  1.0000
  H   H12       1.0  0.56770  0.58710  0.06242  1.0000
  H   H13       1.0  0.11597  0.11539  0.50823  1.0000
  H   H14       1.0  0.38387  0.88443  0.00824  1.0000
  H   H15       1.0  0.88383  0.88438  0.49176  1.0000
  H   H16       1.0  0.61601  0.11542  0.99177  1.0000
  H   H17       1.0  0.17503  0.08973  0.61189  1.0000
  H   H18       1.0  0.32497  0.91031  0.11189  1.0000
  H   H19       1.0  0.82497  0.91031  0.38810  1.0000
  H   H20       1.0  0.67503  0.08972  0.88811  1.0000
  C   C1        1.0  0.30660  0.72766  0.36191  1.0000
  C   C2        1.0  0.19340  0.27236  0.86191  1.0000
  C   C3        1.0  0.69339  0.27236  0.63809  1.0000
  C   C4        1.0  0.80661  0.72766  0.13809  1.0000
  C   C5        1.0  0.23749  0.59212  0.43168  1.0000
  C   C6        1.0  0.26251  0.40789  0.93168  1.0000
  C   C7        1.0  0.76251  0.40789  0.56832  1.0000
  C   C8        1.0  0.73752  0.59212  0.06832  1.0000
  C   C9        1.0  0.32320  0.61316  0.52759  1.0000
  C   C10       1.0  0.17681  0.38684  0.02759  1.0000
  C   C11       1.0  0.67682  0.38685  0.47241  1.0000
  C   C12       1.0  0.82321  0.61317  0.97241  1.0000
  N   N1        1.0  0.29276  0.69439  0.27198  1.0000
  N   N2        1.0  0.20723  0.30563  0.77198  1.0000
  N   N3        1.0  0.70723  0.30562  0.72802  1.0000
  N   N4        1.0  0.79277  0.69439  0.22802  1.0000
  N   N5        1.0  0.35174  0.85032  0.22957  1.0000
  N   N6        1.0  0.14826  0.14970  0.72957  1.0000
  N   N7        1.0  0.64825  0.14969  0.77043  1.0000
  N   N8        1.0  0.85174  0.85032  0.27043  1.0000
  N   N9        1.0  0.40065  0.97304  0.29094  1.0000
  N   N10       1.0  0.09936  0.02698  0.79094  1.0000
  N   N11       1.0  0.59935  0.02697  0.70906  1.0000
  N   N12       1.0  0.90064  0.97304  0.20906  1.0000
  N   N13       1.0  0.37400  0.90023  0.37481  1.0000
  N   N14       1.0  0.12600  0.09978  0.87480  1.0000
  N   N15       1.0  0.62600  0.09978  0.62520  1.0000
  N   N16       1.0  0.87401  0.90023  0.12519  1.0000
  O   O1        1.0  0.98298  0.33154  0.26886  1.0000
  O   O2        1.0  0.51703  0.66846  0.76886  1.0000
  O   O3        1.0  0.01703  0.66847  0.73114  1.0000
  O   O4        1.0  0.48298  0.33155  0.23114  1.0000
  O   O5        1.0  0.44519  0.74434  0.55341  1.0000
  O   O6        1.0  0.05484  0.25567  0.05343  1.0000
  O   O7        1.0  0.55486  0.25568  0.44658  1.0000
  O   O8        1.0  0.94520  0.74434  0.94658  1.0000
  O   O9        1.0  0.25837  0.48461  0.58116  1.0000
  O   O10       1.0  0.24163  0.51542  0.08117  1.0000
  O   O11       1.0  0.74164  0.51542  0.41884  1.0000
  O   O12       1.0  0.75839  0.48461  0.91884  1.0000
  O   O13       1.0  0.18830  0.04061  0.54893  1.0000
  O   O14       1.0  0.31174  0.95937  0.04892  1.0000
  O   O15       1.0  0.81175  0.95937  0.45108  1.0000
  O   O16       1.0  0.68829  0.04062  0.95107  1.0000
