data_image0
_chemical_formula_structural       Cd2Cu4H20C32O24
_chemical_formula_sum              "Cd2 Cu4 H20 C32 O24"
_cell_length_a       8.19385
_cell_length_b       10.4549
_cell_length_c       11.26
_cell_angle_alpha    102.25
_cell_angle_beta     109.178
_cell_angle_gamma    104.05

_space_group_name_H-M_alt    "P 1"
_space_group_IT_number       1

loop_
  _space_group_symop_operation_xyz
  'x, y, z'

loop_
  _atom_site_type_symbol
  _atom_site_label
  _atom_site_symmetry_multiplicity
  _atom_site_fract_x
  _atom_site_fract_y
  _atom_site_fract_z
  _atom_site_occupancy
  Cd  Cd1       1.0  0.96445  0.41306  0.82247  1.0000
  Cd  Cd2       1.0  0.03555  0.58694  0.17753  1.0000
  Cu  Cu1       1.0  0.16919  0.13271  0.97067  1.0000
  Cu  Cu2       1.0  0.83081  0.86730  0.02933  1.0000
  Cu  Cu3       1.0  0.20184  0.84670  0.95929  1.0000
  Cu  Cu4       1.0  0.79816  0.15330  0.04071  1.0000
  H   H1        1.0  0.82277  0.01295  0.37203  1.0000
  H   H2        1.0  0.17724  0.98705  0.62797  1.0000
  H   H3        1.0  0.92232  0.26341  0.50610  1.0000
  H   H4        1.0  0.07767  0.73659  0.49390  1.0000
  H   H5        1.0  0.50788  0.72712  0.38785  1.0000
  H   H6        1.0  0.49213  0.27288  0.61215  1.0000
  H   H7        1.0  0.61468  0.98056  0.51439  1.0000
  H   H8        1.0  0.38533  0.01944  0.48561  1.0000
  H   H9        1.0  0.64739  0.57436  0.49704  1.0000
  H   H10       1.0  0.35260  0.42564  0.50296  1.0000
  H   H11       1.0  0.74875  0.41032  0.41453  1.0000
  H   H12       1.0  0.25124  0.58968  0.58547  1.0000
  H   H13       1.0  0.22064  0.29509  0.76747  1.0000
  H   H14       1.0  0.77937  0.70491  0.23253  1.0000
  H   H15       1.0  0.73653  0.54185  0.92872  1.0000
  H   H16       1.0  0.26347  0.45814  0.07128  1.0000
  H   H17       1.0  0.70623  0.38770  0.94851  1.0000
  H   H18       1.0  0.29377  0.61230  0.05150  1.0000
  H   H19       1.0  0.26156  0.43110  0.72940  1.0000
  H   H20       1.0  0.73844  0.56890  0.27060  1.0000
  C   C1        1.0  0.74650  0.07963  0.33862  1.0000
  C   C2        1.0  0.25350  0.92038  0.66138  1.0000
  C   C3        1.0  0.48524  0.10058  0.17097  1.0000
  C   C4        1.0  0.51476  0.89941  0.82903  1.0000
  C   C5        1.0  0.81127  0.96884  0.68722  1.0000
  C   C6        1.0  0.18873  0.03115  0.31278  1.0000
  C   C7        1.0  0.46688  0.34876  0.19716  1.0000
  C   C8        1.0  0.53311  0.65123  0.80284  1.0000
  C   C9        1.0  0.54974  0.24559  0.24070  1.0000
  C   C10       1.0  0.45025  0.75441  0.75929  1.0000
  C   C11       1.0  0.83473  0.73793  0.67612  1.0000
  C   C12       1.0  0.16526  0.26207  0.32388  1.0000
  C   C13       1.0  0.89893  0.88270  0.74686  1.0000
  C   C14       1.0  0.10107  0.11730  0.25314  1.0000
  C   C15       1.0  0.80331  0.21890  0.41173  1.0000
  C   C16       1.0  0.19668  0.78110  0.58827  1.0000
  C   C17       1.0  0.58927  0.01773  0.21938  1.0000
  C   C18       1.0  0.41074  0.98227  0.78062  1.0000
  C   C19       1.0  0.61549  0.77035  0.48730  1.0000
  C   C20       1.0  0.38451  0.22964  0.51270  1.0000
  C   C21       1.0  0.67406  0.91043  0.55772  1.0000
  C   C22       1.0  0.32595  0.08957  0.44228  1.0000
  C   C23       1.0  0.69405  0.68536  0.54843  1.0000
  C   C24       1.0  0.30595  0.31464  0.45157  1.0000
  C   C25       1.0  0.85068  0.11812  0.75186  1.0000
  C   C26       1.0  0.14933  0.88188  0.24814  1.0000
  C   C27       1.0  0.70576  0.30019  0.36075  1.0000
  C   C28       1.0  0.29422  0.69981  0.63925  1.0000
  C   C29       1.0  0.90193  0.63428  0.72952  1.0000
  C   C30       1.0  0.09806  0.36572  0.27048  1.0000
  C   C31       1.0  0.54918  0.86737  0.15218  1.0000
  C   C32       1.0  0.45083  0.13263  0.84782  1.0000
  O   O1        1.0  0.15931  0.35817  0.73230  1.0000
  O   O2        1.0  0.84069  0.64184  0.26770  1.0000
  O   O3        1.0  0.76246  0.18484  0.69151  1.0000
  O   O4        1.0  0.23755  0.81516  0.30850  1.0000
  O   O5        1.0  0.03789  0.93638  0.86750  1.0000
  O   O6        1.0  0.96211  0.06361  0.13250  1.0000
  O   O7        1.0  0.31361  0.31254  0.09273  1.0000
  O   O8        1.0  0.68638  0.68746  0.90726  1.0000
  O   O9        1.0  0.33058  0.04261  0.05924  1.0000
  O   O10       1.0  0.66942  0.95738  0.94076  1.0000
  O   O11       1.0  0.54429  0.47560  0.26226  1.0000
  O   O12       1.0  0.45570  0.52440  0.73773  1.0000
  O   O13       1.0  0.97559  0.18718  0.87243  1.0000
  O   O14       1.0  0.02442  0.81281  0.12757  1.0000
  O   O15       1.0  0.79903  0.47469  0.95630  1.0000
  O   O16       1.0  0.20097  0.52532  0.04370  1.0000
  O   O17       1.0  0.04237  0.66763  0.84173  1.0000
  O   O18       1.0  0.95762  0.33236  0.15827  1.0000
  O   O19       1.0  0.67703  0.81865  0.18456  1.0000
  O   O20       1.0  0.32298  0.18136  0.81544  1.0000
  O   O21       1.0  0.81922  0.50593  0.66630  1.0000
  O   O22       1.0  0.18077  0.49407  0.33369  1.0000
  O   O23       1.0  0.38713  0.78693  0.06203  1.0000
  O   O24       1.0  0.61288  0.21307  0.93798  1.0000
