data_image0
_chemical_formula_structural       Ag2H20C18N2O4
_chemical_formula_sum              "Ag2 H20 C18 N2 O4"
_cell_length_a       5.34339
_cell_length_b       7.34942
_cell_length_c       12.0679
_cell_angle_alpha    107.246
_cell_angle_beta     89.9984
_cell_angle_gamma    90.0008

_space_group_name_H-M_alt    "P 1"
_space_group_IT_number       1

loop_
  _space_group_symop_operation_xyz
  'x, y, z'

loop_
  _atom_site_type_symbol
  _atom_site_label
  _atom_site_symmetry_multiplicity
  _atom_site_fract_x
  _atom_site_fract_y
  _atom_site_fract_z
  _atom_site_occupancy
  Ag  Ag1       1.0  0.65924  0.43381  0.86724  1.0000
  Ag  Ag2       1.0  0.15927  0.56620  0.13278  1.0000
  H   H1        1.0  0.51465  0.78629  0.97073  1.0000
  H   H2        1.0  0.01464  0.21373  0.02929  1.0000
  H   H3        1.0  0.82694  0.78207  0.97164  1.0000
  H   H4        1.0  0.32692  0.21795  0.02836  1.0000
  H   H5        1.0  0.51261  0.77998  0.77098  1.0000
  H   H6        1.0  0.01263  0.22001  0.22904  1.0000
  H   H7        1.0  0.91450  0.86202  0.69299  1.0000
  H   H8        1.0  0.41454  0.13797  0.30700  1.0000
  H   H9        1.0  0.07788  0.81820  0.81046  1.0000
  H   H10       1.0  0.57789  0.18180  0.18952  1.0000
  H   H11       1.0  0.25657  0.51214  0.77868  1.0000
  H   H12       1.0  0.75659  0.48788  0.22132  1.0000
  H   H13       1.0  0.30046  0.17558  0.66192  1.0000
  H   H14       1.0  0.80046  0.82444  0.33808  1.0000
  H   H15       1.0  0.99915  0.03420  0.49982  1.0000
  H   H16       1.0  0.49913  0.96579  0.50019  1.0000
  H   H17       1.0  0.65196  0.23419  0.46190  1.0000
  H   H18       1.0  0.15192  0.76578  0.53811  1.0000
  H   H19       1.0  0.61330  0.57071  0.57679  1.0000
  H   H20       1.0  0.11330  0.42927  0.42320  1.0000
  C   C1        1.0  0.66030  0.04656  0.87539  1.0000
  C   C2        1.0  0.16033  0.95344  0.12460  1.0000
  C   C3        1.0  0.67662  0.82827  0.82707  1.0000
  C   C4        1.0  0.17663  0.17173  0.17293  1.0000
  C   C5        1.0  0.91517  0.77481  0.75294  1.0000
  C   C6        1.0  0.41519  0.22519  0.24705  1.0000
  C   C7        1.0  0.93339  0.56656  0.68582  1.0000
  C   C8        1.0  0.43342  0.43343  0.31417  1.0000
  C   C9        1.0  0.12365  0.45109  0.70851  1.0000
  C   C10       1.0  0.62365  0.54891  0.29148  1.0000
  C   C11       1.0  0.14844  0.26044  0.64253  1.0000
  C   C12       1.0  0.64844  0.73958  0.35748  1.0000
  C   C13       1.0  0.97932  0.18168  0.55309  1.0000
  C   C14       1.0  0.47930  0.81831  0.44692  1.0000
  C   C15       1.0  0.78538  0.29392  0.53136  1.0000
  C   C16       1.0  0.28537  0.70607  0.46865  1.0000
  C   C17       1.0  0.76284  0.48450  0.59662  1.0000
  C   C18       1.0  0.26284  0.51547  0.40337  1.0000
  N   N1        1.0  0.67118  0.73689  0.92074  1.0000
  N   N2        1.0  0.17118  0.26313  0.07927  1.0000
  O   O1        1.0  0.68722  0.12643  0.98267  1.0000
  O   O2        1.0  0.18722  0.87360  0.01733  1.0000
  O   O3        1.0  0.62262  0.13320  0.79902  1.0000
  O   O4        1.0  0.12265  0.86681  0.20099  1.0000
