data_image0
_chemical_formula_structural       Sm2H20C22N6O18
_chemical_formula_sum              "Sm2 H20 C22 N6 O18"
_cell_length_a       6.85435
_cell_length_b       8.79086
_cell_length_c       11.81
_cell_angle_alpha    75.6142
_cell_angle_beta     81.6449
_cell_angle_gamma    68.7692

_space_group_name_H-M_alt    "P 1"
_space_group_IT_number       1

loop_
  _space_group_symop_operation_xyz
  'x, y, z'

loop_
  _atom_site_type_symbol
  _atom_site_label
  _atom_site_symmetry_multiplicity
  _atom_site_fract_x
  _atom_site_fract_y
  _atom_site_fract_z
  _atom_site_occupancy
  Sm  Sm1       1.0  0.51936  0.32637  0.39687  1.0000
  Sm  Sm2       1.0  0.48064  0.67363  0.60313  1.0000
  H   H1        1.0  0.93254  0.90012  0.83559  1.0000
  H   H2        1.0  0.06747  0.09988  0.16441  1.0000
  H   H3        1.0  0.60919  0.24464  0.06522  1.0000
  H   H4        1.0  0.39081  0.75535  0.93478  1.0000
  H   H5        1.0  0.93376  0.14660  0.67730  1.0000
  H   H6        1.0  0.06624  0.85341  0.32270  1.0000
  H   H7        1.0  0.63043  0.47722  0.89434  1.0000
  H   H8        1.0  0.36957  0.52278  0.10567  1.0000
  H   H9        1.0  0.94835  0.46029  0.39317  1.0000
  H   H10       1.0  0.05165  0.53971  0.60683  1.0000
  H   H11       1.0  0.90640  0.69895  0.98124  1.0000
  H   H12       1.0  0.09360  0.30105  0.01876  1.0000
  H   H13       1.0  0.61367  0.98494  0.37649  1.0000
  H   H14       1.0  0.38633  0.01506  0.62351  1.0000
  H   H15       1.0  0.78322  0.96643  0.45547  1.0000
  H   H16       1.0  0.21678  0.03358  0.54453  1.0000
  H   H17       1.0  0.26727  0.28558  0.20957  1.0000
  H   H18       1.0  0.73273  0.71442  0.79044  1.0000
  H   H19       1.0  0.47762  0.12495  0.21348  1.0000
  H   H20       1.0  0.52238  0.87505  0.78652  1.0000
  C   C1        1.0  0.84420  0.46963  0.17194  1.0000
  C   C2        1.0  0.15579  0.53037  0.82806  1.0000
  C   C3        1.0  0.77198  0.65532  0.15471  1.0000
  C   C4        1.0  0.22802  0.34468  0.84529  1.0000
  C   C5        1.0  0.65003  0.76999  0.22308  1.0000
  C   C6        1.0  0.34997  0.23001  0.77692  1.0000
  C   C7        1.0  0.55820  0.73988  0.34409  1.0000
  C   C8        1.0  0.44180  0.26012  0.65590  1.0000
  C   C9        1.0  0.74075  0.91425  0.05929  1.0000
  C   C10       1.0  0.25925  0.08575  0.94071  1.0000
  C   C11       1.0  0.76107  0.05073  0.96479  1.0000
  C   C12       1.0  0.23893  0.94927  0.03521  1.0000
  C   C13       1.0  0.85987  0.02457  0.85473  1.0000
  C   C14       1.0  0.14014  0.97543  0.14527  1.0000
  C   C15       1.0  0.68027  0.21617  0.98085  1.0000
  C   C16       1.0  0.31973  0.78382  0.01915  1.0000
  C   C17       1.0  0.86554  0.15826  0.76505  1.0000
  C   C18       1.0  0.13446  0.84175  0.23495  1.0000
  C   C19       1.0  0.69022  0.34629  0.88959  1.0000
  C   C20       1.0  0.30978  0.65371  0.11041  1.0000
  C   C21       1.0  0.00208  0.32756  0.43878  1.0000
  C   C22       1.0  0.99792  0.67244  0.56122  1.0000
  N   N1        1.0  0.82792  0.74925  0.05336  1.0000
  N   N2        1.0  0.17209  0.25075  0.94664  1.0000
  N   N3        1.0  0.63365  0.92933  0.16262  1.0000
  N   N4        1.0  0.36635  0.07067  0.83738  1.0000
  N   N5        1.0  0.77670  0.31760  0.78194  1.0000
  N   N6        1.0  0.22330  0.68240  0.21806  1.0000
  O   O1        1.0  0.71739  0.39554  0.22194  1.0000
  O   O2        1.0  0.28262  0.60446  0.77806  1.0000
  O   O3        1.0  0.02841  0.39936  0.13079  1.0000
  O   O4        1.0  0.97159  0.60064  0.86921  1.0000
  O   O5        1.0  0.57226  0.59145  0.40067  1.0000
  O   O6        1.0  0.42774  0.40855  0.59933  1.0000
  O   O7        1.0  0.47131  0.86284  0.39365  1.0000
  O   O8        1.0  0.52869  0.13717  0.60635  1.0000
  O   O9        1.0  0.77721  0.44391  0.69454  1.0000
  O   O10       1.0  0.22278  0.55609  0.30546  1.0000
  O   O11       1.0  0.87170  0.25088  0.46485  1.0000
  O   O12       1.0  0.12830  0.74912  0.53515  1.0000
  O   O13       1.0  0.19435  0.26198  0.46199  1.0000
  O   O14       1.0  0.80565  0.73802  0.53801  1.0000
  O   O15       1.0  0.71001  0.04278  0.38629  1.0000
  O   O16       1.0  0.28999  0.95722  0.61371  1.0000
  O   O17       1.0  0.41417  0.23885  0.23114  1.0000
  O   O18       1.0  0.58582  0.76115  0.76886  1.0000
