data_image0
_chemical_formula_structural       Y2H14C22N6O16
_chemical_formula_sum              "Y2 H14 C22 N6 O16"
_cell_length_a       6.90091
_cell_length_b       8.69388
_cell_length_c       12.3869
_cell_angle_alpha    97.7435
_cell_angle_beta     99.5851
_cell_angle_gamma    107.39

_space_group_name_H-M_alt    "P 1"
_space_group_IT_number       1

loop_
  _space_group_symop_operation_xyz
  'x, y, z'

loop_
  _atom_site_type_symbol
  _atom_site_label
  _atom_site_symmetry_multiplicity
  _atom_site_fract_x
  _atom_site_fract_y
  _atom_site_fract_z
  _atom_site_occupancy
  Y   Y1        1.0  0.88564  0.23851  0.94843  1.0000
  Y   Y2        1.0  0.11435  0.76149  0.05157  1.0000
  H   H1        1.0  0.47642  0.32628  0.95160  1.0000
  H   H2        1.0  0.52358  0.67372  0.04840  1.0000
  H   H3        1.0  0.67385  0.47477  0.02557  1.0000
  H   H4        1.0  0.32615  0.52524  0.97443  1.0000
  H   H5        1.0  0.69566  0.39963  0.18597  1.0000
  H   H6        1.0  0.30434  0.60038  0.81403  1.0000
  H   H7        1.0  0.69428  0.38013  0.38434  1.0000
  H   H8        1.0  0.30572  0.61987  0.61566  1.0000
  H   H9        1.0  0.79060  0.90275  0.45519  1.0000
  H   H10       1.0  0.20940  0.09725  0.54481  1.0000
  H   H11       1.0  0.78876  0.90064  0.24971  1.0000
  H   H12       1.0  0.21123  0.09936  0.75029  1.0000
  H   H13       1.0  0.76108  0.40374  0.57880  1.0000
  H   H14       1.0  0.23892  0.59626  0.42120  1.0000
  C   C1        1.0  0.71761  0.50615  0.24991  1.0000
  C   C2        1.0  0.28239  0.49385  0.75008  1.0000
  C   C3        1.0  0.71892  0.49974  0.36085  1.0000
  C   C4        1.0  0.28108  0.50027  0.63915  1.0000
  C   C5        1.0  0.75112  0.64347  0.43858  1.0000
  C   C6        1.0  0.24889  0.35653  0.56142  1.0000
  C   C7        1.0  0.77092  0.78990  0.39802  1.0000
  C   C8        1.0  0.22908  0.21010  0.60198  1.0000
  C   C9        1.0  0.77021  0.79248  0.28708  1.0000
  C   C10       1.0  0.22979  0.20752  0.71292  1.0000
  C   C11       1.0  0.77185  0.64958  0.55767  1.0000
  C   C12       1.0  0.22815  0.35042  0.44233  1.0000
  C   C13       1.0  0.82187  0.58068  0.72396  1.0000
  C   C14       1.0  0.17813  0.41932  0.27603  1.0000
  C   C15       1.0  0.83396  0.74637  0.73544  1.0000
  C   C16       1.0  0.16604  0.25363  0.26456  1.0000
  C   C17       1.0  0.86796  0.86868  0.83995  1.0000
  C   C18       1.0  0.13204  0.13131  0.16005  1.0000
  C   C19       1.0  0.44464  0.97940  0.93734  1.0000
  C   C20       1.0  0.55535  0.02059  0.06267  1.0000
  C   C21       1.0  0.85647  0.46965  0.79969  1.0000
  C   C22       1.0  0.14354  0.53035  0.20031  1.0000
  N   N1        1.0  0.75032  0.65249  0.21574  1.0000
  N   N2        1.0  0.24968  0.34751  0.78425  1.0000
  N   N3        1.0  0.77984  0.52258  0.61100  1.0000
  N   N4        1.0  0.22017  0.47742  0.38900  1.0000
  N   N5        1.0  0.80291  0.78587  0.63217  1.0000
  N   N6        1.0  0.19709  0.21414  0.36783  1.0000
  O   O1        1.0  0.78950  0.31598  0.76133  1.0000
  O   O2        1.0  0.21049  0.68402  0.23868  1.0000
  O   O3        1.0  0.96036  0.52867  0.90004  1.0000
  O   O4        1.0  0.03964  0.47133  0.09996  1.0000
  O   O5        1.0  0.85391  0.81590  0.93036  1.0000
  O   O6        1.0  0.14608  0.18410  0.06964  1.0000
  O   O7        1.0  0.90425  0.01698  0.83010  1.0000
  O   O8        1.0  0.09575  0.98302  0.16990  1.0000
  O   O9        1.0  0.76273  0.66144  0.11008  1.0000
  O   O10       1.0  0.23727  0.33856  0.88992  1.0000
  O   O11       1.0  0.26214  0.87622  0.91057  1.0000
  O   O12       1.0  0.73785  0.12378  0.08944  1.0000
  O   O13       1.0  0.54417  0.05150  0.87159  1.0000
  O   O14       1.0  0.45582  0.94849  0.12841  1.0000
  O   O15       1.0  0.62816  0.36092  0.98157  1.0000
  O   O16       1.0  0.37184  0.63908  0.01842  1.0000
