data_image0
_chemical_formula_structural       Co2H24C32N4O8
_chemical_formula_sum              "Co2 H24 C32 N4 O8"
_cell_length_a       8.08091
_cell_length_b       10.4588
_cell_length_c       10.9339
_cell_angle_alpha    90.0001
_cell_angle_beta     88.9421
_cell_angle_gamma    90.0001

_space_group_name_H-M_alt    "P 1"
_space_group_IT_number       1

loop_
  _space_group_symop_operation_xyz
  'x, y, z'

loop_
  _atom_site_type_symbol
  _atom_site_label
  _atom_site_symmetry_multiplicity
  _atom_site_fract_x
  _atom_site_fract_y
  _atom_site_fract_z
  _atom_site_occupancy
  Co  Co1       1.0  1.00000  0.50000  0.00000  1.0000
  Co  Co2       1.0  0.50001  1.00000  0.50000  1.0000
  H   H1        1.0  0.29845  0.61262  0.08736  1.0000
  H   H2        1.0  0.20154  0.11263  0.41265  1.0000
  H   H3        1.0  0.70155  0.38737  0.91263  1.0000
  H   H4        1.0  0.79846  0.88737  0.58737  1.0000
  H   H5        1.0  0.55582  0.53666  0.18588  1.0000
  H   H6        1.0  0.94417  0.03666  0.31413  1.0000
  H   H7        1.0  0.44418  0.46335  0.81411  1.0000
  H   H8        1.0  0.05583  0.96334  0.68589  1.0000
  H   H9        1.0  0.33853  0.15991  0.20054  1.0000
  H   H10       1.0  0.16148  0.65993  0.29944  1.0000
  H   H11       1.0  0.66146  0.84009  0.79947  1.0000
  H   H12       1.0  0.83854  0.34008  0.70054  1.0000
  H   H13       1.0  0.09234  0.25042  0.09936  1.0000
  H   H14       1.0  0.40766  0.75043  0.40062  1.0000
  H   H15       1.0  0.90765  0.74958  0.90064  1.0000
  H   H16       1.0  0.59235  0.24957  0.59936  1.0000
  H   H17       1.0  0.74887  0.15952  0.37108  1.0000
  H   H18       1.0  0.75114  0.65952  0.12893  1.0000
  H   H19       1.0  0.25113  0.84049  0.62892  1.0000
  H   H20       1.0  0.24886  0.34049  0.87108  1.0000
  H   H21       1.0  0.89120  0.28559  0.25424  1.0000
  H   H22       1.0  0.60880  0.78558  0.24576  1.0000
  H   H23       1.0  0.10879  0.71441  0.74576  1.0000
  H   H24       1.0  0.39121  0.21442  0.75424  1.0000
  C   C1        1.0  0.31324  0.51328  0.11433  1.0000
  C   C2        1.0  0.18674  0.01328  0.38567  1.0000
  C   C3        1.0  0.68674  0.48672  0.88567  1.0000
  C   C4        1.0  0.81327  0.98672  0.61433  1.0000
  C   C5        1.0  0.45575  0.46980  0.16924  1.0000
  C   C6        1.0  0.04424  0.96981  0.33077  1.0000
  C   C7        1.0  0.54424  0.53020  0.83076  1.0000
  C   C8        1.0  0.95577  0.03019  0.66924  1.0000
  C   C9        1.0  0.33572  0.26107  0.17769  1.0000
  C   C10       1.0  0.16428  0.76108  0.32230  1.0000
  C   C11       1.0  0.66428  0.73893  0.82232  1.0000
  C   C12       1.0  0.83573  0.23892  0.67769  1.0000
  C   C13       1.0  0.19725  0.31082  0.12183  1.0000
  C   C14       1.0  0.30275  0.81083  0.37816  1.0000
  C   C15       1.0  0.80274  0.68918  0.87817  1.0000
  C   C16       1.0  0.69727  0.18917  0.62183  1.0000
  C   C17       1.0  0.47234  0.34030  0.20151  1.0000
  C   C18       1.0  0.02766  0.84031  0.29849  1.0000
  C   C19       1.0  0.52765  0.65970  0.79850  1.0000
  C   C20       1.0  0.97234  0.15969  0.70151  1.0000
  C   C21       1.0  0.62531  0.29021  0.25309  1.0000
  C   C22       1.0  0.87468  0.79021  0.24691  1.0000
  C   C23       1.0  0.37468  0.70979  0.74691  1.0000
  C   C24       1.0  0.12532  0.20979  0.75309  1.0000
  C   C25       1.0  0.62651  0.19430  0.34292  1.0000
  C   C26       1.0  0.87348  0.69430  0.15709  1.0000
  C   C27       1.0  0.37348  0.80570  0.65709  1.0000
  C   C28       1.0  0.12652  0.30570  0.84291  1.0000
  C   C29       1.0  0.78374  0.33227  0.20992  1.0000
  C   C30       1.0  0.71625  0.83226  0.29008  1.0000
  C   C31       1.0  0.21625  0.66774  0.79007  1.0000
  C   C32       1.0  0.28376  0.16774  0.70992  1.0000
  N   N1        1.0  0.18499  0.43516  0.08877  1.0000
  N   N2        1.0  0.31502  0.93517  0.41124  1.0000
  N   N3        1.0  0.81501  0.56484  0.91124  1.0000
  N   N4        1.0  0.68499  0.06483  0.58876  1.0000
  O   O1        1.0  0.49752  0.14684  0.39482  1.0000
  O   O2        1.0  0.00249  0.64684  0.10518  1.0000
  O   O3        1.0  0.50249  0.85315  0.60518  1.0000
  O   O4        1.0  0.99751  0.35315  0.89482  1.0000
  O   O5        1.0  0.80870  0.41330  0.12688  1.0000
  O   O6        1.0  0.69128  0.91331  0.37311  1.0000
  O   O7        1.0  0.19129  0.58669  0.87311  1.0000
  O   O8        1.0  0.30873  0.08671  0.62689  1.0000
