data_image0
_chemical_formula_structural       Ni2H32C12O16
_chemical_formula_sum              "Ni2 H32 C12 O16"
_cell_length_a       4.69093
_cell_length_b       9.63188
_cell_length_c       11.6908
_cell_angle_alpha    90.0001
_cell_angle_beta     98.6714
_cell_angle_gamma    90.0001

_space_group_name_H-M_alt    "P 1"
_space_group_IT_number       1

loop_
  _space_group_symop_operation_xyz
  'x, y, z'

loop_
  _atom_site_type_symbol
  _atom_site_label
  _atom_site_symmetry_multiplicity
  _atom_site_fract_x
  _atom_site_fract_y
  _atom_site_fract_z
  _atom_site_occupancy
  Ni  Ni1       1.0  1.00000  0.50000  0.50000  1.0000
  Ni  Ni2       1.0  0.00000  0.00000  0.00000  1.0000
  H   H1        1.0  0.88384  0.30467  0.62384  1.0000
  H   H2        1.0  0.88384  0.19533  0.12384  1.0000
  H   H3        1.0  0.11616  0.69534  0.37616  1.0000
  H   H4        1.0  0.11616  0.80467  0.87616  1.0000
  H   H5        1.0  0.59397  0.32417  0.52539  1.0000
  H   H6        1.0  0.59397  0.17584  0.02539  1.0000
  H   H7        1.0  0.40603  0.67583  0.47461  1.0000
  H   H8        1.0  0.40604  0.82417  0.97461  1.0000
  H   H9        1.0  0.41627  0.43263  0.37641  1.0000
  H   H10       1.0  0.41627  0.06737  0.87641  1.0000
  H   H11       1.0  0.58373  0.56737  0.62360  1.0000
  H   H12       1.0  0.58373  0.93263  0.12360  1.0000
  H   H13       1.0  0.18686  0.30762  0.35573  1.0000
  H   H14       1.0  0.18686  0.19238  0.85573  1.0000
  H   H15       1.0  0.81314  0.69238  0.64427  1.0000
  H   H16       1.0  0.81314  0.80762  0.14427  1.0000
  H   H17       1.0  0.65949  0.34443  0.86324  1.0000
  H   H18       1.0  0.65950  0.15557  0.36324  1.0000
  H   H19       1.0  0.34050  0.65557  0.13676  1.0000
  H   H20       1.0  0.34050  0.84443  0.63676  1.0000
  H   H21       1.0  0.66214  0.52088  0.82136  1.0000
  H   H22       1.0  0.66214  0.97912  0.32136  1.0000
  H   H23       1.0  0.33785  0.47912  0.17864  1.0000
  H   H24       1.0  0.33786  0.02088  0.67864  1.0000
  H   H25       1.0  0.26360  0.38854  0.97704  1.0000
  H   H26       1.0  0.26360  0.11146  0.47704  1.0000
  H   H27       1.0  0.73640  0.61146  0.02296  1.0000
  H   H28       1.0  0.73641  0.88854  0.52296  1.0000
  H   H29       1.0  0.23021  0.56165  0.92794  1.0000
  H   H30       1.0  0.23021  0.93835  0.42794  1.0000
  H   H31       1.0  0.76979  0.43835  0.07206  1.0000
  H   H32       1.0  0.76979  0.06165  0.57206  1.0000
  C   C1        1.0  0.29655  0.40600  0.74045  1.0000
  C   C2        1.0  0.29654  0.09400  0.24045  1.0000
  C   C3        1.0  0.70345  0.59400  0.25955  1.0000
  C   C4        1.0  0.70345  0.90600  0.75955  1.0000
  C   C5        1.0  0.52268  0.43666  0.84365  1.0000
  C   C6        1.0  0.52268  0.06334  0.34365  1.0000
  C   C7        1.0  0.47733  0.56334  0.15635  1.0000
  C   C8        1.0  0.47733  0.93666  0.65635  1.0000
  C   C9        1.0  0.38608  0.47697  0.95005  1.0000
  C   C10       1.0  0.38608  0.02303  0.45005  1.0000
  C   C11       1.0  0.61392  0.52303  0.04995  1.0000
  C   C12       1.0  0.61392  0.97697  0.54995  1.0000
  O   O1        1.0  0.80597  0.31627  0.53923  1.0000
  O   O2        1.0  0.80597  0.18372  0.03923  1.0000
  O   O3        1.0  0.19403  0.68372  0.46077  1.0000
  O   O4        1.0  0.19403  0.81627  0.96077  1.0000
  O   O5        1.0  0.27264  0.37828  0.41406  1.0000
  O   O6        1.0  0.27264  0.12172  0.91406  1.0000
  O   O7        1.0  0.72736  0.62172  0.58595  1.0000
  O   O8        1.0  0.72736  0.87828  0.08595  1.0000
  O   O9        1.0  0.29944  0.48198  0.65007  1.0000
  O   O10       1.0  0.29944  0.01802  0.15007  1.0000
  O   O11       1.0  0.70056  0.51801  0.34993  1.0000
  O   O12       1.0  0.70056  0.98198  0.84993  1.0000
  O   O13       1.0  0.11195  0.31050  0.74657  1.0000
  O   O14       1.0  0.11196  0.18949  0.24657  1.0000
  O   O15       1.0  0.88804  0.68949  0.25343  1.0000
  O   O16       1.0  0.88805  0.81050  0.75343  1.0000
