data_image0
_chemical_formula_structural       Mn4H28C28N32
_chemical_formula_sum              "Mn4 H28 C28 N32"
_cell_length_a       8.11012
_cell_length_b       10.1342
_cell_length_c       12.5516
_cell_angle_alpha    90.0266
_cell_angle_beta     90.006
_cell_angle_gamma    106.52

_space_group_name_H-M_alt    "P 1"
_space_group_IT_number       1

loop_
  _space_group_symop_operation_xyz
  'x, y, z'

loop_
  _atom_site_type_symbol
  _atom_site_label
  _atom_site_symmetry_multiplicity
  _atom_site_fract_x
  _atom_site_fract_y
  _atom_site_fract_z
  _atom_site_occupancy
  Mn  Mn1       1.0  0.14788  0.12966  0.56506  1.0000
  Mn  Mn2       1.0  0.35007  0.86854  0.06857  1.0000
  Mn  Mn3       1.0  0.85067  0.86906  0.43208  1.0000
  Mn  Mn4       1.0  0.64853  0.13026  0.93450  1.0000
  H   H1        1.0  0.11229  0.44469  0.57643  1.0000
  H   H2        1.0  0.38555  0.55360  0.07761  1.0000
  H   H3        1.0  0.88520  0.55379  0.42184  1.0000
  H   H4        1.0  0.61206  0.44494  0.92422  1.0000
  H   H5        1.0  0.18955  0.65124  0.45769  1.0000
  H   H6        1.0  0.30818  0.34755  0.95824  1.0000
  H   H7        1.0  0.80858  0.34804  0.54135  1.0000
  H   H8        1.0  0.69036  0.65186  0.04271  1.0000
  H   H9        1.0  0.38891  0.65549  0.30289  1.0000
  H   H10       1.0  0.11033  0.34459  0.80278  1.0000
  H   H11       1.0  0.61138  0.34528  0.69709  1.0000
  H   H12       1.0  0.89047  0.65633  0.19718  1.0000
  H   H13       1.0  0.50759  0.45381  0.27772  1.0000
  H   H14       1.0  0.99343  0.54727  0.77767  1.0000
  H   H15       1.0  0.49411  0.54774  0.72226  1.0000
  H   H16       1.0  0.00863  0.45431  0.22233  1.0000
  H   H17       1.0  0.52784  0.22528  0.33917  1.0000
  H   H18       1.0  0.97428  0.77582  0.83913  1.0000
  H   H19       1.0  0.47357  0.77581  0.66022  1.0000
  H   H20       1.0  0.02739  0.22518  0.16131  1.0000
  H   H21       1.0  0.51362  0.00633  0.37680  1.0000
  H   H22       1.0  0.98834  0.99461  0.87767  1.0000
  H   H23       1.0  0.48768  0.99446  0.62210  1.0000
  H   H24       1.0  0.01322  0.00618  0.12304  1.0000
  H   H25       1.0  0.33339  0.90807  0.45243  1.0000
  H   H26       1.0  0.16869  0.09197  0.95370  1.0000
  H   H27       1.0  0.66808  0.09234  0.54648  1.0000
  H   H28       1.0  0.83300  0.90856  0.04702  1.0000
  C   C1        1.0  0.19798  0.45041  0.50859  1.0000
  C   C2        1.0  0.30052  0.54852  0.00950  1.0000
  C   C3        1.0  0.80046  0.54881  0.49007  1.0000
  C   C4        1.0  0.69810  0.45078  0.99190  1.0000
  C   C5        1.0  0.24227  0.56571  0.44216  1.0000
  C   C6        1.0  0.25611  0.43343  0.94273  1.0000
  C   C7        1.0  0.75651  0.43391  0.55693  1.0000
  C   C8        1.0  0.74301  0.56629  0.05820  1.0000
  C   C9        1.0  0.35374  0.56829  0.35733  1.0000
  C   C10       1.0  0.14555  0.43158  0.85752  1.0000
  C   C11       1.0  0.64626  0.43213  0.64228  1.0000
  C   C12       1.0  0.85483  0.56893  0.14287  1.0000
  C   C13       1.0  0.41957  0.45654  0.34268  1.0000
  C   C14       1.0  0.08063  0.54384  0.84293  1.0000
  C   C15       1.0  0.58111  0.54427  0.65690  1.0000
  C   C16       1.0  0.92039  0.45702  0.15748  1.0000
  C   C17       1.0  0.36767  0.34446  0.41185  1.0000
  C   C18       1.0  0.13255  0.65561  0.91247  1.0000
  C   C19       1.0  0.63258  0.65589  0.58727  1.0000
  C   C20       1.0  0.86795  0.34479  0.08841  1.0000
  C   C21       1.0  0.43027  0.22318  0.40027  1.0000
  C   C22       1.0  0.07071  0.77727  0.90087  1.0000
  C   C23       1.0  0.57057  0.77745  0.59885  1.0000
  C   C24       1.0  0.93039  0.22338  0.09989  1.0000
  C   C25       1.0  0.44176  0.00241  0.45166  1.0000
  C   C26       1.0  0.05972  0.99806  0.95270  1.0000
  C   C27       1.0  0.55950  0.99818  0.54722  1.0000
  C   C28       1.0  0.94174  0.00264  0.04804  1.0000
  N   N1        1.0  0.25718  0.34141  0.49353  1.0000
  N   N2        1.0  0.24227  0.65798  0.99446  1.0000
  N   N3        1.0  0.74204  0.65821  0.50514  1.0000
  N   N4        1.0  0.75710  0.34170  0.00693  1.0000
  N   N5        1.0  0.37251  0.11932  0.46224  1.0000
  N   N6        1.0  0.12791  0.88062  0.96342  1.0000
  N   N7        1.0  0.62827  0.88102  0.53661  1.0000
  N   N8        1.0  0.87315  0.11988  0.03746  1.0000
  N   N9        1.0  0.02460  0.90948  0.57453  1.0000
  N   N10       1.0  0.47426  0.08978  0.07560  1.0000
  N   N11       1.0  0.97428  0.09014  0.42414  1.0000
  N   N12       1.0  0.52541  0.90978  0.92652  1.0000
  N   N13       1.0  0.08782  0.82570  0.61197  1.0000
  N   N14       1.0  0.41147  0.17398  0.11296  1.0000
  N   N15       1.0  0.91124  0.17415  0.38690  1.0000
  N   N16       1.0  0.58793  0.82588  0.88841  1.0000
  N   N17       1.0  0.14844  0.74356  0.64755  1.0000
  N   N18       1.0  0.35103  0.25637  0.14839  1.0000
  N   N19       1.0  0.85067  0.25639  0.35144  1.0000
  N   N20       1.0  0.64807  0.74369  0.85231  1.0000
  N   N21       1.0  0.96618  0.21196  0.64972  1.0000
  N   N22       1.0  0.53134  0.78664  0.15019  1.0000
  N   N23       1.0  0.03374  0.78818  0.35129  1.0000
  N   N24       1.0  0.46725  0.21291  0.84986  1.0000
  N   N25       1.0  0.87156  0.16092  0.72008  1.0000
  N   N26       1.0  0.62775  0.83690  0.22005  1.0000
  N   N27       1.0  0.12813  0.83828  0.28049  1.0000
  N   N28       1.0  0.37229  0.16190  0.77960  1.0000
  N   N29       1.0  0.77658  0.10970  0.78924  1.0000
  N   N30       1.0  0.72449  0.88757  0.28875  1.0000
  N   N31       1.0  0.22275  0.88888  0.21085  1.0000
  N   N32       1.0  0.27698  0.11069  0.71053  1.0000
