data_image0
_chemical_formula_structural       Cu2H24C32N4O8
_chemical_formula_sum              "Cu2 H24 C32 N4 O8"
_cell_length_a       8.26038
_cell_length_b       10.0371
_cell_length_c       11.7187
_cell_angle_alpha    89.9983
_cell_angle_beta     89.3662
_cell_angle_gamma    89.9998

_space_group_name_H-M_alt    "P 1"
_space_group_IT_number       1

loop_
  _space_group_symop_operation_xyz
  'x, y, z'

loop_
  _atom_site_type_symbol
  _atom_site_label
  _atom_site_symmetry_multiplicity
  _atom_site_fract_x
  _atom_site_fract_y
  _atom_site_fract_z
  _atom_site_occupancy
  Cu  Cu1       1.0  0.00000  0.50000  1.00000  1.0000
  Cu  Cu2       1.0  0.50000  1.00000  0.50000  1.0000
  H   H1        1.0  0.12523  0.70694  0.27910  1.0000
  H   H2        1.0  0.37477  0.20694  0.22090  1.0000
  H   H3        1.0  0.87477  0.29306  0.72090  1.0000
  H   H4        1.0  0.62523  0.79305  0.77910  1.0000
  H   H5        1.0  0.26688  0.81820  0.39230  1.0000
  H   H6        1.0  0.23311  0.31821  0.10769  1.0000
  H   H7        1.0  0.73312  0.18179  0.60769  1.0000
  H   H8        1.0  0.76689  0.68178  0.89232  1.0000
  H   H9        1.0  0.43520  0.45770  0.16207  1.0000
  H   H10       1.0  0.06481  0.95771  0.33794  1.0000
  H   H11       1.0  0.56481  0.54230  0.83792  1.0000
  H   H12       1.0  0.93519  0.04230  0.66206  1.0000
  H   H13       1.0  0.68598  0.38724  0.05778  1.0000
  H   H14       1.0  0.81402  0.88724  0.44223  1.0000
  H   H15       1.0  0.31403  0.61276  0.94221  1.0000
  H   H16       1.0  0.18598  0.11276  0.55778  1.0000
  H   H17       1.0  0.67438  0.83065  0.23409  1.0000
  H   H18       1.0  0.82562  0.33066  0.26591  1.0000
  H   H19       1.0  0.32563  0.16935  0.76590  1.0000
  H   H20       1.0  0.17437  0.66934  0.73410  1.0000
  H   H21       1.0  0.91300  0.74557  0.12496  1.0000
  H   H22       1.0  0.58700  0.24558  0.37504  1.0000
  H   H23       1.0  0.08700  0.25443  0.87503  1.0000
  H   H24       1.0  0.41300  0.75443  0.62497  1.0000
  C   C1        1.0  0.22633  0.66045  0.22893  1.0000
  C   C2        1.0  0.27366  0.16046  0.27106  1.0000
  C   C3        1.0  0.77367  0.33956  0.77106  1.0000
  C   C4        1.0  0.72634  0.83954  0.72894  1.0000
  C   C5        1.0  0.38461  0.69785  0.26653  1.0000
  C   C6        1.0  0.11539  0.19785  0.23348  1.0000
  C   C7        1.0  0.61540  0.30215  0.73347  1.0000
  C   C8        1.0  0.88460  0.80214  0.76653  1.0000
  C   C9        1.0  0.38664  0.78689  0.35891  1.0000
  C   C10       1.0  0.11336  0.28688  0.14109  1.0000
  C   C11       1.0  0.61337  0.21311  0.64109  1.0000
  C   C12       1.0  0.88664  0.71311  0.85891  1.0000
  C   C13       1.0  0.53145  0.65115  0.20837  1.0000
  C   C14       1.0  0.96855  0.15115  0.29164  1.0000
  C   C15       1.0  0.46855  0.34886  0.79162  1.0000
  C   C16       1.0  0.03144  0.84886  0.70837  1.0000
  C   C17       1.0  0.53883  0.52423  0.15729  1.0000
  C   C18       1.0  0.96117  0.02423  0.34272  1.0000
  C   C19       1.0  0.46117  0.47577  0.84270  1.0000
  C   C20       1.0  0.03883  0.97577  0.65729  1.0000
  C   C21       1.0  0.67727  0.48432  0.09874  1.0000
  C   C22       1.0  0.82273  0.98432  0.40127  1.0000
  C   C23       1.0  0.32274  0.51568  0.90125  1.0000
  C   C24       1.0  0.17726  0.01568  0.59874  1.0000
  C   C25       1.0  0.80467  0.68480  0.13681  1.0000
  C   C26       1.0  0.69533  0.18481  0.36319  1.0000
  C   C27       1.0  0.19533  0.31520  0.86318  1.0000
  C   C28       1.0  0.30467  0.81520  0.63682  1.0000
  C   C29       1.0  0.67104  0.73133  0.19725  1.0000
  C   C30       1.0  0.82895  0.23133  0.30275  1.0000
  C   C31       1.0  0.32896  0.26868  0.80274  1.0000
  C   C32       1.0  0.17104  0.76867  0.69726  1.0000
  N   N1        1.0  0.80842  0.56329  0.08765  1.0000
  N   N2        1.0  0.69158  0.06329  0.41236  1.0000
  N   N3        1.0  0.19158  0.43671  0.91235  1.0000
  N   N4        1.0  0.30842  0.93671  0.58765  1.0000
  O   O1        1.0  0.19328  0.58635  0.14687  1.0000
  O   O2        1.0  0.30673  0.08634  0.35315  1.0000
  O   O3        1.0  0.80672  0.41365  0.85313  1.0000
  O   O4        1.0  0.69327  0.91365  0.64686  1.0000
  O   O5        1.0  0.51258  0.83160  0.40784  1.0000
  O   O6        1.0  0.98742  0.33159  0.09215  1.0000
  O   O7        1.0  0.48743  0.16840  0.59216  1.0000
  O   O8        1.0  0.01258  0.66840  0.90785  1.0000
