data_image0
_chemical_formula_structural       Cd2H40C52Br4N4O8
_chemical_formula_sum              "Cd2 H40 C52 Br4 N4 O8"
_cell_length_a       8.71452
_cell_length_b       10.3749
_cell_length_c       14.7565
_cell_angle_alpha    80.0139
_cell_angle_beta     73.6275
_cell_angle_gamma    65.2175

_space_group_name_H-M_alt    "P 1"
_space_group_IT_number       1

loop_
  _space_group_symop_operation_xyz
  'x, y, z'

loop_
  _atom_site_type_symbol
  _atom_site_label
  _atom_site_symmetry_multiplicity
  _atom_site_fract_x
  _atom_site_fract_y
  _atom_site_fract_z
  _atom_site_occupancy
  Cd  Cd1       1.0  0.63967  0.25041  0.74787  1.0000
  Cd  Cd2       1.0  0.36032  0.74959  0.25213  1.0000
  H   H1        1.0  0.07701  0.10138  0.94368  1.0000
  H   H2        1.0  0.12016  0.40042  0.55866  1.0000
  H   H3        1.0  0.92299  0.89862  0.05631  1.0000
  H   H4        1.0  0.87983  0.59959  0.44135  1.0000
  H   H5        1.0  0.58051  0.43440  0.05150  1.0000
  H   H6        1.0  0.06733  0.06586  0.44752  1.0000
  H   H7        1.0  0.41948  0.56560  0.94851  1.0000
  H   H8        1.0  0.93267  0.93414  0.55248  1.0000
  H   H9        1.0  0.13586  0.06394  0.10632  1.0000
  H   H10       1.0  0.30588  0.43498  0.39859  1.0000
  H   H11       1.0  0.86414  0.93607  0.89368  1.0000
  H   H12       1.0  0.69411  0.56502  0.60141  1.0000
  H   H13       1.0  0.66418  0.39023  0.20732  1.0000
  H   H14       1.0  0.26334  0.10821  0.29405  1.0000
  H   H15       1.0  0.33582  0.60977  0.79268  1.0000
  H   H16       1.0  0.73666  0.89178  0.70596  1.0000
  H   H17       1.0  0.91540  0.28101  0.28330  1.0000
  H   H18       1.0  0.47999  0.21541  0.22183  1.0000
  H   H19       1.0  0.08461  0.71898  0.71670  1.0000
  H   H20       1.0  0.52000  0.78459  0.77817  1.0000
  H   H21       1.0  0.05052  0.10073  0.25414  1.0000
  H   H22       1.0  0.40824  0.39543  0.25126  1.0000
  H   H23       1.0  0.94950  0.89927  0.74585  1.0000
  H   H24       1.0  0.59176  0.60457  0.74874  1.0000
  H   H25       1.0  0.72754  0.28107  0.43188  1.0000
  H   H26       1.0  0.44089  0.21877  0.07044  1.0000
  H   H27       1.0  0.27247  0.71893  0.56812  1.0000
  H   H28       1.0  0.55911  0.78123  0.92957  1.0000
  H   H29       1.0  0.81153  0.97767  0.23819  1.0000
  H   H30       1.0  0.03135  0.51891  0.26406  1.0000
  H   H31       1.0  0.18848  0.02233  0.76180  1.0000
  H   H32       1.0  0.96865  0.48110  0.73594  1.0000
  H   H33       1.0  0.53598  0.18914  0.55012  1.0000
  H   H34       1.0  0.27425  0.31210  0.95035  1.0000
  H   H35       1.0  0.46403  0.81085  0.44988  1.0000
  H   H36       1.0  0.72576  0.68790  0.04965  1.0000
  H   H37       1.0  0.60985  0.89122  0.35301  1.0000
  H   H38       1.0  0.85657  0.60657  0.14736  1.0000
  H   H39       1.0  0.39016  0.10878  0.64698  1.0000
  H   H40       1.0  0.14343  0.39343  0.85264  1.0000
  C   C1        1.0  0.76711  0.26518  0.89697  1.0000
  C   C2        1.0  0.92839  0.23716  0.60140  1.0000
  C   C3        1.0  0.23289  0.73482  0.10303  1.0000
  C   C4        1.0  0.07161  0.76285  0.39860  1.0000
  C   C5        1.0  0.81876  0.26219  0.98703  1.0000
  C   C6        1.0  0.06736  0.23898  0.51324  1.0000
  C   C7        1.0  0.18124  0.73781  0.01298  1.0000
  C   C8        1.0  0.93262  0.76102  0.48677  1.0000
  C   C9        1.0  0.98041  0.16411  0.00117  1.0000
  C   C10       1.0  0.14456  0.33678  0.50095  1.0000
  C   C11       1.0  0.01959  0.83589  0.99883  1.0000
  C   C12       1.0  0.85543  0.66323  0.49905  1.0000
  C   C13       1.0  0.70327  0.34947  0.06027  1.0000
  C   C14       1.0  0.11359  0.15066  0.43986  1.0000
  C   C15       1.0  0.29673  0.65053  0.93973  1.0000
  C   C16       1.0  0.88641  0.84934  0.56015  1.0000
  C   C17       1.0  0.01586  0.14313  0.08959  1.0000
  C   C18       1.0  0.24860  0.35616  0.41397  1.0000
  C   C19       1.0  0.98415  0.85687  0.91040  1.0000
  C   C20       1.0  0.75139  0.64384  0.58603  1.0000
  C   C21       1.0  0.74506  0.32640  0.14682  1.0000
  C   C22       1.0  0.21954  0.17250  0.35471  1.0000
  C   C23       1.0  0.25494  0.67360  0.85318  1.0000
  C   C24       1.0  0.78045  0.82751  0.64529  1.0000
  C   C25       1.0  0.92000  0.18482  0.25923  1.0000
  C   C26       1.0  0.36587  0.31233  0.24486  1.0000
  C   C27       1.0  0.08001  0.81518  0.74076  1.0000
  C   C28       1.0  0.63413  0.68767  0.75515  1.0000
  C   C29       1.0  0.78616  0.13563  0.32656  1.0000
  C   C30       1.0  0.25039  0.36252  0.17583  1.0000
  C   C31       1.0  0.21385  0.86436  0.67343  1.0000
  C   C32       1.0  0.74960  0.63749  0.82417  1.0000
  C   C33       1.0  0.70483  0.19341  0.41492  1.0000
  C   C34       1.0  0.31401  0.30601  0.08695  1.0000
  C   C35       1.0  0.29518  0.80658  0.58508  1.0000
  C   C36       1.0  0.68599  0.69399  0.91305  1.0000
  C   C37       1.0  0.74878  0.02646  0.30597  1.0000
  C   C38       1.0  0.08389  0.47103  0.19591  1.0000
  C   C39       1.0  0.25122  0.97354  0.69402  1.0000
  C   C40       1.0  0.91612  0.52897  0.80409  1.0000
  C   C41       1.0  0.59364  0.14075  0.48224  1.0000
  C   C42       1.0  0.21672  0.35935  0.01863  1.0000
  C   C43       1.0  0.40637  0.85924  0.51775  1.0000
  C   C44       1.0  0.78328  0.64065  0.98137  1.0000
  C   C45       1.0  0.63502  0.97564  0.37278  1.0000
  C   C46       1.0  0.98541  0.52260  0.12809  1.0000
  C   C47       1.0  0.36499  0.02436  0.62721  1.0000
  C   C48       1.0  0.01460  0.47740  0.87191  1.0000
  C   C49       1.0  0.55703  0.02950  0.46347  1.0000
  C   C50       1.0  0.05057  0.47006  0.03695  1.0000
  C   C51       1.0  0.44298  0.97049  0.53652  1.0000
  C   C52       1.0  0.94944  0.52994  0.96305  1.0000
  Br  Br1       1.0  0.51013  0.06306  0.83894  1.0000
  Br  Br2       1.0  0.40679  0.43782  0.65903  1.0000
  Br  Br3       1.0  0.48986  0.93694  0.16106  1.0000
  Br  Br4       1.0  0.59321  0.56218  0.34097  1.0000
  N   N1        1.0  0.89434  0.21914  0.16153  1.0000
  N   N2        1.0  0.27627  0.27922  0.34157  1.0000
  N   N3        1.0  0.10567  0.78087  0.83847  1.0000
  N   N4        1.0  0.72372  0.72078  0.65843  1.0000
  O   O1        1.0  0.62581  0.36359  0.88242  1.0000
  O   O2        1.0  0.87258  0.13813  0.61509  1.0000
  O   O3        1.0  0.37417  0.63641  0.11759  1.0000
  O   O4        1.0  0.12742  0.86187  0.38491  1.0000
  O   O5        1.0  0.86370  0.16316  0.84413  1.0000
  O   O6        1.0  0.86851  0.34050  0.65357  1.0000
  O   O7        1.0  0.13629  0.83685  0.15587  1.0000
  O   O8        1.0  0.13148  0.65951  0.34643  1.0000
