data_image0
_chemical_formula_structural       Zn4H36C40N20O16
_chemical_formula_sum              "Zn4 H36 C40 N20 O16"
_cell_length_a       7.57743
_cell_length_b       12.0715
_cell_length_c       15.5741
_cell_angle_alpha    111.233
_cell_angle_beta     90
_cell_angle_gamma    90

_space_group_name_H-M_alt    "P 1"
_space_group_IT_number       1

loop_
  _space_group_symop_operation_xyz
  'x, y, z'

loop_
  _atom_site_type_symbol
  _atom_site_label
  _atom_site_symmetry_multiplicity
  _atom_site_fract_x
  _atom_site_fract_y
  _atom_site_fract_z
  _atom_site_occupancy
  Zn  Zn1       1.0  0.53677  0.14393  0.84632  1.0000
  Zn  Zn2       1.0  0.03678  0.35608  0.65368  1.0000
  Zn  Zn3       1.0  0.46322  0.85608  0.15368  1.0000
  Zn  Zn4       1.0  0.96322  0.64391  0.34632  1.0000
  H   H1        1.0  0.77762  0.97350  0.08097  1.0000
  H   H2        1.0  0.27762  0.52650  0.41902  1.0000
  H   H3        1.0  0.22238  0.02650  0.91902  1.0000
  H   H4        1.0  0.72239  0.47351  0.58100  1.0000
  H   H5        1.0  0.55769  0.16323  0.13970  1.0000
  H   H6        1.0  0.05767  0.33677  0.36029  1.0000
  H   H7        1.0  0.44231  0.83677  0.86029  1.0000
  H   H8        1.0  0.94233  0.66324  0.63971  1.0000
  H   H9        1.0  0.50381  0.22606  0.05820  1.0000
  H   H10       1.0  0.00380  0.27394  0.44180  1.0000
  H   H11       1.0  0.49619  0.77394  0.94179  1.0000
  H   H12       1.0  0.99620  0.72607  0.55821  1.0000
  H   H13       1.0  0.95464  0.86186  0.35094  1.0000
  H   H14       1.0  0.45463  0.63813  0.14905  1.0000
  H   H15       1.0  0.04536  0.13812  0.64905  1.0000
  H   H16       1.0  0.54536  0.36188  0.85095  1.0000
  H   H17       1.0  0.80375  0.77827  0.27665  1.0000
  H   H18       1.0  0.30375  0.72173  0.22335  1.0000
  H   H19       1.0  0.19625  0.22172  0.72335  1.0000
  H   H20       1.0  0.69625  0.27829  0.77665  1.0000
  H   H21       1.0  0.80789  0.93576  0.81036  1.0000
  H   H22       1.0  0.30791  0.56423  0.68963  1.0000
  H   H23       1.0  0.19212  0.06424  0.18963  1.0000
  H   H24       1.0  0.69209  0.43576  0.31039  1.0000
  H   H25       1.0  0.36807  0.89903  0.60247  1.0000
  H   H26       1.0  0.86808  0.60097  0.89753  1.0000
  H   H27       1.0  0.63193  0.10097  0.39753  1.0000
  H   H28       1.0  0.13192  0.39903  0.10247  1.0000
  H   H29       1.0  0.53215  0.71094  0.32249  1.0000
  H   H30       1.0  0.03214  0.78905  0.17751  1.0000
  H   H31       1.0  0.46786  0.28905  0.67751  1.0000
  H   H32       1.0  0.96785  0.21096  0.82249  1.0000
  H   H33       1.0  0.88804  0.95455  0.51561  1.0000
  H   H34       1.0  0.38803  0.54544  0.98439  1.0000
  H   H35       1.0  0.11197  0.04544  0.48439  1.0000
  H   H36       1.0  0.61197  0.45456  0.01561  1.0000
  C   C1        1.0  0.77716  0.97062  0.88338  1.0000
  C   C2        1.0  0.27717  0.52938  0.61661  1.0000
  C   C3        1.0  0.22284  0.02939  0.11661  1.0000
  C   C4        1.0  0.72283  0.47062  0.38341  1.0000
  C   C5        1.0  0.66905  0.08518  0.01342  1.0000
  C   C6        1.0  0.16904  0.41481  0.48657  1.0000
  C   C7        1.0  0.33096  0.91481  0.98657  1.0000
  C   C8        1.0  0.83096  0.58519  0.51344  1.0000
  C   C9        1.0  0.63297  0.93434  0.56880  1.0000
  C   C10       1.0  0.13296  0.56566  0.93120  1.0000
  C   C11       1.0  0.36703  0.06566  0.43120  1.0000
  C   C12       1.0  0.86702  0.43434  0.06880  1.0000
  C   C13       1.0  0.46776  0.88002  0.54897  1.0000
  C   C14       1.0  0.96776  0.61999  0.95103  1.0000
  C   C15       1.0  0.53224  0.11999  0.45103  1.0000
  C   C16       1.0  0.03223  0.38002  0.04897  1.0000
  C   C17       1.0  0.42963  0.80174  0.45997  1.0000
  C   C18       1.0  0.92962  0.69826  0.04002  1.0000
  C   C19       1.0  0.57038  0.19826  0.54003  1.0000
  C   C20       1.0  0.07037  0.30174  0.95997  1.0000
  C   C21       1.0  0.55785  0.77625  0.39096  1.0000
  C   C22       1.0  0.05784  0.72375  0.10903  1.0000
  C   C23       1.0  0.44216  0.22374  0.60904  1.0000
  C   C24       1.0  0.94215  0.27626  0.89096  1.0000
  C   C25       1.0  0.72192  0.83271  0.41075  1.0000
  C   C26       1.0  0.22192  0.66728  0.08925  1.0000
  C   C27       1.0  0.27809  0.16728  0.58925  1.0000
  C   C28       1.0  0.77808  0.33272  0.91075  1.0000
  C   C29       1.0  0.75957  0.91189  0.49929  1.0000
  C   C30       1.0  0.25956  0.58810  0.00071  1.0000
  C   C31       1.0  0.24043  0.08810  0.50071  1.0000
  C   C32       1.0  0.74043  0.41190  0.99929  1.0000
  C   C33       1.0  0.67201  0.01879  0.66446  1.0000
  C   C34       1.0  0.17200  0.48122  0.83554  1.0000
  C   C35       1.0  0.32800  0.98122  0.33554  1.0000
  C   C36       1.0  0.82798  0.51878  0.16446  1.0000
  C   C37       1.0  0.24952  0.74982  0.43989  1.0000
  C   C38       1.0  0.74952  0.75018  0.06011  1.0000
  C   C39       1.0  0.75048  0.25017  0.56011  1.0000
  C   C40       1.0  0.25048  0.24983  0.93989  1.0000
  N   N1        1.0  0.67454  0.07038  0.92298  1.0000
  N   N2        1.0  0.17454  0.42962  0.57701  1.0000
  N   N3        1.0  0.32547  0.92962  0.07702  1.0000
  N   N4        1.0  0.82546  0.57038  0.42300  1.0000
  N   N5        1.0  0.83266  0.92203  0.94161  1.0000
  N   N6        1.0  0.33267  0.57797  0.55837  1.0000
  N   N7        1.0  0.16734  0.07798  0.05838  1.0000
  N   N8        1.0  0.66733  0.42203  0.44164  1.0000
  N   N9        1.0  0.76354  0.99592  0.02404  1.0000
  N   N10       1.0  0.26354  0.50408  0.47595  1.0000
  N   N11       1.0  0.23647  0.00408  0.97595  1.0000
  N   N12       1.0  0.73647  0.49593  0.52406  1.0000
  N   N13       1.0  0.58887  0.17508  0.08038  1.0000
  N   N14       1.0  0.08886  0.32492  0.41962  1.0000
  N   N15       1.0  0.41113  0.82492  0.91961  1.0000
  N   N16       1.0  0.91115  0.67508  0.58039  1.0000
  N   N17       1.0  0.85664  0.79920  0.34125  1.0000
  N   N18       1.0  0.35663  0.70080  0.15875  1.0000
  N   N19       1.0  0.14336  0.20079  0.65875  1.0000
  N   N20       1.0  0.64336  0.29921  0.84125  1.0000
  O   O1        1.0  0.80855  0.08230  0.68213  1.0000
  O   O2        1.0  0.30855  0.41769  0.81787  1.0000
  O   O3        1.0  0.19146  0.91770  0.31787  1.0000
  O   O4        1.0  0.69145  0.58231  0.18213  1.0000
  O   O5        1.0  0.55261  0.01930  0.72435  1.0000
  O   O6        1.0  0.05261  0.48070  0.77565  1.0000
  O   O7        1.0  0.44738  0.98071  0.27565  1.0000
  O   O8        1.0  0.94735  0.51928  0.22436  1.0000
  O   O9        1.0  0.12492  0.79407  0.49511  1.0000
  O   O10       1.0  0.62492  0.70593  0.00489  1.0000
  O   O11       1.0  0.87508  0.20592  0.50489  1.0000
  O   O12       1.0  0.37508  0.29408  0.99511  1.0000
  O   O13       1.0  0.22630  0.65914  0.36310  1.0000
  O   O14       1.0  0.72630  0.84086  0.13690  1.0000
  O   O15       1.0  0.77370  0.34085  0.63690  1.0000
  O   O16       1.0  0.27369  0.15915  0.86310  1.0000
