data_image0
_chemical_formula_structural       Tb2H40C52O19
_chemical_formula_sum              "Tb2 H40 C52 O19"
_cell_length_a       7.03094
_cell_length_b       14.5825
_cell_length_c       16.7109
_cell_angle_alpha    104.011
_cell_angle_beta     102.269
_cell_angle_gamma    89.969

_space_group_name_H-M_alt    "P 1"
_space_group_IT_number       1

loop_
  _space_group_symop_operation_xyz
  'x, y, z'

loop_
  _atom_site_type_symbol
  _atom_site_label
  _atom_site_symmetry_multiplicity
  _atom_site_fract_x
  _atom_site_fract_y
  _atom_site_fract_z
  _atom_site_occupancy
  Tb  Tb1       1.0  0.00330  0.02873  0.49721  1.0000
  Tb  Tb2       1.0  0.50621  0.97081  0.50279  1.0000
  H   H1        1.0  0.19962  0.46519  0.89267  1.0000
  H   H2        1.0  0.30679  0.53549  0.10769  1.0000
  H   H3        1.0  0.30351  0.57160  0.96969  1.0000
  H   H4        1.0  0.33423  0.42916  0.03079  1.0000
  H   H5        1.0  0.77587  0.50031  0.89236  1.0000
  H   H6        1.0  0.88311  0.49995  0.10751  1.0000
  H   H7        1.0  0.72422  0.57539  0.82030  1.0000
  H   H8        1.0  0.90427  0.42451  0.17927  1.0000
  H   H9        1.0  0.26273  0.66148  0.86865  1.0000
  H   H10       1.0  0.39463  0.33896  0.13151  1.0000
  H   H11       1.0  0.16163  0.55855  0.78652  1.0000
  H   H12       1.0  0.37605  0.44188  0.21358  1.0000
  H   H13       1.0  0.88534  0.72141  0.92432  1.0000
  H   H14       1.0  0.96193  0.27887  0.07540  1.0000
  H   H15       1.0  0.87620  0.64562  0.99393  1.0000
  H   H16       1.0  0.88235  0.35450  0.00565  1.0000
  H   H17       1.0  0.35232  0.64716  0.74533  1.0000
  H   H18       1.0  0.60799  0.35294  0.25504  1.0000
  H   H19       1.0  0.48054  0.73222  0.65481  1.0000
  H   H20       1.0  0.82651  0.26734  0.34553  1.0000
  H   H21       1.0  0.96044  0.88739  0.62732  1.0000
  H   H22       1.0  0.33275  0.11277  0.37226  1.0000
  H   H23       1.0  0.82805  0.80283  0.71824  1.0000
  H   H24       1.0  0.10967  0.19775  0.28114  1.0000
  H   H25       1.0  0.42948  0.78305  0.13767  1.0000
  H   H26       1.0  0.29257  0.21775  0.86259  1.0000
  H   H27       1.0  0.40934  0.88188  0.27993  1.0000
  H   H28       1.0  0.12994  0.11861  0.72027  1.0000
  H   H29       1.0  0.78815  0.88451  0.19769  1.0000
  H   H30       1.0  0.59161  0.11473  0.80213  1.0000
  H   H31       1.0  0.80478  0.78774  0.05532  1.0000
  H   H32       1.0  0.75068  0.21192  0.94449  1.0000
  H   H33       1.0  0.50435  0.44223  0.80724  1.0000
  H   H34       1.0  0.69658  0.55731  0.19270  1.0000
  H   H35       1.0  0.25485  0.31758  0.72007  1.0000
  H   H36       1.0  0.53385  0.68163  0.27970  1.0000
  H   H37       1.0  0.65516  0.20329  0.56453  1.0000
  H   H38       1.0  0.09012  0.79649  0.43569  1.0000
  H   H39       1.0  0.90982  0.32461  0.65242  1.0000
  H   H40       1.0  0.25728  0.67551  0.34806  1.0000
  C   C1        1.0  0.02332  0.58799  0.89316  1.0000
  C   C2        1.0  0.13043  0.41250  0.10678  1.0000
  C   C3        1.0  0.16694  0.52840  0.93858  1.0000
  C   C4        1.0  0.22843  0.47225  0.06162  1.0000
  C   C5        1.0  0.83303  0.52996  0.84689  1.0000
  C   C6        1.0  0.98618  0.47023  0.15296  1.0000
  C   C7        1.0  0.12650  0.62061  0.83251  1.0000
  C   C8        1.0  0.29466  0.37986  0.16753  1.0000
  C   C9        1.0  0.96744  0.67202  0.95738  1.0000
  C   C10       1.0  0.01056  0.32834  0.04242  1.0000
  C   C11       1.0  0.08254  0.72134  0.73867  1.0000
  C   C12       1.0  0.34436  0.27901  0.26125  1.0000
  C   C13       1.0  0.26635  0.70028  0.72076  1.0000
  C   C14       1.0  0.54632  0.29982  0.27942  1.0000
  C   C15       1.0  0.33871  0.74767  0.66990  1.0000
  C   C16       1.0  0.66937  0.25215  0.33028  1.0000
  C   C17       1.0  0.23080  0.81601  0.63692  1.0000
  C   C18       1.0  0.59398  0.18385  0.36302  1.0000
  C   C19       1.0  0.04562  0.83537  0.65404  1.0000
  C   C20       1.0  0.39146  0.16476  0.34568  1.0000
  C   C21       1.0  0.97121  0.78819  0.70438  1.0000
  C   C22       1.0  0.26691  0.21218  0.29528  1.0000
  C   C23       1.0  0.11909  0.77743  0.08857  1.0000
  C   C24       1.0  0.03143  0.22286  0.91146  1.0000
  C   C25       1.0  0.28987  0.80652  0.15128  1.0000
  C   C26       1.0  0.13940  0.19398  0.84889  1.0000
  C   C27       1.0  0.27836  0.86187  0.23016  1.0000
  C   C28       1.0  0.04899  0.13840  0.76999  1.0000
  C   C29       1.0  0.09680  0.88877  0.24766  1.0000
  C   C30       1.0  0.85001  0.11107  0.75235  1.0000
  C   C31       1.0  0.92796  0.86207  0.18370  1.0000
  C   C32       1.0  0.74528  0.13752  0.81619  1.0000
  C   C33       1.0  0.93758  0.80706  0.10425  1.0000
  C   C34       1.0  0.83438  0.19276  0.89564  1.0000
  C   C35       1.0  0.07570  0.94001  0.33290  1.0000
  C   C36       1.0  0.74343  0.05964  0.66710  1.0000
  C   C37       1.0  0.72389  0.39149  0.73513  1.0000
  C   C38       1.0  0.98848  0.60835  0.26503  1.0000
  C   C39       1.0  0.53882  0.39022  0.75420  1.0000
  C   C40       1.0  0.78411  0.60937  0.24582  1.0000
  C   C41       1.0  0.39789  0.32049  0.70504  1.0000
  C   C42       1.0  0.69212  0.67893  0.29490  1.0000
  C   C43       1.0  0.43803  0.25252  0.63648  1.0000
  C   C44       1.0  0.80085  0.74699  0.36354  1.0000
  C   C45       1.0  0.62299  0.25579  0.61765  1.0000
  C   C46       1.0  0.00485  0.74392  0.38253  1.0000
  C   C47       1.0  0.76552  0.32392  0.66645  1.0000
  C   C48       1.0  0.09880  0.67596  0.33384  1.0000
  C   C49       1.0  0.28954  0.17685  0.58723  1.0000
  C   C50       1.0  0.70154  0.82258  0.41273  1.0000
  C   C51       1.0  0.31683  0.86604  0.58556  1.0000
  C   C52       1.0  0.73122  0.13359  0.41442  1.0000
  O   O1        1.0  0.22587  0.96192  0.39568  1.0000
  O   O2        1.0  0.83036  0.03787  0.60434  1.0000
  O   O3        1.0  0.90835  0.96124  0.34585  1.0000
  O   O4        1.0  0.56317  0.03810  0.65410  1.0000
  O   O5        1.0  0.48206  0.84566  0.56924  1.0000
  O   O6        1.0  0.91301  0.15375  0.43081  1.0000
  O   O7        1.0  0.22356  0.93272  0.55662  1.0000
  O   O8        1.0  0.66674  0.06699  0.44329  1.0000
  O   O9        1.0  0.33068  0.11047  0.52690  1.0000
  O   O10       1.0  0.80328  0.88912  0.47304  1.0000
  O   O11       1.0  0.12126  0.17497  0.60313  1.0000
  O   O12       1.0  0.51720  0.82430  0.39687  1.0000
  O   O13       1.0  0.00233  0.67935  0.78952  1.0000
  O   O14       1.0  0.21335  0.32118  0.21034  1.0000
  O   O15       1.0  0.87327  0.45569  0.78046  1.0000
  O   O16       1.0  0.09272  0.54445  0.21968  1.0000
  O   O17       1.0  0.14125  0.71912  0.01383  1.0000
  O   O18       1.0  0.12820  0.28141  0.98621  1.0000
  O   O19       1.0  0.08376  0.50026  0.99997  1.0000
