data_image0
_chemical_formula_structural       La2H40C52O19
_chemical_formula_sum              "La2 H40 C52 O19"
_cell_length_a       7.39752
_cell_length_b       14.4649
_cell_length_c       16.9754
_cell_angle_alpha    104.038
_cell_angle_beta     102.571
_cell_angle_gamma    90.0036

_space_group_name_H-M_alt    "P 1"
_space_group_IT_number       1

loop_
  _space_group_symop_operation_xyz
  'x, y, z'

loop_
  _atom_site_type_symbol
  _atom_site_label
  _atom_site_symmetry_multiplicity
  _atom_site_fract_x
  _atom_site_fract_y
  _atom_site_fract_z
  _atom_site_occupancy
  La  La1       1.0  0.00540  0.03592  0.49955  1.0000
  La  La2       1.0  0.50584  0.96422  0.50048  1.0000
  H   H1        1.0  0.18848  0.46673  0.89470  1.0000
  H   H2        1.0  0.29346  0.53318  0.10523  1.0000
  H   H3        1.0  0.28761  0.57302  0.97216  1.0000
  H   H4        1.0  0.31533  0.42684  0.02787  1.0000
  H   H5        1.0  0.78343  0.50483  0.89473  1.0000
  H   H6        1.0  0.88851  0.49497  0.10539  1.0000
  H   H7        1.0  0.73857  0.57985  0.82305  1.0000
  H   H8        1.0  0.91557  0.42004  0.17715  1.0000
  H   H9        1.0  0.25225  0.66403  0.87293  1.0000
  H   H10       1.0  0.37925  0.33594  0.12690  1.0000
  H   H11       1.0  0.15400  0.56078  0.79157  1.0000
  H   H12       1.0  0.36231  0.43905  0.20838  1.0000
  H   H13       1.0  0.89437  0.72620  0.92735  1.0000
  H   H14       1.0  0.96663  0.27375  0.07271  1.0000
  H   H15       1.0  0.88335  0.64943  0.99522  1.0000
  H   H16       1.0  0.88796  0.35054  0.00483  1.0000
  H   H17       1.0  0.33860  0.64822  0.75207  1.0000
  H   H18       1.0  0.58665  0.35168  0.24772  1.0000
  H   H19       1.0  0.45770  0.72628  0.65744  1.0000
  H   H20       1.0  0.80063  0.27371  0.34230  1.0000
  H   H21       1.0  0.96508  0.88307  0.62535  1.0000
  H   H22       1.0  0.34040  0.11695  0.37477  1.0000
  H   H23       1.0  0.84006  0.80423  0.71930  1.0000
  H   H24       1.0  0.12129  0.19559  0.28079  1.0000
  H   H25       1.0  0.41215  0.78464  0.13955  1.0000
  H   H26       1.0  0.27244  0.21526  0.86050  1.0000
  H   H27       1.0  0.39320  0.88302  0.27972  1.0000
  H   H28       1.0  0.11331  0.11703  0.72032  1.0000
  H   H29       1.0  0.80323  0.89097  0.19595  1.0000
  H   H30       1.0  0.60698  0.10926  0.80410  1.0000
  H   H31       1.0  0.81847  0.79251  0.05605  1.0000
  H   H32       1.0  0.76216  0.20759  0.94405  1.0000
  H   H33       1.0  0.52364  0.45118  0.80985  1.0000
  H   H34       1.0  0.71371  0.54892  0.19014  1.0000
  H   H35       1.0  0.27964  0.32801  0.72414  1.0000
  H   H36       1.0  0.55567  0.67224  0.27591  1.0000
  H   H37       1.0  0.65653  0.20243  0.57372  1.0000
  H   H38       1.0  0.08299  0.79761  0.42628  1.0000
  H   H39       1.0  0.90612  0.32200  0.66058  1.0000
  H   H40       1.0  0.24555  0.67791  0.33936  1.0000
  C   C1        1.0  0.02232  0.59096  0.89614  1.0000
  C   C2        1.0  0.12600  0.40893  0.10390  1.0000
  C   C3        1.0  0.15743  0.52980  0.94046  1.0000
  C   C4        1.0  0.21673  0.47006  0.05951  1.0000
  C   C5        1.0  0.83995  0.53364  0.85006  1.0000
  C   C6        1.0  0.98981  0.46623  0.15006  1.0000
  C   C7        1.0  0.12176  0.62354  0.83688  1.0000
  C   C8        1.0  0.28481  0.37629  0.16304  1.0000
  C   C9        1.0  0.97113  0.67580  0.95969  1.0000
  C   C10       1.0  0.01115  0.32413  0.04038  1.0000
  C   C11       1.0  0.08166  0.72249  0.74228  1.0000
  C   C12       1.0  0.33968  0.27732  0.25762  1.0000
  C   C13       1.0  0.25596  0.69974  0.72510  1.0000
  C   C14       1.0  0.53114  0.30014  0.27474  1.0000
  C   C15       1.0  0.32335  0.74334  0.67202  1.0000
  C   C16       1.0  0.65174  0.25658  0.32781  1.0000
  C   C17       1.0  0.22060  0.81025  0.63664  1.0000
  C   C18       1.0  0.58456  0.18973  0.36329  1.0000
  C   C19       1.0  0.04590  0.83199  0.65384  1.0000
  C   C20       1.0  0.39268  0.16799  0.34621  1.0000
  C   C21       1.0  0.97580  0.78815  0.70589  1.0000
  C   C22       1.0  0.27042  0.21170  0.29413  1.0000
  C   C23       1.0  0.11695  0.78069  0.08981  1.0000
  C   C24       1.0  0.02692  0.21933  0.91026  1.0000
  C   C25       1.0  0.27940  0.80872  0.15236  1.0000
  C   C26       1.0  0.12682  0.19128  0.84770  1.0000
  C   C27       1.0  0.26851  0.86415  0.23016  1.0000
  C   C28       1.0  0.03808  0.13595  0.76986  1.0000
  C   C29       1.0  0.09627  0.89293  0.24655  1.0000
  C   C30       1.0  0.84944  0.10725  0.75348  1.0000
  C   C31       1.0  0.93586  0.86724  0.18285  1.0000
  C   C32       1.0  0.75267  0.13300  0.81720  1.0000
  C   C33       1.0  0.94470  0.81142  0.10473  1.0000
  C   C34       1.0  0.83968  0.18870  0.89534  1.0000
  C   C35       1.0  0.07753  0.94619  0.33029  1.0000
  C   C36       1.0  0.74715  0.05396  0.66975  1.0000
  C   C37       1.0  0.73140  0.39409  0.74064  1.0000
  C   C38       1.0  0.99069  0.60591  0.25936  1.0000
  C   C39       1.0  0.55449  0.39661  0.75861  1.0000
  C   C40       1.0  0.79583  0.60346  0.24137  1.0000
  C   C41       1.0  0.41693  0.32772  0.71041  1.0000
  C   C42       1.0  0.70668  0.67243  0.28960  1.0000
  C   C43       1.0  0.45236  0.25697  0.64382  1.0000
  C   C44       1.0  0.80877  0.74313  0.35620  1.0000
  C   C45       1.0  0.62902  0.25668  0.62589  1.0000
  C   C46       1.0  0.00330  0.74336  0.37413  1.0000
  C   C47       1.0  0.76833  0.32376  0.67388  1.0000
  C   C48       1.0  0.09448  0.67622  0.32610  1.0000
  C   C49       1.0  0.30572  0.18307  0.59485  1.0000
  C   C50       1.0  0.71115  0.81709  0.40517  1.0000
  C   C51       1.0  0.30004  0.85682  0.58271  1.0000
  C   C52       1.0  0.71803  0.14325  0.41720  1.0000
  O   O1        1.0  0.22042  0.96062  0.39299  1.0000
  O   O2        1.0  0.82743  0.03961  0.60708  1.0000
  O   O3        1.0  0.92170  0.97574  0.34147  1.0000
  O   O4        1.0  0.58023  0.02425  0.65855  1.0000
  O   O5        1.0  0.44667  0.82779  0.55970  1.0000
  O   O6        1.0  0.88771  0.17217  0.43997  1.0000
  O   O7        1.0  0.21938  0.92893  0.55950  1.0000
  O   O8        1.0  0.66054  0.07131  0.44067  1.0000
  O   O9        1.0  0.34086  0.11617  0.53442  1.0000
  O   O10       1.0  0.80665  0.88395  0.46564  1.0000
  O   O11       1.0  0.14640  0.18447  0.61162  1.0000
  O   O12       1.0  0.53506  0.81576  0.38833  1.0000
  O   O13       1.0  0.00567  0.68338  0.79426  1.0000
  O   O14       1.0  0.21162  0.31632  0.20562  1.0000
  O   O15       1.0  0.87626  0.45745  0.78522  1.0000
  O   O16       1.0  0.09096  0.54250  0.21481  1.0000
  O   O17       1.0  0.13731  0.72233  0.01595  1.0000
  O   O18       1.0  0.12115  0.27758  0.98415  1.0000
  O   O19       1.0  0.07784  0.49988  0.99993  1.0000
