data_image0
_chemical_formula_structural       C52Eu2H40O19
_chemical_formula_sum              "C52 Eu2 H40 O19"
_cell_length_a       7.0834
_cell_length_b       14.4657
_cell_length_c       16.9084
_cell_angle_alpha    104.349
_cell_angle_beta     102.091
_cell_angle_gamma    90.0002

_space_group_name_H-M_alt    "P 1"
_space_group_IT_number       1

loop_
  _space_group_symop_operation_xyz
  'x, y, z'

loop_
  _atom_site_type_symbol
  _atom_site_label
  _atom_site_symmetry_multiplicity
  _atom_site_fract_x
  _atom_site_fract_y
  _atom_site_fract_z
  _atom_site_occupancy
  C   C1        1.0  0.02147  0.58891  0.89465  1.0000
  C   C2        1.0  0.12681  0.41108  0.10535  1.0000
  C   C3        1.0  0.16239  0.52822  0.93926  1.0000
  C   C4        1.0  0.22312  0.47177  0.06075  1.0000
  C   C5        1.0  0.83223  0.53092  0.84840  1.0000
  C   C6        1.0  0.98383  0.46908  0.15160  1.0000
  C   C7        1.0  0.12515  0.62140  0.83473  1.0000
  C   C8        1.0  0.29042  0.37859  0.16527  1.0000
  C   C9        1.0  0.96577  0.67387  0.95846  1.0000
  C   C10       1.0  0.00729  0.32613  0.04155  1.0000
  C   C11       1.0  0.08148  0.72154  0.74078  1.0000
  C   C12       1.0  0.34071  0.27846  0.25922  1.0000
  C   C13       1.0  0.26365  0.70023  0.72261  1.0000
  C   C14       1.0  0.54105  0.29980  0.27740  1.0000
  C   C15       1.0  0.33408  0.74674  0.67118  1.0000
  C   C16       1.0  0.66292  0.25328  0.32883  1.0000
  C   C17       1.0  0.22587  0.81452  0.63776  1.0000
  C   C18       1.0  0.58815  0.18549  0.36224  1.0000
  C   C19       1.0  0.04236  0.83412  0.65516  1.0000
  C   C20       1.0  0.38723  0.16588  0.34484  1.0000
  C   C21       1.0  0.96995  0.78781  0.70610  1.0000
  C   C22       1.0  0.26388  0.21218  0.29390  1.0000
  C   C23       1.0  0.11511  0.77852  0.08968  1.0000
  C   C24       1.0  0.02541  0.22148  0.91032  1.0000
  C   C25       1.0  0.28379  0.80581  0.15242  1.0000
  C   C26       1.0  0.13135  0.19420  0.84759  1.0000
  C   C27       1.0  0.27194  0.86067  0.23102  1.0000
  C   C28       1.0  0.04090  0.13934  0.76898  1.0000
  C   C29       1.0  0.09206  0.88913  0.24814  1.0000
  C   C30       1.0  0.84391  0.11087  0.75186  1.0000
  C   C31       1.0  0.92545  0.86420  0.18419  1.0000
  C   C32       1.0  0.74124  0.13579  0.81581  1.0000
  C   C33       1.0  0.93538  0.80952  0.10512  1.0000
  C   C34       1.0  0.83025  0.19047  0.89488  1.0000
  C   C35       1.0  0.07007  0.94007  0.33279  1.0000
  C   C36       1.0  0.73727  0.05993  0.66721  1.0000
  C   C37       1.0  0.72170  0.39240  0.73634  1.0000
  C   C38       1.0  0.98536  0.60760  0.26365  1.0000
  C   C39       1.0  0.53793  0.39201  0.75540  1.0000
  C   C40       1.0  0.78253  0.60800  0.24459  1.0000
  C   C41       1.0  0.39645  0.32273  0.70615  1.0000
  C   C42       1.0  0.69031  0.67729  0.29384  1.0000
  C   C43       1.0  0.43484  0.25449  0.63748  1.0000
  C   C44       1.0  0.79737  0.74552  0.36251  1.0000
  C   C45       1.0  0.61842  0.25689  0.61857  1.0000
  C   C46       1.0  0.99986  0.74311  0.38143  1.0000
  C   C47       1.0  0.76165  0.32452  0.66753  1.0000
  C   C48       1.0  0.09412  0.67547  0.33247  1.0000
  C   C49       1.0  0.28530  0.17942  0.58811  1.0000
  C   C50       1.0  0.69720  0.82059  0.41188  1.0000
  C   C51       1.0  0.30956  0.86361  0.58553  1.0000
  C   C52       1.0  0.72406  0.13639  0.41446  1.0000
  Eu  Eu1       1.0  0.99750  0.03002  0.49721  1.0000
  Eu  Eu2       1.0  0.50029  0.96998  0.50279  1.0000
  H   H1        1.0  0.19405  0.46421  0.89352  1.0000
  H   H2        1.0  0.30051  0.53578  0.10649  1.0000
  H   H3        1.0  0.29836  0.57145  0.97011  1.0000
  H   H4        1.0  0.32825  0.42855  0.02991  1.0000
  H   H5        1.0  0.77428  0.50075  0.89283  1.0000
  H   H6        1.0  0.88144  0.49925  0.10717  1.0000
  H   H7        1.0  0.72504  0.57713  0.82263  1.0000
  H   H8        1.0  0.90240  0.42287  0.17738  1.0000
  H   H9        1.0  0.26031  0.66265  0.87056  1.0000
  H   H10       1.0  0.38977  0.33736  0.12944  1.0000
  H   H11       1.0  0.16002  0.55848  0.78921  1.0000
  H   H12       1.0  0.37079  0.44153  0.21080  1.0000
  H   H13       1.0  0.88646  0.72407  0.92595  1.0000
  H   H14       1.0  0.96047  0.27593  0.07406  1.0000
  H   H15       1.0  0.87292  0.64733  0.99375  1.0000
  H   H16       1.0  0.87916  0.35266  0.00625  1.0000
  H   H17       1.0  0.34994  0.64740  0.74730  1.0000
  H   H18       1.0  0.60263  0.35264  0.25272  1.0000
  H   H19       1.0  0.47472  0.73101  0.65604  1.0000
  H   H20       1.0  0.81871  0.26902  0.34397  1.0000
  H   H21       1.0  0.95680  0.88579  0.62835  1.0000
  H   H22       1.0  0.32850  0.11419  0.37164  1.0000
  H   H23       1.0  0.82786  0.80260  0.71998  1.0000
  H   H24       1.0  0.10790  0.19738  0.28001  1.0000
  H   H25       1.0  0.42195  0.78118  0.13893  1.0000
  H   H26       1.0  0.28299  0.21884  0.86108  1.0000
  H   H27       1.0  0.40132  0.87882  0.28071  1.0000
  H   H28       1.0  0.12059  0.12120  0.71929  1.0000
  H   H29       1.0  0.78699  0.88777  0.19785  1.0000
  H   H30       1.0  0.58913  0.11220  0.80215  1.0000
  H   H31       1.0  0.80437  0.79182  0.05617  1.0000
  H   H32       1.0  0.74819  0.20815  0.94383  1.0000
  H   H33       1.0  0.50469  0.44429  0.80849  1.0000
  H   H34       1.0  0.69619  0.55572  0.19150  1.0000
  H   H35       1.0  0.25435  0.32026  0.72109  1.0000
  H   H36       1.0  0.53327  0.67975  0.27890  1.0000
  H   H37       1.0  0.64916  0.20428  0.56524  1.0000
  H   H38       1.0  0.08394  0.79571  0.43476  1.0000
  H   H39       1.0  0.90499  0.32447  0.65351  1.0000
  H   H40       1.0  0.25149  0.67552  0.34650  1.0000
  O   O1        1.0  0.21836  0.96074  0.39533  1.0000
  O   O2        1.0  0.82301  0.03927  0.60467  1.0000
  O   O3        1.0  0.90390  0.96229  0.34522  1.0000
  O   O4        1.0  0.55866  0.03771  0.65478  1.0000
  O   O5        1.0  0.47220  0.84184  0.56820  1.0000
  O   O6        1.0  0.90403  0.15815  0.43178  1.0000
  O   O7        1.0  0.21665  0.93050  0.55689  1.0000
  O   O8        1.0  0.65978  0.06951  0.44311  1.0000
  O   O9        1.0  0.32482  0.11234  0.52772  1.0000
  O   O10       1.0  0.79711  0.88766  0.47229  1.0000
  O   O11       1.0  0.11827  0.17847  0.60407  1.0000
  O   O12       1.0  0.51421  0.82154  0.39591  1.0000
  O   O13       1.0  0.00274  0.68047  0.79208  1.0000
  O   O14       1.0  0.21068  0.31952  0.20791  1.0000
  O   O15       1.0  0.87136  0.45607  0.78197  1.0000
  O   O16       1.0  0.08939  0.54393  0.21802  1.0000
  O   O17       1.0  0.13770  0.72059  0.01520  1.0000
  O   O18       1.0  0.12249  0.27939  0.98482  1.0000
  O   O19       1.0  0.07953  0.49999  1.00000  1.0000
