data_image0
_chemical_formula_structural       Hg2H12C20N4Cl12
_chemical_formula_sum              "Hg2 H12 C20 N4 Cl12"
_cell_length_a       3.823
_cell_length_b       14.129
_cell_length_c       14.129
_cell_angle_alpha    90
_cell_angle_beta     90.0001
_cell_angle_gamma    90.0001

_space_group_name_H-M_alt    "P 1"
_space_group_IT_number       1

loop_
  _space_group_symop_operation_xyz
  'x, y, z'

loop_
  _atom_site_type_symbol
  _atom_site_label
  _atom_site_symmetry_multiplicity
  _atom_site_fract_x
  _atom_site_fract_y
  _atom_site_fract_z
  _atom_site_occupancy
  Hg  Hg1       1.0  0.50000  0.50000  0.00000  1.0000
  Hg  Hg2       1.0  0.50000  1.00000  0.50000  1.0000
  H   H1        1.0  0.68672  0.52553  0.22092  1.0000
  H   H2        1.0  0.68672  0.47447  0.77908  1.0000
  H   H3        1.0  0.31328  0.22092  0.47447  1.0000
  H   H4        1.0  0.31328  0.77908  0.52553  1.0000
  H   H5        1.0  0.68672  0.02553  0.27908  1.0000
  H   H6        1.0  0.68672  0.97447  0.72092  1.0000
  H   H7        1.0  0.31328  0.72092  0.02553  1.0000
  H   H8        1.0  0.31328  0.27909  0.97447  1.0000
  H   H9        1.0  0.50000  0.81367  0.31367  1.0000
  H   H10       1.0  0.50000  0.18633  0.68633  1.0000
  H   H11       1.0  0.50000  0.31367  0.18632  1.0000
  H   H12       1.0  0.50000  0.68632  0.81368  1.0000
  C   C1        1.0  0.60345  0.59824  0.20812  1.0000
  C   C2        1.0  0.60345  0.40176  0.79188  1.0000
  C   C3        1.0  0.39655  0.20812  0.40176  1.0000
  C   C4        1.0  0.39655  0.79188  0.59824  1.0000
  C   C5        1.0  0.60345  0.09824  0.29188  1.0000
  C   C6        1.0  0.60345  0.90176  0.70812  1.0000
  C   C7        1.0  0.39655  0.70812  0.09824  1.0000
  C   C8        1.0  0.39654  0.29188  0.90176  1.0000
  C   C9        1.0  0.60681  0.66692  0.27916  1.0000
  C   C10       1.0  0.60681  0.33308  0.72084  1.0000
  C   C11       1.0  0.39319  0.27916  0.33308  1.0000
  C   C12       1.0  0.39319  0.72084  0.66692  1.0000
  C   C13       1.0  0.60681  0.16692  0.22084  1.0000
  C   C14       1.0  0.60681  0.83308  0.77916  1.0000
  C   C15       1.0  0.39319  0.77916  0.16692  1.0000
  C   C16       1.0  0.39319  0.22084  0.83309  1.0000
  C   C17       1.0  0.50000  0.75921  0.25921  1.0000
  C   C18       1.0  0.50000  0.24079  0.74079  1.0000
  C   C19       1.0  0.50000  0.25921  0.24079  1.0000
  C   C20       1.0  0.50000  0.74079  0.75921  1.0000
  N   N1        1.0  0.50000  0.62032  0.12032  1.0000
  N   N2        1.0  0.50000  0.37969  0.87968  1.0000
  N   N3        1.0  0.50000  0.12032  0.37968  1.0000
  N   N4        1.0  0.50000  0.87968  0.62032  1.0000
  Cl  Cl1       1.0  0.00000  0.40387  0.09613  1.0000
  Cl  Cl2       1.0  0.00000  0.59613  0.90387  1.0000
  Cl  Cl3       1.0  0.00000  0.09613  0.59613  1.0000
  Cl  Cl4       1.0  0.00000  0.90386  0.40386  1.0000
  Cl  Cl5       1.0  0.74388  0.63637  0.39140  1.0000
  Cl  Cl6       1.0  0.74388  0.36363  0.60860  1.0000
  Cl  Cl7       1.0  0.25612  0.39140  0.36363  1.0000
  Cl  Cl8       1.0  0.25612  0.60860  0.63637  1.0000
  Cl  Cl9       1.0  0.74388  0.13637  0.10860  1.0000
  Cl  Cl10      1.0  0.74388  0.86363  0.89140  1.0000
  Cl  Cl11      1.0  0.25612  0.89140  0.13637  1.0000
  Cl  Cl12      1.0  0.25612  0.10860  0.86363  1.0000
