data_image0
_chemical_formula_structural       Hg2H12C20Br8N4Cl4
_chemical_formula_sum              "Hg2 H12 C20 Br8 N4 Cl4"
_cell_length_a       3.91421
_cell_length_b       14.032
_cell_length_c       14.032
_cell_angle_alpha    90.0003
_cell_angle_beta     89.9999
_cell_angle_gamma    90

_space_group_name_H-M_alt    "P 1"
_space_group_IT_number       1

loop_
  _space_group_symop_operation_xyz
  'x, y, z'

loop_
  _atom_site_type_symbol
  _atom_site_label
  _atom_site_symmetry_multiplicity
  _atom_site_fract_x
  _atom_site_fract_y
  _atom_site_fract_z
  _atom_site_occupancy
  Hg  Hg1       1.0  0.49999  0.50000  0.00000  1.0000
  Hg  Hg2       1.0  0.50000  0.00000  0.50000  1.0000
  H   H1        1.0  0.73144  0.52983  0.21807  1.0000
  H   H2        1.0  0.73140  0.47017  0.78194  1.0000
  H   H3        1.0  0.26856  0.21807  0.47017  1.0000
  H   H4        1.0  0.26858  0.78194  0.52983  1.0000
  H   H5        1.0  0.73144  0.02983  0.28193  1.0000
  H   H6        1.0  0.73146  0.97018  0.71806  1.0000
  H   H7        1.0  0.26855  0.71807  0.02983  1.0000
  H   H8        1.0  0.26855  0.28193  0.97017  1.0000
  H   H9        1.0  0.50000  0.81603  0.31604  1.0000
  H   H10       1.0  0.50001  0.18396  0.68397  1.0000
  H   H11       1.0  0.50000  0.31603  0.18397  1.0000
  H   H12       1.0  0.50003  0.68397  0.81603  1.0000
  C   C1        1.0  0.62740  0.60113  0.20756  1.0000
  C   C2        1.0  0.62736  0.39887  0.79245  1.0000
  C   C3        1.0  0.37260  0.20756  0.39887  1.0000
  C   C4        1.0  0.37264  0.79244  0.60113  1.0000
  C   C5        1.0  0.62739  0.10113  0.29244  1.0000
  C   C6        1.0  0.62741  0.89887  0.70756  1.0000
  C   C7        1.0  0.37260  0.70756  0.10113  1.0000
  C   C8        1.0  0.37260  0.29244  0.89888  1.0000
  C   C9        1.0  0.62778  0.67009  0.27914  1.0000
  C   C10       1.0  0.62776  0.32990  0.72086  1.0000
  C   C11       1.0  0.37221  0.27914  0.32990  1.0000
  C   C12       1.0  0.37225  0.72086  0.67010  1.0000
  C   C13       1.0  0.62778  0.17010  0.22086  1.0000
  C   C14       1.0  0.62782  0.82991  0.77914  1.0000
  C   C15       1.0  0.37223  0.77914  0.17011  1.0000
  C   C16       1.0  0.37222  0.22085  0.82990  1.0000
  C   C17       1.0  0.49999  0.76120  0.26119  1.0000
  C   C18       1.0  0.49999  0.23880  0.73881  1.0000
  C   C19       1.0  0.49998  0.26120  0.23881  1.0000
  C   C20       1.0  0.50001  0.73880  0.76119  1.0000
  Br  Br1       1.0  0.80186  0.63825  0.40159  1.0000
  Br  Br2       1.0  0.80185  0.36175  0.59841  1.0000
  Br  Br3       1.0  0.19815  0.40159  0.36175  1.0000
  Br  Br4       1.0  0.19816  0.59841  0.63825  1.0000
  Br  Br5       1.0  0.80184  0.13825  0.09841  1.0000
  Br  Br6       1.0  0.80186  0.86175  0.90159  1.0000
  Br  Br7       1.0  0.19815  0.90159  0.13826  1.0000
  Br  Br8       1.0  0.19816  0.09840  0.86174  1.0000
  N   N1        1.0  0.49999  0.62120  0.12120  1.0000
  N   N2        1.0  0.49998  0.37880  0.87880  1.0000
  N   N3        1.0  0.50000  0.12120  0.37879  1.0000
  N   N4        1.0  0.50001  0.87880  0.62120  1.0000
  Cl  Cl1       1.0  0.99999  0.40546  0.09454  1.0000
  Cl  Cl2       1.0  0.00000  0.59454  0.90546  1.0000
  Cl  Cl3       1.0  0.00001  0.09455  0.59454  1.0000
  Cl  Cl4       1.0  0.00000  0.90546  0.40545  1.0000
