data_image0
_chemical_formula_structural       Hg2H36C28N4Cl4
_chemical_formula_sum              "Hg2 H36 C28 N4 Cl4"
_cell_length_a       3.95366
_cell_length_b       14.0266
_cell_length_c       14.0266
_cell_angle_alpha    89.9995
_cell_angle_beta     89.9999
_cell_angle_gamma    89.9998

_space_group_name_H-M_alt    "P 1"
_space_group_IT_number       1

loop_
  _space_group_symop_operation_xyz
  'x, y, z'

loop_
  _atom_site_type_symbol
  _atom_site_label
  _atom_site_symmetry_multiplicity
  _atom_site_fract_x
  _atom_site_fract_y
  _atom_site_fract_z
  _atom_site_occupancy
  Hg  Hg1       1.0  0.49999  0.50000  0.00000  1.0000
  Hg  Hg2       1.0  0.49999  1.00000  0.50000  1.0000
  H   H1        1.0  0.71685  0.52289  0.21216  1.0000
  H   H2        1.0  0.71686  0.47711  0.78784  1.0000
  H   H3        1.0  0.28314  0.21216  0.47711  1.0000
  H   H4        1.0  0.28314  0.78784  0.52289  1.0000
  H   H5        1.0  0.71686  0.02289  0.28784  1.0000
  H   H6        1.0  0.71685  0.97711  0.71216  1.0000
  H   H7        1.0  0.28313  0.71216  0.02289  1.0000
  H   H8        1.0  0.28314  0.28784  0.97711  1.0000
  H   H9        1.0  0.50003  0.80906  0.30906  1.0000
  H   H10       1.0  0.50002  0.19094  0.69094  1.0000
  H   H11       1.0  0.50000  0.30906  0.19094  1.0000
  H   H12       1.0  0.49999  0.69094  0.80906  1.0000
  H   H13       1.0  0.75372  0.70037  0.41974  1.0000
  H   H14       1.0  0.75371  0.29963  0.58026  1.0000
  H   H15       1.0  0.24629  0.41974  0.29963  1.0000
  H   H16       1.0  0.24628  0.58026  0.70037  1.0000
  H   H17       1.0  0.75371  0.20037  0.08026  1.0000
  H   H18       1.0  0.75371  0.79963  0.91974  1.0000
  H   H19       1.0  0.24629  0.91974  0.20037  1.0000
  H   H20       1.0  0.24629  0.08026  0.79963  1.0000
  H   H21       1.0  0.02249  0.61345  0.36751  1.0000
  H   H22       1.0  0.02249  0.38655  0.63249  1.0000
  H   H23       1.0  0.97751  0.36751  0.38655  1.0000
  H   H24       1.0  0.97751  0.63249  0.61345  1.0000
  H   H25       1.0  0.02249  0.11345  0.13249  1.0000
  H   H26       1.0  0.02248  0.88655  0.86751  1.0000
  H   H27       1.0  0.97752  0.86751  0.11345  1.0000
  H   H28       1.0  0.97752  0.13249  0.88655  1.0000
  H   H29       1.0  0.61266  0.58002  0.40519  1.0000
  H   H30       1.0  0.61266  0.41998  0.59481  1.0000
  H   H31       1.0  0.38735  0.40519  0.41998  1.0000
  H   H32       1.0  0.38734  0.59481  0.58002  1.0000
  H   H33       1.0  0.61265  0.08002  0.09481  1.0000
  H   H34       1.0  0.61265  0.91998  0.90519  1.0000
  H   H35       1.0  0.38734  0.90520  0.08002  1.0000
  H   H36       1.0  0.38734  0.09481  0.91998  1.0000
  C   C1        1.0  0.61892  0.59510  0.20262  1.0000
  C   C2        1.0  0.61891  0.40490  0.79738  1.0000
  C   C3        1.0  0.38109  0.20261  0.40489  1.0000
  C   C4        1.0  0.38110  0.79739  0.59511  1.0000
  C   C5        1.0  0.61891  0.09510  0.29738  1.0000
  C   C6        1.0  0.61890  0.90490  0.70262  1.0000
  C   C7        1.0  0.38111  0.70261  0.09511  1.0000
  C   C8        1.0  0.38110  0.29739  0.90489  1.0000
  C   C9        1.0  0.62407  0.66309  0.27538  1.0000
  C   C10       1.0  0.62406  0.33692  0.72462  1.0000
  C   C11       1.0  0.37593  0.27538  0.33692  1.0000
  C   C12       1.0  0.37593  0.72462  0.66308  1.0000
  C   C13       1.0  0.62405  0.16308  0.22462  1.0000
  C   C14       1.0  0.62405  0.83691  0.77538  1.0000
  C   C15       1.0  0.37594  0.77539  0.16308  1.0000
  C   C16       1.0  0.37594  0.22462  0.83692  1.0000
  C   C17       1.0  0.50002  0.75410  0.25410  1.0000
  C   C18       1.0  0.50001  0.24590  0.74590  1.0000
  C   C19       1.0  0.50000  0.25410  0.24589  1.0000
  C   C20       1.0  0.49999  0.74590  0.75410  1.0000
  C   C21       1.0  0.75943  0.63814  0.37245  1.0000
  C   C22       1.0  0.75942  0.36186  0.62755  1.0000
  C   C23       1.0  0.24058  0.37245  0.36186  1.0000
  C   C24       1.0  0.24058  0.62755  0.63814  1.0000
  C   C25       1.0  0.75942  0.13814  0.12755  1.0000
  C   C26       1.0  0.75941  0.86186  0.87245  1.0000
  C   C27       1.0  0.24059  0.87245  0.13814  1.0000
  C   C28       1.0  0.24059  0.12755  0.86186  1.0000
  N   N1        1.0  0.49998  0.61536  0.11535  1.0000
  N   N2        1.0  0.49999  0.38464  0.88465  1.0000
  N   N3        1.0  0.49999  0.11536  0.38465  1.0000
  N   N4        1.0  0.49999  0.88464  0.61535  1.0000
  Cl  Cl1       1.0  0.99999  0.39977  0.10023  1.0000
  Cl  Cl2       1.0  1.00000  0.60023  0.89977  1.0000
  Cl  Cl3       1.0  0.00000  0.10023  0.60023  1.0000
  Cl  Cl4       1.0  0.00000  0.89977  0.39977  1.0000
