data_image0
_chemical_formula_structural       Hg8H36C28N4Cl16
_chemical_formula_sum              "Hg8 H36 C28 N4 Cl16"
_cell_length_a       3.98682
_cell_length_b       16.3908
_cell_length_c       20.1236
_cell_angle_alpha    90.0008
_cell_angle_beta     89.9997
_cell_angle_gamma    93.5957

_space_group_name_H-M_alt    "P 1"
_space_group_IT_number       1

loop_
  _space_group_symop_operation_xyz
  'x, y, z'

loop_
  _atom_site_type_symbol
  _atom_site_label
  _atom_site_symmetry_multiplicity
  _atom_site_fract_x
  _atom_site_fract_y
  _atom_site_fract_z
  _atom_site_occupancy
  Hg  Hg1       1.0  0.00001  0.50000  1.00000  1.0000
  Hg  Hg2       1.0  0.00001  1.00000  0.50000  1.0000
  Hg  Hg3       1.0  0.55517  0.78020  0.95011  1.0000
  Hg  Hg4       1.0  0.44483  0.71980  0.45011  1.0000
  Hg  Hg5       1.0  0.44483  0.21980  0.04989  1.0000
  Hg  Hg6       1.0  0.55516  0.28020  0.54989  1.0000
  Hg  Hg7       1.0  0.00000  1.00000  0.00000  1.0000
  Hg  Hg8       1.0  0.00001  0.50000  0.50000  1.0000
  H   H1        1.0  0.80654  0.34665  0.91740  1.0000
  H   H2        1.0  0.19344  0.15334  0.41741  1.0000
  H   H3        1.0  0.19350  0.65334  0.08259  1.0000
  H   H4        1.0  0.80657  0.84666  0.58259  1.0000
  H   H5        1.0  0.90589  0.40663  0.70922  1.0000
  H   H6        1.0  0.09408  0.09337  0.20923  1.0000
  H   H7        1.0  0.09410  0.59338  0.29077  1.0000
  H   H8        1.0  0.90588  0.90663  0.79078  1.0000
  H   H9        1.0  0.14730  0.58217  0.86470  1.0000
  H   H10       1.0  0.85270  0.91782  0.36471  1.0000
  H   H11       1.0  0.85270  0.41782  0.13529  1.0000
  H   H12       1.0  0.14730  0.08218  0.63530  1.0000
  H   H13       1.0  0.62970  0.24494  0.83834  1.0000
  H   H14       1.0  0.37031  0.25507  0.33835  1.0000
  H   H15       1.0  0.37030  0.75507  0.16165  1.0000
  H   H16       1.0  0.62970  0.74494  0.66166  1.0000
  H   H17       1.0  0.89781  0.24641  0.76747  1.0000
  H   H18       1.0  0.10219  0.25360  0.26748  1.0000
  H   H19       1.0  0.10220  0.75360  0.23252  1.0000
  H   H20       1.0  0.89781  0.74641  0.73253  1.0000
  H   H21       1.0  0.48990  0.28064  0.75965  1.0000
  H   H22       1.0  0.51009  0.21935  0.25966  1.0000
  H   H23       1.0  0.51009  0.71936  0.24034  1.0000
  H   H24       1.0  0.48991  0.78065  0.74034  1.0000
  H   H25       1.0  0.24284  0.62352  0.75302  1.0000
  H   H26       1.0  0.75715  0.87648  0.25302  1.0000
  H   H27       1.0  0.75718  0.37648  0.24698  1.0000
  H   H28       1.0  0.24282  0.12352  0.74699  1.0000
  H   H29       1.0  0.93911  0.58009  0.69605  1.0000
  H   H30       1.0  0.06090  0.91992  0.19605  1.0000
  H   H31       1.0  0.06093  0.41992  0.30395  1.0000
  H   H32       1.0  0.93907  0.08009  0.80396  1.0000
  H   H33       1.0  0.34761  0.54530  0.69646  1.0000
  H   H34       1.0  0.65239  0.95470  0.19646  1.0000
  H   H35       1.0  0.65241  0.45470  0.30354  1.0000
  H   H36       1.0  0.34758  0.04530  0.80354  1.0000
  C   C1        1.0  0.87015  0.38876  0.87677  1.0000
  C   C2        1.0  0.12982  0.11123  0.37678  1.0000
  C   C3        1.0  0.12985  0.61122  0.12322  1.0000
  C   C4        1.0  0.87018  0.88877  0.62323  1.0000
  C   C5        1.0  0.83609  0.36487  0.81040  1.0000
  C   C6        1.0  0.16389  0.13513  0.31041  1.0000
  C   C7        1.0  0.16393  0.63514  0.18959  1.0000
  C   C8        1.0  0.83610  0.86487  0.68960  1.0000
  C   C9        1.0  0.92634  0.42330  0.76169  1.0000
  C   C10       1.0  0.07362  0.07671  0.26169  1.0000
  C   C11       1.0  0.07365  0.57670  0.23831  1.0000
  C   C12       1.0  0.92634  0.92330  0.73831  1.0000
  C   C13       1.0  0.04403  0.50269  0.77941  1.0000
  C   C14       1.0  0.95595  0.99731  0.27941  1.0000
  C   C15       1.0  0.95598  0.49731  0.22059  1.0000
  C   C16       1.0  0.04402  0.00269  0.72059  1.0000
  C   C17       1.0  0.06253  0.52145  0.84706  1.0000
  C   C18       1.0  0.93748  0.97856  0.34706  1.0000
  C   C19       1.0  0.93750  0.47856  0.15294  1.0000
  C   C20       1.0  0.06251  0.02144  0.65294  1.0000
  C   C21       1.0  0.70575  0.27951  0.79353  1.0000
  C   C22       1.0  0.29424  0.22048  0.29354  1.0000
  C   C23       1.0  0.29424  0.72049  0.20646  1.0000
  C   C24       1.0  0.70576  0.77952  0.70646  1.0000
  C   C25       1.0  0.14904  0.56660  0.72881  1.0000
  C   C26       1.0  0.85097  0.93340  0.22881  1.0000
  C   C27       1.0  0.85099  0.43341  0.27119  1.0000
  C   C28       1.0  0.14900  0.06659  0.77119  1.0000
  N   N1        1.0  0.97799  0.46525  0.89382  1.0000
  N   N2        1.0  0.02200  0.03474  0.39382  1.0000
  N   N3        1.0  0.02203  0.53475  0.10618  1.0000
  N   N4        1.0  0.97800  0.96526  0.60619  1.0000
  Cl  Cl1       1.0  0.53738  0.61904  0.97245  1.0000
  Cl  Cl2       1.0  0.46263  0.88096  0.47245  1.0000
  Cl  Cl3       1.0  0.46263  0.38096  0.02755  1.0000
  Cl  Cl4       1.0  0.53738  0.11904  0.52755  1.0000
  Cl  Cl5       1.0  0.92428  0.82327  0.04091  1.0000
  Cl  Cl6       1.0  0.07575  0.67673  0.54091  1.0000
  Cl  Cl7       1.0  0.07574  0.17673  0.95909  1.0000
  Cl  Cl8       1.0  0.92426  0.32327  0.45909  1.0000
  Cl  Cl9       1.0  0.14250  0.77251  0.86230  1.0000
  Cl  Cl10      1.0  0.85751  0.72749  0.36230  1.0000
  Cl  Cl11      1.0  0.85750  0.22749  0.13770  1.0000
  Cl  Cl12      1.0  0.14249  0.27251  0.63769  1.0000
  Cl  Cl13      1.0  0.60783  0.97114  0.91256  1.0000
  Cl  Cl14      1.0  0.39217  0.52885  0.41256  1.0000
  Cl  Cl15      1.0  0.39216  0.02886  0.08744  1.0000
  Cl  Cl16      1.0  0.60784  0.47114  0.58744  1.0000
