data_image0
_chemical_formula_structural       Hg4H12C20I8N4Cl8
_chemical_formula_sum              "Hg4 H12 C20 I8 N4 Cl8"
_cell_length_a       4.34048
_cell_length_b       15.2373
_cell_length_c       18.3853
_cell_angle_alpha    66.6269
_cell_angle_beta     83.2425
_cell_angle_gamma    81.8316

_space_group_name_H-M_alt    "P 1"
_space_group_IT_number       1

loop_
  _space_group_symop_operation_xyz
  'x, y, z'

loop_
  _atom_site_type_symbol
  _atom_site_label
  _atom_site_symmetry_multiplicity
  _atom_site_fract_x
  _atom_site_fract_y
  _atom_site_fract_z
  _atom_site_occupancy
  Hg  Hg1       1.0  0.70087  0.26903  0.52042  1.0000
  Hg  Hg2       1.0  0.49072  0.23099  0.97960  1.0000
  Hg  Hg3       1.0  0.29912  0.73097  0.47958  1.0000
  Hg  Hg4       1.0  0.50928  0.76901  0.02040  1.0000
  H   H1        1.0  0.04919  0.28125  0.34664  1.0000
  H   H2        1.0  0.67725  0.21881  0.15332  1.0000
  H   H3        1.0  0.95081  0.71875  0.65336  1.0000
  H   H4        1.0  0.32275  0.78119  0.84668  1.0000
  H   H5        1.0  0.73532  0.53896  0.14916  1.0000
  H   H6        1.0  0.42340  0.96112  0.35077  1.0000
  H   H7        1.0  0.26468  0.46104  0.85084  1.0000
  H   H8        1.0  0.57660  0.03888  0.64923  1.0000
  H   H9        1.0  0.39383  0.48300  0.39312  1.0000
  H   H10       1.0  0.27032  0.01694  0.10679  1.0000
  H   H11       1.0  0.60617  0.51700  0.60688  1.0000
  H   H12       1.0  0.72968  0.98306  0.89321  1.0000
  C   C1        1.0  0.90629  0.35018  0.32240  1.0000
  C   C2        1.0  0.57881  0.14990  0.17756  1.0000
  C   C3        1.0  0.09371  0.64982  0.67760  1.0000
  C   C4        1.0  0.42120  0.85010  0.82244  1.0000
  C   C5        1.0  0.91450  0.40599  0.24097  1.0000
  C   C6        1.0  0.56115  0.09413  0.25899  1.0000
  C   C7        1.0  0.08550  0.59401  0.75903  1.0000
  C   C8        1.0  0.43885  0.90587  0.74101  1.0000
  C   C9        1.0  0.73175  0.49428  0.21242  1.0000
  C   C10       1.0  0.43820  0.00582  0.28753  1.0000
  C   C11       1.0  0.26825  0.50572  0.78758  1.0000
  C   C12       1.0  0.56181  0.99418  0.71248  1.0000
  C   C13       1.0  0.54378  0.52293  0.26776  1.0000
  C   C14       1.0  0.33421  0.97711  0.23218  1.0000
  C   C15       1.0  0.45622  0.47707  0.73224  1.0000
  C   C16       1.0  0.66580  0.02289  0.76782  1.0000
  C   C17       1.0  0.54125  0.46328  0.34845  1.0000
  C   C18       1.0  0.35322  0.03670  0.15148  1.0000
  C   C19       1.0  0.45875  0.53672  0.65155  1.0000
  C   C20       1.0  0.64678  0.96330  0.84852  1.0000
  I   I1        1.0  0.09162  0.12206  0.50884  1.0000
  I   I2        1.0  0.72320  0.37795  0.99123  1.0000
  I   I3        1.0  0.90838  0.87795  0.49116  1.0000
  I   I4        1.0  0.27680  0.62205  0.00877  1.0000
  I   I5        1.0  0.21529  0.36422  0.57308  1.0000
  I   I6        1.0  0.15358  0.13579  0.92676  1.0000
  I   I7        1.0  0.78471  0.63578  0.42692  1.0000
  I   I8        1.0  0.84641  0.86421  0.07324  1.0000
  N   N1        1.0  0.72063  0.37921  0.37389  1.0000
  N   N2        1.0  0.47413  0.12076  0.12605  1.0000
  N   N3        1.0  0.27937  0.62080  0.62611  1.0000
  N   N4        1.0  0.52587  0.87924  0.87395  1.0000
  Cl  Cl1       1.0  0.14906  0.36548  0.17606  1.0000
  Cl  Cl2       1.0  0.69041  0.13460  0.32395  1.0000
  Cl  Cl3       1.0  0.85094  0.63452  0.82394  1.0000
  Cl  Cl4       1.0  0.30959  0.86540  0.67605  1.0000
  Cl  Cl5       1.0  0.31526  0.63157  0.23721  1.0000
  Cl  Cl6       1.0  0.18352  0.86852  0.26272  1.0000
  Cl  Cl7       1.0  0.68474  0.36843  0.76279  1.0000
  Cl  Cl8       1.0  0.81649  0.13148  0.73728  1.0000
