data_image0
_chemical_formula_structural       Hg2H12C20Br12N4
_chemical_formula_sum              "Hg2 H12 C20 Br12 N4"
_cell_length_a       3.99298
_cell_length_b       14.4675
_cell_length_c       14.5388
_cell_angle_alpha    86.8499
_cell_angle_beta     82.9808
_cell_angle_gamma    82.6938

_space_group_name_H-M_alt    "P 1"
_space_group_IT_number       1

loop_
  _space_group_symop_operation_xyz
  'x, y, z'

loop_
  _atom_site_type_symbol
  _atom_site_label
  _atom_site_symmetry_multiplicity
  _atom_site_fract_x
  _atom_site_fract_y
  _atom_site_fract_z
  _atom_site_occupancy
  Hg  Hg1       1.0  0.99999  0.00000  0.99999  1.0000
  Hg  Hg2       1.0  0.50003  0.50000  0.50000  1.0000
  H   H1        1.0  0.67392  0.22140  0.02802  1.0000
  H   H2        1.0  0.32608  0.77861  0.97198  1.0000
  H   H3        1.0  0.72523  0.31515  0.30383  1.0000
  H   H4        1.0  0.27473  0.68484  0.69617  1.0000
  H   H5        1.0  0.11310  0.03491  0.21913  1.0000
  H   H6        1.0  0.88688  0.96508  0.78087  1.0000
  H   H7        1.0  0.64290  0.53812  0.27123  1.0000
  H   H8        1.0  0.35716  0.46187  0.72877  1.0000
  H   H9        1.0  0.99145  0.80813  0.20304  1.0000
  H   H10       1.0  0.00858  0.19187  0.79697  1.0000
  H   H11       1.0  0.46666  0.73812  0.47187  1.0000
  H   H12       1.0  0.53338  0.26187  0.52814  1.0000
  C   C1        1.0  0.74615  0.21007  0.09813  1.0000
  C   C2        1.0  0.25383  0.78995  0.90187  1.0000
  C   C3        1.0  0.68554  0.28001  0.16261  1.0000
  C   C4        1.0  0.31441  0.72000  0.83739  1.0000
  C   C5        1.0  0.77531  0.26186  0.25217  1.0000
  C   C6        1.0  0.22463  0.73814  0.74783  1.0000
  C   C7        1.0  0.92790  0.17226  0.27309  1.0000
  C   C8        1.0  0.07206  0.82773  0.72691  1.0000
  C   C9        1.0  0.98837  0.10512  0.20573  1.0000
  C   C10       1.0  0.01159  0.89488  0.79427  1.0000
  C   C11       1.0  0.67007  0.60890  0.28888  1.0000
  C   C12       1.0  0.32994  0.39109  0.71112  1.0000
  C   C13       1.0  0.82773  0.67035  0.22541  1.0000
  C   C14       1.0  0.17226  0.32965  0.77459  1.0000
  C   C15       1.0  0.86085  0.76001  0.25072  1.0000
  C   C16       1.0  0.13915  0.23998  0.74929  1.0000
  C   C17       1.0  0.72305  0.78518  0.33991  1.0000
  C   C18       1.0  0.27704  0.21482  0.66009  1.0000
  C   C19       1.0  0.57006  0.72092  0.40108  1.0000
  C   C20       1.0  0.42999  0.27907  0.59892  1.0000
  Br  Br1       1.0  0.54928  0.09863  0.90014  1.0000
  Br  Br2       1.0  0.45068  0.90137  0.09986  1.0000
  Br  Br3       1.0  0.47963  0.40048  0.12762  1.0000
  Br  Br4       1.0  0.52033  0.59953  0.87237  1.0000
  Br  Br5       1.0  0.05122  0.14048  0.39413  1.0000
  Br  Br6       1.0  0.94879  0.85951  0.60587  1.0000
  Br  Br7       1.0  0.14382  0.41188  0.39926  1.0000
  Br  Br8       1.0  0.85624  0.58813  0.60074  1.0000
  Br  Br9       1.0  0.74886  0.90746  0.37802  1.0000
  Br  Br10      1.0  0.25125  0.09253  0.62201  1.0000
  Br  Br11      1.0  0.00272  0.63135  0.10439  1.0000
  Br  Br12      1.0  0.99715  0.36868  0.89559  1.0000
  N   N1        1.0  0.89601  0.12502  0.12060  1.0000
  N   N2        1.0  0.10395  0.87498  0.87940  1.0000
  N   N3        1.0  0.54962  0.63461  0.37497  1.0000
  N   N4        1.0  0.45042  0.36538  0.62504  1.0000
