data_image0
_chemical_formula_structural       Hg4H12C20Br8N4Cl8
_chemical_formula_sum              "Hg4 H12 C20 Br8 N4 Cl8"
_cell_length_a       4.10055
_cell_length_b       13.4538
_cell_length_c       17.7104
_cell_angle_alpha    90.0006
_cell_angle_beta     89.999
_cell_angle_gamma    88.2585

_space_group_name_H-M_alt    "P 1"
_space_group_IT_number       1

loop_
  _space_group_symop_operation_xyz
  'x, y, z'

loop_
  _atom_site_type_symbol
  _atom_site_label
  _atom_site_symmetry_multiplicity
  _atom_site_fract_x
  _atom_site_fract_y
  _atom_site_fract_z
  _atom_site_occupancy
  Hg  Hg1       1.0  0.11364  0.55315  0.73348  1.0000
  Hg  Hg2       1.0  0.88635  0.94686  0.23349  1.0000
  Hg  Hg3       1.0  0.88630  0.44684  0.26652  1.0000
  Hg  Hg4       1.0  0.11366  0.05315  0.76651  1.0000
  H   H1        1.0  0.31858  0.77644  0.81189  1.0000
  H   H2        1.0  0.68144  0.72359  0.31189  1.0000
  H   H3        1.0  0.68141  0.22355  0.18811  1.0000
  H   H4        1.0  0.31857  0.27642  0.68811  1.0000
  H   H5        1.0  0.95571  0.80245  0.04124  1.0000
  H   H6        1.0  0.04435  0.69755  0.54123  1.0000
  H   H7        1.0  0.04436  0.19754  0.95877  1.0000
  H   H8        1.0  0.95563  0.30245  0.45877  1.0000
  H   H9        1.0  0.80969  0.54218  0.90314  1.0000
  H   H10       1.0  0.19032  0.95784  0.40315  1.0000
  H   H11       1.0  0.19028  0.45782  0.09686  1.0000
  H   H12       1.0  0.80970  0.04217  0.59685  1.0000
  C   C1        1.0  0.18858  0.74711  0.86036  1.0000
  C   C2        1.0  0.81143  0.75292  0.36036  1.0000
  C   C3        1.0  0.81141  0.25288  0.13964  1.0000
  C   C4        1.0  0.18857  0.24710  0.63964  1.0000
  C   C5        1.0  0.15167  0.80160  0.92726  1.0000
  C   C6        1.0  0.84838  0.69841  0.42726  1.0000
  C   C7        1.0  0.84838  0.19838  0.07273  1.0000
  C   C8        1.0  0.15162  0.30160  0.57274  1.0000
  C   C9        1.0  0.98704  0.76162  0.98852  1.0000
  C   C10       1.0  0.01299  0.73839  0.48852  1.0000
  C   C11       1.0  0.01299  0.23837  0.01148  1.0000
  C   C12       1.0  0.98700  0.26162  0.51149  1.0000
  C   C13       1.0  0.86314  0.66687  0.97990  1.0000
  C   C14       1.0  0.13689  0.83313  0.47991  1.0000
  C   C15       1.0  0.13689  0.33311  0.02010  1.0000
  C   C16       1.0  0.86312  0.16688  0.52010  1.0000
  C   C17       1.0  0.90505  0.61614  0.91167  1.0000
  C   C18       1.0  0.09497  0.88389  0.41167  1.0000
  C   C19       1.0  0.09492  0.38385  0.08834  1.0000
  C   C20       1.0  0.90505  0.11612  0.58833  1.0000
  Br  Br1       1.0  0.76354  0.41219  0.77314  1.0000
  Br  Br2       1.0  0.23648  0.08782  0.27314  1.0000
  Br  Br3       1.0  0.23634  0.58781  0.22685  1.0000
  Br  Br4       1.0  0.76352  0.91218  0.72686  1.0000
  Br  Br5       1.0  0.50188  0.66365  0.66500  1.0000
  Br  Br6       1.0  0.49812  0.83634  0.16502  1.0000
  Br  Br7       1.0  0.49808  0.33635  0.33500  1.0000
  Br  Br8       1.0  0.50189  0.16366  0.83499  1.0000
  N   N1        1.0  0.06574  0.65633  0.85396  1.0000
  N   N2        1.0  0.93428  0.84369  0.35396  1.0000
  N   N3        1.0  0.93426  0.34367  0.14604  1.0000
  N   N4        1.0  0.06573  0.15631  0.64603  1.0000
  Cl  Cl1       1.0  0.31071  0.91837  0.93413  1.0000
  Cl  Cl2       1.0  0.68933  0.58164  0.43412  1.0000
  Cl  Cl3       1.0  0.68932  0.08161  0.06587  1.0000
  Cl  Cl4       1.0  0.31065  0.41837  0.56588  1.0000
  Cl  Cl5       1.0  0.66250  0.61187  0.05355  1.0000
  Cl  Cl6       1.0  0.33751  0.88814  0.55355  1.0000
  Cl  Cl7       1.0  0.33751  0.38813  0.94645  1.0000
  Cl  Cl8       1.0  0.66249  0.11186  0.44645  1.0000
