data_image0
_chemical_formula_structural       Hg4H12C20I8Br8N4
_chemical_formula_sum              "Hg4 H12 C20 I8 Br8 N4"
_cell_length_a       4.285
_cell_length_b       15.8172
_cell_length_c       18.6001
_cell_angle_alpha    65.7743
_cell_angle_beta     83.3878
_cell_angle_gamma    82.2048

_space_group_name_H-M_alt    "P 1"
_space_group_IT_number       1

loop_
  _space_group_symop_operation_xyz
  'x, y, z'

loop_
  _atom_site_type_symbol
  _atom_site_label
  _atom_site_symmetry_multiplicity
  _atom_site_fract_x
  _atom_site_fract_y
  _atom_site_fract_z
  _atom_site_occupancy
  Hg  Hg1       1.0  0.68748  0.27261  0.51799  1.0000
  Hg  Hg2       1.0  0.47889  0.22735  0.98198  1.0000
  Hg  Hg3       1.0  0.31253  0.72739  0.48202  1.0000
  Hg  Hg4       1.0  0.52111  0.77265  0.01802  1.0000
  H   H1        1.0  0.03773  0.28696  0.34475  1.0000
  H   H2        1.0  0.67038  0.21291  0.15541  1.0000
  H   H3        1.0  0.96228  0.71304  0.65524  1.0000
  H   H4        1.0  0.32963  0.78709  0.84459  1.0000
  H   H5        1.0  0.74368  0.54264  0.14886  1.0000
  H   H6        1.0  0.43625  0.95717  0.35118  1.0000
  H   H7        1.0  0.25628  0.45736  0.85114  1.0000
  H   H8        1.0  0.56375  0.04283  0.64882  1.0000
  H   H9        1.0  0.40035  0.48384  0.39166  1.0000
  H   H10       1.0  0.27719  0.01615  0.10830  1.0000
  H   H11       1.0  0.59967  0.51617  0.60834  1.0000
  H   H12       1.0  0.72282  0.98385  0.89170  1.0000
  C   C1        1.0  0.90134  0.35498  0.32073  1.0000
  C   C2        1.0  0.57821  0.14489  0.17937  1.0000
  C   C3        1.0  0.09864  0.64501  0.67927  1.0000
  C   C4        1.0  0.42179  0.85511  0.82063  1.0000
  C   C5        1.0  0.91400  0.41118  0.23998  1.0000
  C   C6        1.0  0.56605  0.08863  0.26012  1.0000
  C   C7        1.0  0.08596  0.58881  0.76002  1.0000
  C   C8        1.0  0.43396  0.91136  0.73988  1.0000
  C   C9        1.0  0.73781  0.49791  0.21173  1.0000
  C   C10       1.0  0.44853  0.00190  0.28831  1.0000
  C   C11       1.0  0.26215  0.50209  0.78826  1.0000
  C   C12       1.0  0.55147  0.99810  0.71169  1.0000
  C   C13       1.0  0.55203  0.52460  0.26699  1.0000
  C   C14       1.0  0.34472  0.97529  0.23301  1.0000
  C   C15       1.0  0.44795  0.47540  0.73301  1.0000
  C   C16       1.0  0.65529  0.02471  0.76699  1.0000
  C   C17       1.0  0.54567  0.46537  0.34705  1.0000
  C   C18       1.0  0.35932  0.03457  0.15296  1.0000
  C   C19       1.0  0.45432  0.53463  0.65295  1.0000
  C   C20       1.0  0.64069  0.96543  0.84704  1.0000
  I   I1        1.0  0.06163  0.12783  0.50772  1.0000
  I   I2        1.0  0.69795  0.37202  0.99240  1.0000
  I   I3        1.0  0.93837  0.87217  0.49228  1.0000
  I   I4        1.0  0.30207  0.62798  0.00760  1.0000
  I   I5        1.0  0.20006  0.36707  0.56731  1.0000
  I   I6        1.0  0.13614  0.13329  0.93211  1.0000
  I   I7        1.0  0.79994  0.63293  0.43269  1.0000
  I   I8        1.0  0.86388  0.86671  0.06789  1.0000
  Br  Br1       1.0  0.16738  0.36965  0.16809  1.0000
  Br  Br2       1.0  0.70552  0.13014  0.33209  1.0000
  Br  Br3       1.0  0.83260  0.63035  0.83191  1.0000
  Br  Br4       1.0  0.29449  0.86987  0.66790  1.0000
  Br  Br5       1.0  0.30754  0.64164  0.23357  1.0000
  Br  Br6       1.0  0.18319  0.85841  0.26627  1.0000
  Br  Br7       1.0  0.69250  0.35837  0.76643  1.0000
  Br  Br8       1.0  0.81682  0.14159  0.73373  1.0000
  N   N1        1.0  0.71861  0.38260  0.37216  1.0000
  N   N2        1.0  0.47468  0.11731  0.12790  1.0000
  N   N3        1.0  0.28139  0.61741  0.62784  1.0000
  N   N4        1.0  0.52534  0.88269  0.87210  1.0000
