data_image0
_chemical_formula_structural       Hg4H36C28I8N4
_chemical_formula_sum              "Hg4 H36 C28 I8 N4"
_cell_length_a       4.3058
_cell_length_b       15.416
_cell_length_c       18.2797
_cell_angle_alpha    67.9471
_cell_angle_beta     83.2791
_cell_angle_gamma    81.9005

_space_group_name_H-M_alt    "P 1"
_space_group_IT_number       1

loop_
  _space_group_symop_operation_xyz
  'x, y, z'

loop_
  _atom_site_type_symbol
  _atom_site_label
  _atom_site_symmetry_multiplicity
  _atom_site_fract_x
  _atom_site_fract_y
  _atom_site_fract_z
  _atom_site_occupancy
  Hg  Hg1       1.0  0.67079  0.27709  0.50965  1.0000
  Hg  Hg2       1.0  0.45660  0.22245  0.99036  1.0000
  Hg  Hg3       1.0  0.32923  0.72291  0.49035  1.0000
  Hg  Hg4       1.0  0.54338  0.77755  0.00964  1.0000
  H   H1        1.0  0.01279  0.28303  0.34354  1.0000
  H   H2        1.0  0.63748  0.21642  0.15646  1.0000
  H   H3        1.0  0.98719  0.71696  0.65645  1.0000
  H   H4        1.0  0.36248  0.78358  0.84354  1.0000
  H   H5        1.0  0.77607  0.54572  0.15325  1.0000
  H   H6        1.0  0.47402  0.95410  0.34687  1.0000
  H   H7        1.0  0.22397  0.45428  0.84675  1.0000
  H   H8        1.0  0.52597  0.04591  0.65313  1.0000
  H   H9        1.0  0.38941  0.48669  0.39376  1.0000
  H   H10       1.0  0.27132  0.01252  0.10614  1.0000
  H   H11       1.0  0.61061  0.51331  0.60624  1.0000
  H   H12       1.0  0.72868  0.98747  0.89386  1.0000
  H   H13       1.0  0.13662  0.42755  0.12275  1.0000
  H   H14       1.0  0.68618  0.07227  0.37730  1.0000
  H   H15       1.0  0.86337  0.57245  0.87725  1.0000
  H   H16       1.0  0.31380  0.92774  0.62270  1.0000
  H   H17       1.0  0.04880  0.31127  0.17969  1.0000
  H   H18       1.0  0.53776  0.18853  0.32021  1.0000
  H   H19       1.0  0.95120  0.68873  0.82031  1.0000
  H   H20       1.0  0.46221  0.81148  0.67978  1.0000
  H   H21       1.0  0.37290  0.35509  0.20073  1.0000
  H   H22       1.0  0.92693  0.14460  0.29929  1.0000
  H   H23       1.0  0.62710  0.64491  0.79926  1.0000
  H   H24       1.0  0.07305  0.85541  0.70071  1.0000
  H   H25       1.0  0.42258  0.66622  0.18211  1.0000
  H   H26       1.0  0.27215  0.83346  0.31801  1.0000
  H   H27       1.0  0.57742  0.33378  0.81789  1.0000
  H   H28       1.0  0.72788  0.16653  0.68200  1.0000
  H   H29       1.0  0.45086  0.66638  0.27861  1.0000
  H   H30       1.0  0.39509  0.83319  0.22150  1.0000
  H   H31       1.0  0.54915  0.33362  0.72139  1.0000
  H   H32       1.0  0.60492  0.16681  0.77851  1.0000
  H   H33       1.0  0.12632  0.62244  0.25854  1.0000
  H   H34       1.0  0.00687  0.87740  0.24177  1.0000
  H   H35       1.0  0.87368  0.37755  0.74146  1.0000
  H   H36       1.0  0.99315  0.12259  0.75824  1.0000
  C   C1        1.0  0.88730  0.35353  0.31975  1.0000
  C   C2        1.0  0.55943  0.14594  0.18024  1.0000
  C   C3        1.0  0.11272  0.64647  0.68025  1.0000
  C   C4        1.0  0.44054  0.85406  0.81976  1.0000
  C   C5        1.0  0.92198  0.40973  0.23956  1.0000
  C   C6        1.0  0.57023  0.08987  0.26050  1.0000
  C   C7        1.0  0.07803  0.59027  0.76044  1.0000
  C   C8        1.0  0.42976  0.91014  0.73950  1.0000
  C   C9        1.0  0.75430  0.49939  0.21535  1.0000
  C   C10       1.0  0.46831  0.00030  0.28472  1.0000
  C   C11       1.0  0.24572  0.50061  0.78465  1.0000
  C   C12       1.0  0.53168  0.99970  0.71528  1.0000
  C   C13       1.0  0.55898  0.53032  0.26946  1.0000
  C   C14       1.0  0.35868  0.96929  0.23058  1.0000
  C   C15       1.0  0.44105  0.46968  0.73054  1.0000
  C   C16       1.0  0.64133  0.03071  0.76943  1.0000
  C   C17       1.0  0.53884  0.46787  0.34826  1.0000
  C   C18       1.0  0.35530  0.03152  0.15171  1.0000
  C   C19       1.0  0.46118  0.53213  0.65175  1.0000
  C   C20       1.0  0.64470  0.96848  0.84829  1.0000
  C   C21       1.0  0.13025  0.37428  0.18271  1.0000
  C   C22       1.0  0.68575  0.12545  0.31731  1.0000
  C   C23       1.0  0.86974  0.62571  0.81729  1.0000
  C   C24       1.0  0.31423  0.87455  0.68269  1.0000
  C   C25       1.0  0.38072  0.62647  0.24554  1.0000
  C   C26       1.0  0.25269  0.87322  0.25460  1.0000
  C   C27       1.0  0.61929  0.37353  0.75446  1.0000
  C   C28       1.0  0.74732  0.12677  0.74541  1.0000
  I   I1        1.0  0.05561  0.12506  0.50629  1.0000
  I   I2        1.0  0.68212  0.37476  0.99394  1.0000
  I   I3        1.0  0.94439  0.87494  0.49371  1.0000
  I   I4        1.0  0.31788  0.62523  0.00606  1.0000
  I   I5        1.0  0.17306  0.36351  0.57111  1.0000
  I   I6        1.0  0.10719  0.13697  0.92806  1.0000
  I   I7        1.0  0.82695  0.63649  0.42889  1.0000
  I   I8        1.0  0.89280  0.86303  0.07194  1.0000
  N   N1        1.0  0.69976  0.38214  0.37212  1.0000
  N   N2        1.0  0.45373  0.11722  0.12784  1.0000
  N   N3        1.0  0.30025  0.61786  0.62788  1.0000
  N   N4        1.0  0.54625  0.88278  0.87217  1.0000
