data_image0
_chemical_formula_structural       Cd2H26C42N4O12
_chemical_formula_sum              "Cd2 H26 C42 N4 O12"
_cell_length_a       9.26307
_cell_length_b       10.0314
_cell_length_c       11.7904
_cell_angle_alpha    81.9366
_cell_angle_beta     71.6651
_cell_angle_gamma    63.2743

_space_group_name_H-M_alt    "P 1"
_space_group_IT_number       1

loop_
  _space_group_symop_operation_xyz
  'x, y, z'

loop_
  _atom_site_type_symbol
  _atom_site_label
  _atom_site_symmetry_multiplicity
  _atom_site_fract_x
  _atom_site_fract_y
  _atom_site_fract_z
  _atom_site_occupancy
  Cd  Cd1       1.0  0.66681  0.80733  0.40886  1.0000
  Cd  Cd2       1.0  0.33319  0.19267  0.59114  1.0000
  H   H1        1.0  0.31576  0.50448  0.35119  1.0000
  H   H2        1.0  0.68425  0.49552  0.64881  1.0000
  H   H3        1.0  0.41035  0.78071  0.32530  1.0000
  H   H4        1.0  0.58965  0.21929  0.67469  1.0000
  H   H5        1.0  0.12204  0.94341  0.54981  1.0000
  H   H6        1.0  0.87797  0.05659  0.45019  1.0000
  H   H7        1.0  0.83238  0.98775  0.67422  1.0000
  H   H8        1.0  0.16762  0.01225  0.32578  1.0000
  H   H9        1.0  0.02568  0.53951  0.81042  1.0000
  H   H10       1.0  0.97431  0.46049  0.18958  1.0000
  H   H11       1.0  0.31413  0.49650  0.68685  1.0000
  H   H12       1.0  0.68587  0.50350  0.31315  1.0000
  H   H13       1.0  0.32251  0.92581  0.84657  1.0000
  H   H14       1.0  0.67749  0.07419  0.15342  1.0000
  H   H15       1.0  0.29767  0.88350  0.06517  1.0000
  H   H16       1.0  0.70234  0.11650  0.93483  1.0000
  H   H17       1.0  0.83287  0.72974  0.98485  1.0000
  H   H18       1.0  0.16713  0.27026  0.01515  1.0000
  H   H19       1.0  0.97793  0.73343  0.14007  1.0000
  H   H20       1.0  0.02206  0.26657  0.85994  1.0000
  H   H21       1.0  0.02041  0.63277  0.49038  1.0000
  H   H22       1.0  0.97959  0.36723  0.50963  1.0000
  H   H23       1.0  0.53722  0.44975  0.20374  1.0000
  H   H24       1.0  0.46278  0.55025  0.79626  1.0000
  H   H25       1.0  0.78489  0.37143  0.03018  1.0000
  H   H26       1.0  0.21511  0.62857  0.96982  1.0000
  C   C1        1.0  0.41183  0.69339  0.54225  1.0000
  C   C2        1.0  0.58817  0.30660  0.45775  1.0000
  C   C3        1.0  0.23669  0.71683  0.61002  1.0000
  C   C4        1.0  0.76331  0.28317  0.38998  1.0000
  C   C5        1.0  0.09949  0.85462  0.60576  1.0000
  C   C6        1.0  0.90051  0.14538  0.39424  1.0000
  C   C7        1.0  0.93751  0.87923  0.67540  1.0000
  C   C8        1.0  0.06249  0.12077  0.32460  1.0000
  C   C9        1.0  0.90812  0.76670  0.75029  1.0000
  C   C10       1.0  0.09188  0.23331  0.24971  1.0000
  C   C11       1.0  0.04608  0.62889  0.75405  1.0000
  C   C12       1.0  0.95391  0.37111  0.24595  1.0000
  C   C13       1.0  0.20827  0.60414  0.68452  1.0000
  C   C14       1.0  0.79173  0.39586  0.31548  1.0000
  C   C15       1.0  0.73775  0.79502  0.83109  1.0000
  C   C16       1.0  0.26225  0.20498  0.16891  1.0000
  C   C17       1.0  0.58968  0.85057  0.79371  1.0000
  C   C18       1.0  0.41032  0.14943  0.20629  1.0000
  C   C19       1.0  0.59044  0.86551  0.66499  1.0000
  C   C20       1.0  0.40957  0.13449  0.33502  1.0000
  C   C21       1.0  0.43328  0.88326  0.87882  1.0000
  C   C22       1.0  0.56672  0.11674  0.12118  1.0000
  C   C23       1.0  0.41957  0.85883  0.99988  1.0000
  C   C24       1.0  0.58043  0.14117  0.00012  1.0000
  C   C25       1.0  0.56535  0.80111  0.03743  1.0000
  C   C26       1.0  0.43465  0.19889  0.96257  1.0000
  C   C27       1.0  0.72163  0.77094  0.95324  1.0000
  C   C28       1.0  0.27837  0.22906  0.04676  1.0000
  C   C29       1.0  0.55763  0.77719  0.16577  1.0000
  C   C30       1.0  0.44237  0.22281  0.83423  1.0000
  C   C31       1.0  0.03841  0.68635  0.21054  1.0000
  C   C32       1.0  0.96160  0.31365  0.78945  1.0000
  C   C33       1.0  0.05378  0.63611  0.39359  1.0000
  C   C34       1.0  0.94621  0.36389  0.60642  1.0000
  C   C35       1.0  0.20722  0.59921  0.20331  1.0000
  C   C36       1.0  0.79278  0.40080  0.79669  1.0000
  C   C37       1.0  0.35587  0.54653  0.10091  1.0000
  C   C38       1.0  0.64413  0.45347  0.89910  1.0000
  C   C39       1.0  0.51933  0.47253  0.11473  1.0000
  C   C40       1.0  0.48067  0.52747  0.88527  1.0000
  C   C41       1.0  0.66019  0.42784  0.01590  1.0000
  C   C42       1.0  0.33981  0.57216  0.98410  1.0000
  N   N1        1.0  0.94519  0.70785  0.32887  1.0000
  N   N2        1.0  0.05481  0.29215  0.67113  1.0000
  N   N3        1.0  0.21171  0.56989  0.32090  1.0000
  N   N4        1.0  0.78829  0.43011  0.67910  1.0000
  O   O1        1.0  0.42848  0.77972  0.44989  1.0000
  O   O2        1.0  0.57153  0.22028  0.55011  1.0000
  O   O3        1.0  0.53501  0.59909  0.57602  1.0000
  O   O4        1.0  0.46499  0.40090  0.42399  1.0000
  O   O5        1.0  0.45235  0.95032  0.64009  1.0000
  O   O6        1.0  0.54765  0.04968  0.35990  1.0000
  O   O7        1.0  0.72483  0.78585  0.58774  1.0000
  O   O8        1.0  0.27517  0.21414  0.41226  1.0000
  O   O9        1.0  0.40809  0.79295  0.23770  1.0000
  O   O10       1.0  0.59191  0.20705  0.76229  1.0000
  O   O11       1.0  0.68186  0.74625  0.20169  1.0000
  O   O12       1.0  0.31814  0.25375  0.79831  1.0000
