data_image0
_chemical_formula_structural       Cu2H16C12N20
_chemical_formula_sum              "Cu2 H16 C12 N20"
_cell_length_a       6.56744
_cell_length_b       8.92372
_cell_length_c       8.92373
_cell_angle_alpha    94.3648
_cell_angle_beta     89.9997
_cell_angle_gamma    89.9994

_space_group_name_H-M_alt    "P 1"
_space_group_IT_number       1

loop_
  _space_group_symop_operation_xyz
  'x, y, z'

loop_
  _atom_site_type_symbol
  _atom_site_label
  _atom_site_symmetry_multiplicity
  _atom_site_fract_x
  _atom_site_fract_y
  _atom_site_fract_z
  _atom_site_occupancy
  Cu  Cu1       1.0  0.13247  0.12339  0.12339  1.0000
  Cu  Cu2       1.0  0.63247  0.87661  0.87661  1.0000
  H   H1        1.0  0.32777  0.44641  0.08512  1.0000
  H   H2        1.0  0.82777  0.55359  0.91488  1.0000
  H   H3        1.0  0.32777  0.08512  0.44641  1.0000
  H   H4        1.0  0.82777  0.91488  0.55359  1.0000
  H   H5        1.0  0.28168  0.58495  0.81785  1.0000
  H   H6        1.0  0.78168  0.41505  0.18215  1.0000
  H   H7        1.0  0.28168  0.81785  0.58495  1.0000
  H   H8        1.0  0.78168  0.18215  0.41505  1.0000
  H   H9        1.0  0.07720  0.39881  0.64645  1.0000
  H   H10       1.0  0.57719  0.60119  0.35355  1.0000
  H   H11       1.0  0.07720  0.64645  0.39881  1.0000
  H   H12       1.0  0.57719  0.35355  0.60119  1.0000
  H   H13       1.0  0.98261  0.16209  0.78316  1.0000
  H   H14       1.0  0.48260  0.83791  0.21684  1.0000
  H   H15       1.0  0.98260  0.78316  0.16209  1.0000
  H   H16       1.0  0.48260  0.21684  0.83791  1.0000
  C   C1        1.0  0.24926  0.40859  0.98259  1.0000
  C   C2        1.0  0.74926  0.59141  0.01740  1.0000
  C   C3        1.0  0.24926  0.98259  0.40859  1.0000
  C   C4        1.0  0.74926  0.01741  0.59141  1.0000
  C   C5        1.0  0.23044  0.47647  0.85025  1.0000
  C   C6        1.0  0.73043  0.52353  0.14975  1.0000
  C   C7        1.0  0.23044  0.85025  0.47647  1.0000
  C   C8        1.0  0.73043  0.14975  0.52353  1.0000
  C   C9        1.0  0.06839  0.25790  0.83050  1.0000
  C   C10       1.0  0.56838  0.74210  0.16949  1.0000
  C   C11       1.0  0.06838  0.83051  0.25790  1.0000
  C   C12       1.0  0.56838  0.16950  0.74210  1.0000
  N   N1        1.0  0.16132  0.89278  0.89277  1.0000
  N   N2        1.0  0.66133  0.10723  0.10722  1.0000
  N   N3        1.0  0.14791  0.27216  0.96886  1.0000
  N   N4        1.0  0.64791  0.72783  0.03114  1.0000
  N   N5        1.0  0.14791  0.96886  0.27216  1.0000
  N   N6        1.0  0.64790  0.03114  0.72784  1.0000
  N   N7        1.0  0.03233  0.96246  0.96246  1.0000
  N   N8        1.0  0.53234  0.03755  0.03754  1.0000
  N   N9        1.0  0.24948  0.28166  0.28166  1.0000
  N   N10       1.0  0.74948  0.71833  0.71833  1.0000
  N   N11       1.0  0.28596  0.82319  0.82319  1.0000
  N   N12       1.0  0.78597  0.17681  0.17681  1.0000
  N   N13       1.0  0.11538  0.38017  0.75652  1.0000
  N   N14       1.0  0.61536  0.61983  0.24348  1.0000
  N   N15       1.0  0.11537  0.75652  0.38017  1.0000
  N   N16       1.0  0.61536  0.24348  0.61983  1.0000
  N   N17       1.0  0.05303  0.44582  0.44581  1.0000
  N   N18       1.0  0.55303  0.55418  0.55418  1.0000
  N   N19       1.0  0.14842  0.36278  0.36278  1.0000
  N   N20       1.0  0.64841  0.63722  0.63722  1.0000
