data_image0
_chemical_formula_structural       La2H10C12S4O18
_chemical_formula_sum              "La2 H10 C12 S4 O18"
_cell_length_a       7.09
_cell_length_b       8.57821
_cell_length_c       8.99704
_cell_angle_alpha    84.3186
_cell_angle_beta     84.4136
_cell_angle_gamma    87.6735

_space_group_name_H-M_alt    "P 1"
_space_group_IT_number       1

loop_
  _space_group_symop_operation_xyz
  'x, y, z'

loop_
  _atom_site_type_symbol
  _atom_site_label
  _atom_site_symmetry_multiplicity
  _atom_site_fract_x
  _atom_site_fract_y
  _atom_site_fract_z
  _atom_site_occupancy
  La  La1       1.0  0.27327  0.22183  0.90381  1.0000
  La  La2       1.0  0.72672  0.77818  0.09619  1.0000
  H   H1        1.0  0.16429  0.83436  0.90803  1.0000
  H   H2        1.0  0.83571  0.16565  0.09197  1.0000
  H   H3        1.0  0.52478  0.41073  0.12313  1.0000
  H   H4        1.0  0.47523  0.58931  0.87679  1.0000
  H   H5        1.0  0.30705  0.42164  0.18099  1.0000
  H   H6        1.0  0.69298  0.57832  0.81903  1.0000
  H   H7        1.0  0.10927  0.65421  0.44713  1.0000
  H   H8        1.0  0.89073  0.34579  0.55287  1.0000
  H   H9        1.0  0.32175  0.12532  0.36711  1.0000
  H   H10       1.0  0.67824  0.87469  0.63289  1.0000
  C   C1        1.0  0.27683  0.03679  0.59999  1.0000
  C   C2        1.0  0.72316  0.96322  0.40001  1.0000
  C   C3        1.0  0.22354  0.90230  0.69816  1.0000
  C   C4        1.0  0.77646  0.09770  0.30184  1.0000
  C   C5        1.0  0.16016  0.76794  0.64407  1.0000
  C   C6        1.0  0.83985  0.23206  0.35592  1.0000
  C   C7        1.0  0.15932  0.75802  0.48974  1.0000
  C   C8        1.0  0.84068  0.24198  0.51026  1.0000
  C   C9        1.0  0.22272  0.88711  0.39412  1.0000
  C   C10       1.0  0.77728  0.11288  0.60588  1.0000
  C   C11       1.0  0.27745  0.02566  0.44536  1.0000
  C   C12       1.0  0.72254  0.97435  0.55463  1.0000
  S   S1        1.0  0.07349  0.61105  0.77144  1.0000
  S   S2        1.0  0.92653  0.38895  0.22857  1.0000
  S   S3        1.0  0.23730  0.87365  0.19950  1.0000
  S   S4        1.0  0.76269  0.12635  0.80050  1.0000
  O   O1        1.0  0.32309  0.16282  0.65905  1.0000
  O   O2        1.0  0.67688  0.83720  0.34095  1.0000
  O   O3        1.0  0.23712  0.91876  0.84648  1.0000
  O   O4        1.0  0.76288  0.08124  0.15353  1.0000
  O   O5        1.0  0.00577  0.68479  0.91100  1.0000
  O   O6        1.0  0.99422  0.31521  0.08900  1.0000
  O   O7        1.0  0.23895  0.50358  0.80098  1.0000
  O   O8        1.0  0.76109  0.49644  0.19903  1.0000
  O   O9        1.0  0.92364  0.53632  0.70788  1.0000
  O   O10       1.0  0.07639  0.46365  0.29213  1.0000
  O   O11       1.0  0.37851  0.74923  0.15956  1.0000
  O   O12       1.0  0.62148  0.25077  0.84044  1.0000
  O   O13       1.0  0.04981  0.83446  0.16034  1.0000
  O   O14       1.0  0.95017  0.16553  0.83967  1.0000
  O   O15       1.0  0.29740  0.02851  0.12756  1.0000
  O   O16       1.0  0.70259  0.97149  0.87244  1.0000
  O   O17       1.0  0.39980  0.37311  0.10901  1.0000
  O   O18       1.0  0.60022  0.62685  0.89100  1.0000
