data_image0
_chemical_formula_structural       Cu2H12C12Br2N14
_chemical_formula_sum              "Cu2 H12 C12 Br2 N14"
_cell_length_a       5.73109
_cell_length_b       8.67103
_cell_length_c       10.7247
_cell_angle_alpha    101.374
_cell_angle_beta     96.3882
_cell_angle_gamma    94.5517

_space_group_name_H-M_alt    "P 1"
_space_group_IT_number       1

loop_
  _space_group_symop_operation_xyz
  'x, y, z'

loop_
  _atom_site_type_symbol
  _atom_site_label
  _atom_site_symmetry_multiplicity
  _atom_site_fract_x
  _atom_site_fract_y
  _atom_site_fract_z
  _atom_site_occupancy
  Cu  Cu1       1.0  0.25297  0.47305  0.56131  1.0000
  Cu  Cu2       1.0  0.74703  0.52695  0.43869  1.0000
  H   H1        1.0  0.43943  0.29256  0.97399  1.0000
  H   H2        1.0  0.56054  0.70744  0.02601  1.0000
  H   H3        1.0  0.77116  0.04987  0.65873  1.0000
  H   H4        1.0  0.22886  0.95014  0.34128  1.0000
  H   H5        1.0  0.52830  0.18888  0.51510  1.0000
  H   H6        1.0  0.47173  0.81113  0.48491  1.0000
  H   H7        1.0  0.76678  0.96248  0.89268  1.0000
  H   H8        1.0  0.23320  0.03752  0.10734  1.0000
  H   H9        1.0  0.74312  0.12600  0.01983  1.0000
  H   H10       1.0  0.25683  0.87400  0.98018  1.0000
  H   H11       1.0  0.97050  0.13302  0.92056  1.0000
  H   H12       1.0  0.02948  0.86699  0.07947  1.0000
  C   C1        1.0  0.34306  0.33818  0.78593  1.0000
  C   C2        1.0  0.65694  0.66182  0.21406  1.0000
  C   C3        1.0  0.46720  0.26602  0.87342  1.0000
  C   C4        1.0  0.53279  0.73398  0.12657  1.0000
  C   C5        1.0  0.63066  0.16278  0.83004  1.0000
  C   C6        1.0  0.36934  0.83722  0.16996  1.0000
  C   C7        1.0  0.64897  0.13093  0.69806  1.0000
  C   C8        1.0  0.35104  0.86907  0.30194  1.0000
  C   C9        1.0  0.51739  0.20753  0.61760  1.0000
  C   C10       1.0  0.48263  0.79247  0.38241  1.0000
  C   C11       1.0  0.78405  0.09216  0.92134  1.0000
  C   C12       1.0  0.21591  0.90784  0.07868  1.0000
  Br  Br1       1.0  0.12310  0.48280  0.83929  1.0000
  Br  Br2       1.0  0.87688  0.51719  0.16071  1.0000
  N   N1        1.0  0.94331  0.35172  0.47807  1.0000
  N   N2        1.0  0.05672  0.64828  0.52193  1.0000
  N   N3        1.0  0.91616  0.21391  0.42223  1.0000
  N   N4        1.0  0.08387  0.78609  0.57775  1.0000
  N   N5        1.0  0.88696  0.08181  0.37032  1.0000
  N   N6        1.0  0.11308  0.91821  0.62965  1.0000
  N   N7        1.0  0.54440  0.62170  0.61884  1.0000
  N   N8        1.0  0.45561  0.37829  0.38115  1.0000
  N   N9        1.0  0.63339  0.65293  0.72943  1.0000
  N   N10       1.0  0.36661  0.34706  0.27056  1.0000
  N   N11       1.0  0.72478  0.68599  0.83539  1.0000
  N   N12       1.0  0.27522  0.31400  0.16459  1.0000
  N   N13       1.0  0.36991  0.31392  0.66128  1.0000
  N   N14       1.0  0.63010  0.68607  0.33872  1.0000
