data_image0
_chemical_formula_structural       Zn8H24C16N32Cl8
_chemical_formula_sum              "Zn8 H24 C16 N32 Cl8"
_cell_length_a       9.34305
_cell_length_b       10.0647
_cell_length_c       11.6052
_cell_angle_alpha    90
_cell_angle_beta     90
_cell_angle_gamma    90

_space_group_name_H-M_alt    "P 1"
_space_group_IT_number       1

loop_
  _space_group_symop_operation_xyz
  'x, y, z'

loop_
  _atom_site_type_symbol
  _atom_site_label
  _atom_site_symmetry_multiplicity
  _atom_site_fract_x
  _atom_site_fract_y
  _atom_site_fract_z
  _atom_site_occupancy
  Zn  Zn1       1.0  0.07297  0.10927  0.38655  1.0000
  Zn  Zn2       1.0  0.42703  0.89073  0.88654  1.0000
  Zn  Zn3       1.0  0.92703  0.60927  0.11345  1.0000
  Zn  Zn4       1.0  0.57297  0.39073  0.61346  1.0000
  Zn  Zn5       1.0  0.92703  0.89073  0.61346  1.0000
  Zn  Zn6       1.0  0.57297  0.10927  0.11345  1.0000
  Zn  Zn7       1.0  0.07297  0.39073  0.88655  1.0000
  Zn  Zn8       1.0  0.42703  0.60927  0.38654  1.0000
  H   H1        1.0  0.18214  0.40047  0.30660  1.0000
  H   H2        1.0  0.31786  0.59953  0.80660  1.0000
  H   H3        1.0  0.81786  0.90047  0.19340  1.0000
  H   H4        1.0  0.68214  0.09953  0.69340  1.0000
  H   H5        1.0  0.81786  0.59953  0.69340  1.0000
  H   H6        1.0  0.68214  0.40047  0.19340  1.0000
  H   H7        1.0  0.18214  0.09953  0.80660  1.0000
  H   H8        1.0  0.31786  0.90047  0.30660  1.0000
  H   H9        1.0  0.40720  0.15107  0.65798  1.0000
  H   H10       1.0  0.09280  0.84893  0.15798  1.0000
  H   H11       1.0  0.59280  0.65107  0.84202  1.0000
  H   H12       1.0  0.90720  0.34893  0.34202  1.0000
  H   H13       1.0  0.59280  0.84893  0.34202  1.0000
  H   H14       1.0  0.90720  0.15107  0.84202  1.0000
  H   H15       1.0  0.40720  0.34893  0.15798  1.0000
  H   H16       1.0  0.09280  0.65107  0.65798  1.0000
  H   H17       1.0  0.30213  0.05156  0.57492  1.0000
  H   H18       1.0  0.19787  0.94844  0.07492  1.0000
  H   H19       1.0  0.69787  0.55156  0.92508  1.0000
  H   H20       1.0  0.80213  0.44844  0.42508  1.0000
  H   H21       1.0  0.69787  0.94844  0.42508  1.0000
  H   H22       1.0  0.80213  0.05156  0.92508  1.0000
  H   H23       1.0  0.30213  0.44844  0.07492  1.0000
  H   H24       1.0  0.19787  0.55156  0.57492  1.0000
  C   C1        1.0  0.24082  0.36505  0.38122  1.0000
  C   C2        1.0  0.25918  0.63495  0.88122  1.0000
  C   C3        1.0  0.75918  0.86505  0.11878  1.0000
  C   C4        1.0  0.74082  0.13495  0.61878  1.0000
  C   C5        1.0  0.75918  0.63495  0.61878  1.0000
  C   C6        1.0  0.74082  0.36505  0.11878  1.0000
  C   C7        1.0  0.24082  0.13495  0.88122  1.0000
  C   C8        1.0  0.25918  0.86505  0.38122  1.0000
  C   C9        1.0  0.31476  0.24467  0.52187  1.0000
  C   C10       1.0  0.18524  0.75533  0.02187  1.0000
  C   C11       1.0  0.68524  0.74467  0.97813  1.0000
  C   C12       1.0  0.81476  0.25533  0.47813  1.0000
  C   C13       1.0  0.68524  0.75533  0.47813  1.0000
  C   C14       1.0  0.81476  0.24467  0.97813  1.0000
  C   C15       1.0  0.31476  0.25533  0.02187  1.0000
  C   C16       1.0  0.18524  0.74467  0.52187  1.0000
  N   N1        1.0  0.39453  0.35568  0.52194  1.0000
  N   N2        1.0  0.10547  0.64432  0.02194  1.0000
  N   N3        1.0  0.60547  0.85568  0.97806  1.0000
  N   N4        1.0  0.89453  0.14432  0.47806  1.0000
  N   N5        1.0  0.60547  0.64432  0.47806  1.0000
  N   N6        1.0  0.89453  0.35568  0.97806  1.0000
  N   N7        1.0  0.39453  0.14432  0.02194  1.0000
  N   N8        1.0  0.10547  0.85568  0.52194  1.0000
  N   N9        1.0  0.21692  0.24781  0.43466  1.0000
  N   N10       1.0  0.28308  0.75219  0.93465  1.0000
  N   N11       1.0  0.78308  0.74781  0.06534  1.0000
  N   N12       1.0  0.71692  0.25219  0.56534  1.0000
  N   N13       1.0  0.78308  0.75219  0.56534  1.0000
  N   N14       1.0  0.71692  0.24781  0.06534  1.0000
  N   N15       1.0  0.21692  0.25219  0.93466  1.0000
  N   N16       1.0  0.28308  0.74781  0.43466  1.0000
  N   N17       1.0  0.34538  0.43289  0.43122  1.0000
  N   N18       1.0  0.15462  0.56711  0.93122  1.0000
  N   N19       1.0  0.65462  0.93288  0.06878  1.0000
  N   N20       1.0  0.84538  0.06711  0.56878  1.0000
  N   N21       1.0  0.65462  0.56711  0.56878  1.0000
  N   N22       1.0  0.84538  0.43289  0.06878  1.0000
  N   N23       1.0  0.34538  0.06712  0.93122  1.0000
  N   N24       1.0  0.15462  0.93289  0.43122  1.0000
  N   N25       1.0  0.32603  0.14551  0.60013  1.0000
  N   N26       1.0  0.17397  0.85449  0.10013  1.0000
  N   N27       1.0  0.67397  0.64551  0.89987  1.0000
  N   N28       1.0  0.82603  0.35449  0.39987  1.0000
  N   N29       1.0  0.67397  0.85449  0.39987  1.0000
  N   N30       1.0  0.82603  0.14551  0.89987  1.0000
  N   N31       1.0  0.32603  0.35449  0.10014  1.0000
  N   N32       1.0  0.17397  0.64551  0.60013  1.0000
  Cl  Cl1       1.0  0.02798  0.13280  0.19914  1.0000
  Cl  Cl2       1.0  0.47201  0.86720  0.69914  1.0000
  Cl  Cl3       1.0  0.97202  0.63280  0.30086  1.0000
  Cl  Cl4       1.0  0.52798  0.36720  0.80086  1.0000
  Cl  Cl5       1.0  0.97202  0.86720  0.80086  1.0000
  Cl  Cl6       1.0  0.52798  0.13280  0.30086  1.0000
  Cl  Cl7       1.0  0.02798  0.36720  0.69914  1.0000
  Cl  Cl8       1.0  0.47202  0.63280  0.19914  1.0000
