data_image0
_chemical_formula_structural       Co4H56C56N16Cl8
_chemical_formula_sum              "Co4 H56 C56 N16 Cl8"
_cell_length_a       10.0393
_cell_length_b       11.2542
_cell_length_c       14.4943
_cell_angle_alpha    90
_cell_angle_beta     90
_cell_angle_gamma    90

_space_group_name_H-M_alt    "P 1"
_space_group_IT_number       1

loop_
  _space_group_symop_operation_xyz
  'x, y, z'

loop_
  _atom_site_type_symbol
  _atom_site_label
  _atom_site_symmetry_multiplicity
  _atom_site_fract_x
  _atom_site_fract_y
  _atom_site_fract_z
  _atom_site_occupancy
  Co  Co1       1.0  0.92325  0.00000  0.25000  1.0000
  Co  Co2       1.0  0.57677  0.50000  0.75000  1.0000
  Co  Co3       1.0  0.07676  1.00000  0.75000  1.0000
  Co  Co4       1.0  0.42323  0.50000  0.25000  1.0000
  H   H1        1.0  0.68171  0.37777  0.50853  1.0000
  H   H2        1.0  0.81829  0.12222  0.00854  1.0000
  H   H3        1.0  0.68171  0.62223  0.99147  1.0000
  H   H4        1.0  0.81829  0.87778  0.49147  1.0000
  H   H5        1.0  0.31829  0.62223  0.49147  1.0000
  H   H6        1.0  0.18171  0.87778  0.99147  1.0000
  H   H7        1.0  0.31829  0.37777  0.00853  1.0000
  H   H8        1.0  0.18171  0.12222  0.50853  1.0000
  H   H9        1.0  0.90895  0.12061  0.44895  1.0000
  H   H10       1.0  0.59104  0.37938  0.94895  1.0000
  H   H11       1.0  0.90895  0.87939  0.05104  1.0000
  H   H12       1.0  0.59104  0.62062  0.55105  1.0000
  H   H13       1.0  0.09104  0.87939  0.55104  1.0000
  H   H14       1.0  0.40896  0.62062  0.05105  1.0000
  H   H15       1.0  0.09104  0.12061  0.94896  1.0000
  H   H16       1.0  0.40896  0.37938  0.44895  1.0000
  H   H17       1.0  0.80187  0.53844  0.40121  1.0000
  H   H18       1.0  0.69812  0.96157  0.90121  1.0000
  H   H19       1.0  0.80187  0.46156  0.09880  1.0000
  H   H20       1.0  0.69813  0.03843  0.59879  1.0000
  H   H21       1.0  0.19813  0.46157  0.59879  1.0000
  H   H22       1.0  0.30187  0.03843  0.09879  1.0000
  H   H23       1.0  0.19813  0.53843  0.90121  1.0000
  H   H24       1.0  0.30187  0.96157  0.40121  1.0000
  H   H25       1.0  0.69630  0.19436  0.20367  1.0000
  H   H26       1.0  0.80373  0.30563  0.70368  1.0000
  H   H27       1.0  0.69630  0.80564  0.29633  1.0000
  H   H28       1.0  0.80373  0.69437  0.79632  1.0000
  H   H29       1.0  0.30371  0.80564  0.79632  1.0000
  H   H30       1.0  0.19627  0.69437  0.29632  1.0000
  H   H31       1.0  0.30371  0.19436  0.70368  1.0000
  H   H32       1.0  0.19627  0.30563  0.20368  1.0000
  H   H33       1.0  0.00828  0.32015  0.59952  1.0000
  H   H34       1.0  0.49172  0.17984  0.09954  1.0000
  H   H35       1.0  0.00828  0.67985  0.90048  1.0000
  H   H36       1.0  0.49172  0.82016  0.40046  1.0000
  H   H37       1.0  0.99172  0.67985  0.40047  1.0000
  H   H38       1.0  0.50827  0.82016  0.90046  1.0000
  H   H39       1.0  0.99172  0.32015  0.09953  1.0000
  H   H40       1.0  0.50827  0.17984  0.59953  1.0000
  H   H41       1.0  0.64012  0.36950  0.33329  1.0000
  H   H42       1.0  0.85990  0.13049  0.83331  1.0000
  H   H43       1.0  0.64012  0.63050  0.16671  1.0000
  H   H44       1.0  0.85990  0.86951  0.66669  1.0000
  H   H45       1.0  0.35989  0.63050  0.66670  1.0000
  H   H46       1.0  0.14010  0.86951  0.16669  1.0000
  H   H47       1.0  0.35989  0.36950  0.83330  1.0000
  H   H48       1.0  0.14010  0.13049  0.33331  1.0000
  H   H49       1.0  0.78854  0.26927  0.55792  1.0000
  H   H50       1.0  0.71147  0.23072  0.05793  1.0000
  H   H51       1.0  0.78854  0.73073  0.94208  1.0000
  H   H52       1.0  0.71147  0.76928  0.44207  1.0000
  H   H53       1.0  0.21146  0.73073  0.44208  1.0000
  H   H54       1.0  0.28853  0.76928  0.94207  1.0000
  H   H55       1.0  0.21146  0.26927  0.05792  1.0000
  H   H56       1.0  0.28853  0.23072  0.55793  1.0000
  C   C1        1.0  0.84439  0.16315  0.39875  1.0000
  C   C2        1.0  0.65561  0.33684  0.89875  1.0000
  C   C3        1.0  0.84439  0.83685  0.10125  1.0000
  C   C4        1.0  0.65562  0.66316  0.60125  1.0000
  C   C5        1.0  0.15561  0.83685  0.60125  1.0000
  C   C6        1.0  0.34439  0.66316  0.10125  1.0000
  C   C7        1.0  0.15561  0.16315  0.89875  1.0000
  C   C8        1.0  0.34439  0.33684  0.39875  1.0000
  C   C9        1.0  0.89233  0.42025  0.50093  1.0000
  C   C10       1.0  0.60768  0.07975  0.00094  1.0000
  C   C11       1.0  0.89233  0.57975  0.99907  1.0000
  C   C12       1.0  0.60767  0.92025  0.49906  1.0000
  C   C13       1.0  0.10768  0.57975  0.49906  1.0000
  C   C14       1.0  0.39232  0.92025  0.99906  1.0000
  C   C15       1.0  0.10768  0.42025  0.00094  1.0000
  C   C16       1.0  0.39232  0.07975  0.50094  1.0000
  C   C17       1.0  0.77810  0.33271  0.50090  1.0000
  C   C18       1.0  0.72190  0.16729  0.00091  1.0000
  C   C19       1.0  0.77810  0.66729  0.99910  1.0000
  C   C20       1.0  0.72190  0.83271  0.49909  1.0000
  C   C21       1.0  0.22190  0.66730  0.49909  1.0000
  C   C22       1.0  0.27809  0.83271  0.99909  1.0000
  C   C23       1.0  0.22190  0.33270  0.00091  1.0000
  C   C24       1.0  0.27810  0.16729  0.50091  1.0000
  C   C25       1.0  0.00431  0.39964  0.55631  1.0000
  C   C26       1.0  0.49570  0.10036  0.05632  1.0000
  C   C27       1.0  0.00431  0.60036  0.94368  1.0000
  C   C28       1.0  0.49570  0.89964  0.44368  1.0000
  C   C29       1.0  0.99570  0.60036  0.44368  1.0000
  C   C30       1.0  0.50430  0.89964  0.94368  1.0000
  C   C31       1.0  0.99569  0.39963  0.05632  1.0000
  C   C32       1.0  0.50430  0.10036  0.55632  1.0000
  C   C33       1.0  0.88879  0.52123  0.44450  1.0000
  C   C34       1.0  0.61121  0.97878  0.94451  1.0000
  C   C35       1.0  0.88879  0.47877  0.05550  1.0000
  C   C36       1.0  0.61121  0.02122  0.55549  1.0000
  C   C37       1.0  0.11122  0.47877  0.55549  1.0000
  C   C38       1.0  0.38878  0.02123  0.05550  1.0000
  C   C39       1.0  0.11122  0.52123  0.94451  1.0000
  C   C40       1.0  0.38878  0.97877  0.44450  1.0000
  C   C41       1.0  0.70259  0.29119  0.33682  1.0000
  C   C42       1.0  0.79742  0.20881  0.83683  1.0000
  C   C43       1.0  0.70259  0.70881  0.16318  1.0000
  C   C44       1.0  0.79742  0.79119  0.66317  1.0000
  C   C45       1.0  0.29741  0.70882  0.66318  1.0000
  C   C46       1.0  0.20258  0.79119  0.16317  1.0000
  C   C47       1.0  0.29741  0.29118  0.83682  1.0000
  C   C48       1.0  0.20258  0.20881  0.33683  1.0000
  C   C49       1.0  0.73311  0.20514  0.27324  1.0000
  C   C50       1.0  0.76692  0.29486  0.77325  1.0000
  C   C51       1.0  0.73310  0.79486  0.22676  1.0000
  C   C52       1.0  0.76692  0.70514  0.72675  1.0000
  C   C53       1.0  0.26690  0.79486  0.72676  1.0000
  C   C54       1.0  0.23308  0.70515  0.22675  1.0000
  C   C55       1.0  0.26690  0.20514  0.77324  1.0000
  C   C56       1.0  0.23308  0.29485  0.27325  1.0000
  N   N1        1.0  0.77305  0.26282  0.41557  1.0000
  N   N2        1.0  0.72695  0.23718  0.91559  1.0000
  N   N3        1.0  0.77305  0.73718  0.08443  1.0000
  N   N4        1.0  0.72695  0.76282  0.58442  1.0000
  N   N5        1.0  0.22695  0.73718  0.58442  1.0000
  N   N6        1.0  0.27305  0.76283  0.08442  1.0000
  N   N7        1.0  0.22695  0.26282  0.91558  1.0000
  N   N8        1.0  0.27305  0.23717  0.41558  1.0000
  N   N9        1.0  0.82194  0.12589  0.31245  1.0000
  N   N10       1.0  0.67807  0.37411  0.81245  1.0000
  N   N11       1.0  0.82194  0.87412  0.18755  1.0000
  N   N12       1.0  0.67808  0.62589  0.68754  1.0000
  N   N13       1.0  0.17806  0.87411  0.68754  1.0000
  N   N14       1.0  0.32193  0.62589  0.18755  1.0000
  N   N15       1.0  0.17806  0.12589  0.81246  1.0000
  N   N16       1.0  0.32193  0.37411  0.31245  1.0000
  Cl  Cl1       1.0  0.04019  0.91690  0.36540  1.0000
  Cl  Cl2       1.0  0.45973  0.58314  0.86534  1.0000
  Cl  Cl3       1.0  0.04019  0.08310  0.13460  1.0000
  Cl  Cl4       1.0  0.45973  0.41686  0.63467  1.0000
  Cl  Cl5       1.0  0.95981  0.08310  0.63461  1.0000
  Cl  Cl6       1.0  0.54026  0.41686  0.13466  1.0000
  Cl  Cl7       1.0  0.95981  0.91690  0.86539  1.0000
  Cl  Cl8       1.0  0.54026  0.58314  0.36534  1.0000
