data_image0
_chemical_formula_structural       Cd2H18C10Br4N2O6
_chemical_formula_sum              "Cd2 H18 C10 Br4 N2 O6"
_cell_length_a       7.49561
_cell_length_b       7.89507
_cell_length_c       7.97912
_cell_angle_alpha    102.783
_cell_angle_beta     90.0002
_cell_angle_gamma    89.9998

_space_group_name_H-M_alt    "P 1"
_space_group_IT_number       1

loop_
  _space_group_symop_operation_xyz
  'x, y, z'

loop_
  _atom_site_type_symbol
  _atom_site_label
  _atom_site_symmetry_multiplicity
  _atom_site_fract_x
  _atom_site_fract_y
  _atom_site_fract_z
  _atom_site_occupancy
  Cd  Cd1       1.0  0.95031  0.50227  0.99759  1.0000
  Cd  Cd2       1.0  0.45031  0.49774  0.00240  1.0000
  H   H1        1.0  0.19600  0.08832  0.91197  1.0000
  H   H2        1.0  0.69598  0.91169  0.08803  1.0000
  H   H3        1.0  0.99023  0.03727  0.68354  1.0000
  H   H4        1.0  0.49021  0.96274  0.31647  1.0000
  H   H5        1.0  0.92520  0.85671  0.76793  1.0000
  H   H6        1.0  0.42519  0.14331  0.23208  1.0000
  H   H7        1.0  0.03985  0.67081  0.51879  1.0000
  H   H8        1.0  0.53985  0.32919  0.48122  1.0000
  H   H9        1.0  0.32386  0.64798  0.63266  1.0000
  H   H10       1.0  0.82385  0.35201  0.36734  1.0000
  H   H11       1.0  0.39575  0.76333  0.47598  1.0000
  H   H12       1.0  0.89576  0.23666  0.52402  1.0000
  H   H13       1.0  0.40080  0.02209  0.68207  1.0000
  H   H14       1.0  0.90078  0.97790  0.31793  1.0000
  H   H15       1.0  0.45625  0.88162  0.80400  1.0000
  H   H16       1.0  0.95625  0.11837  0.19600  1.0000
  H   H17       1.0  0.11647  0.79803  0.29957  1.0000
  H   H18       1.0  0.61648  0.20197  0.70044  1.0000
  C   C1        1.0  0.20307  0.83393  0.97023  1.0000
  C   C2        1.0  0.70306  0.16608  0.02978  1.0000
  C   C3        1.0  0.19248  0.95244  0.84017  1.0000
  C   C4        1.0  0.69246  0.04757  0.15983  1.0000
  C   C5        1.0  0.03689  0.91569  0.71325  1.0000
  C   C6        1.0  0.53688  0.08432  0.28676  1.0000
  C   C7        1.0  0.10985  0.79603  0.54848  1.0000
  C   C8        1.0  0.60985  0.20397  0.45153  1.0000
  C   C9        1.0  0.30683  0.76736  0.58554  1.0000
  C   C10       1.0  0.80683  0.23264  0.41446  1.0000
  Br  Br1       1.0  0.69927  0.62058  0.25447  1.0000
  Br  Br2       1.0  0.19927  0.37942  0.74552  1.0000
  Br  Br3       1.0  0.70140  0.56969  0.77059  1.0000
  Br  Br4       1.0  0.20141  0.43029  0.22939  1.0000
  N   N1        1.0  0.35569  0.91658  0.72942  1.0000
  N   N2        1.0  0.85568  0.08342  0.27058  1.0000
  O   O1        1.0  0.05907  0.80045  0.03993  1.0000
  O   O2        1.0  0.55904  0.19956  0.96008  1.0000
  O   O3        1.0  0.35827  0.78262  0.99862  1.0000
  O   O4        1.0  0.85824  0.21740  0.00139  1.0000
  O   O5        1.0  0.08921  0.88125  0.40778  1.0000
  O   O6        1.0  0.58921  0.11874  0.59222  1.0000
