data_image0
_chemical_formula_structural       Mg3H46C56O2
_chemical_formula_sum              "Mg3 H46 C56 O2"
_cell_length_a       9.05207
_cell_length_b       9.54123
_cell_length_c       13.1755
_cell_angle_alpha    97.0074
_cell_angle_beta     98.1286
_cell_angle_gamma    95.7963

_space_group_name_H-M_alt    "P 1"
_space_group_IT_number       1

loop_
  _space_group_symop_operation_xyz
  'x, y, z'

loop_
  _atom_site_type_symbol
  _atom_site_label
  _atom_site_symmetry_multiplicity
  _atom_site_fract_x
  _atom_site_fract_y
  _atom_site_fract_z
  _atom_site_occupancy
  Mg  Mg1       1.0  0.50000  0.50000  0.00000  1.0000
  Mg  Mg2       1.0  0.16811  0.48136  0.01224  1.0000
  Mg  Mg3       1.0  0.83190  0.51864  0.98776  1.0000
  H   H1        1.0  0.44941  0.55944  0.38861  1.0000
  H   H2        1.0  0.55059  0.44056  0.61139  1.0000
  H   H3        1.0  0.34869  0.58097  0.55523  1.0000
  H   H4        1.0  0.65131  0.41903  0.44477  1.0000
  H   H5        1.0  0.08681  0.63620  0.55961  1.0000
  H   H6        1.0  0.91319  0.36380  0.44038  1.0000
  H   H7        1.0  0.92748  0.67569  0.39728  1.0000
  H   H8        1.0  0.07251  0.32431  0.60272  1.0000
  H   H9        1.0  0.02809  0.65731  0.23168  1.0000
  H   H10       1.0  0.97191  0.34269  0.76832  1.0000
  H   H11       1.0  0.46863  0.25398  0.70954  1.0000
  H   H12       1.0  0.53137  0.74601  0.29045  1.0000
  H   H13       1.0  0.45416  0.09752  0.54186  1.0000
  H   H14       1.0  0.54584  0.90248  0.45814  1.0000
  H   H15       1.0  0.22852  0.91732  0.47799  1.0000
  H   H16       1.0  0.77148  0.08267  0.52201  1.0000
  H   H17       1.0  0.02170  0.89728  0.58251  1.0000
  H   H18       1.0  0.97830  0.10272  0.41749  1.0000
  H   H19       1.0  0.03662  0.05357  0.74915  1.0000
  H   H20       1.0  0.96337  0.94643  0.25084  1.0000
  H   H21       1.0  0.13711  0.32953  0.30356  1.0000
  H   H22       1.0  0.86291  0.67047  0.69644  1.0000
  H   H23       1.0  0.28654  0.17244  0.40281  1.0000
  H   H24       1.0  0.71346  0.82755  0.59719  1.0000
  H   H25       1.0  0.34877  0.94508  0.31281  1.0000
  H   H26       1.0  0.65122  0.05491  0.68718  1.0000
  H   H27       1.0  0.26148  0.87625  0.12456  1.0000
  H   H28       1.0  0.73851  0.12375  0.87543  1.0000
  H   H29       1.0  0.12186  0.03957  0.02363  1.0000
  H   H30       1.0  0.87814  0.96043  0.97637  1.0000
  H   H31       1.0  0.57520  0.84303  0.95609  1.0000
  H   H32       1.0  0.42480  0.15698  0.04392  1.0000
  H   H33       1.0  0.42443  0.81719  0.02850  1.0000
  H   H34       1.0  0.57556  0.18281  0.97150  1.0000
  H   H35       1.0  0.25422  0.90531  0.90005  1.0000
  H   H36       1.0  0.74578  0.09469  0.09995  1.0000
  H   H37       1.0  0.41890  0.97714  0.85721  1.0000
  H   H38       1.0  0.58110  0.02286  0.14279  1.0000
  H   H39       1.0  0.19938  0.72975  0.75847  1.0000
  H   H40       1.0  0.80062  0.27025  0.24153  1.0000
  H   H41       1.0  0.35090  0.81005  0.70499  1.0000
  H   H42       1.0  0.64910  0.18995  0.29501  1.0000
  H   H43       1.0  0.35377  0.53861  0.76910  1.0000
  H   H44       1.0  0.64624  0.46139  0.23090  1.0000
  H   H45       1.0  0.52258  0.65805  0.77587  1.0000
  H   H46       1.0  0.47742  0.34195  0.22413  1.0000
  C   C1        1.0  0.36534  0.57559  0.12473  1.0000
  C   C2        1.0  0.63467  0.42442  0.87526  1.0000
  C   C3        1.0  0.30484  0.59152  0.20357  1.0000
  C   C4        1.0  0.69516  0.40849  0.79644  1.0000
  C   C5        1.0  0.24608  0.60719  0.29870  1.0000
  C   C6        1.0  0.75392  0.39282  0.70130  1.0000
  C   C7        1.0  0.33543  0.58567  0.39118  1.0000
  C   C8        1.0  0.66457  0.41433  0.60882  1.0000
  C   C9        1.0  0.27825  0.59677  0.48421  1.0000
  C   C10       1.0  0.72174  0.40323  0.51579  1.0000
  C   C11       1.0  0.13128  0.62829  0.48681  1.0000
  C   C12       1.0  0.86872  0.37171  0.51319  1.0000
  C   C13       1.0  0.04196  0.65003  0.39580  1.0000
  C   C14       1.0  0.95804  0.34997  0.60420  1.0000
  C   C15       1.0  0.09842  0.64047  0.30242  1.0000
  C   C16       1.0  0.90158  0.35953  0.69757  1.0000
  C   C17       1.0  0.27604  0.34926  0.91110  1.0000
  C   C18       1.0  0.72397  0.65074  0.08891  1.0000
  C   C19       1.0  0.26311  0.26067  0.83273  1.0000
  C   C20       1.0  0.73689  0.73933  0.16726  1.0000
  C   C21       1.0  0.25353  0.16554  0.73962  1.0000
  C   C22       1.0  0.74647  0.83446  0.26038  1.0000
  C   C23       1.0  0.37110  0.17589  0.68019  1.0000
  C   C24       1.0  0.62890  0.82411  0.31981  1.0000
  C   C25       1.0  0.36229  0.08705  0.58696  1.0000
  C   C26       1.0  0.63771  0.91294  0.41304  1.0000
  C   C27       1.0  0.23658  0.98659  0.55117  1.0000
  C   C28       1.0  0.76342  0.01341  0.44883  1.0000
  C   C29       1.0  0.12008  0.97515  0.61003  1.0000
  C   C30       1.0  0.87992  0.02484  0.38997  1.0000
  C   C31       1.0  0.12777  0.06288  0.70360  1.0000
  C   C32       1.0  0.87222  0.93712  0.29640  1.0000
  C   C33       1.0  0.95770  0.36702  0.05639  1.0000
  C   C34       1.0  0.04231  0.63299  0.94362  1.0000
  C   C35       1.0  0.03433  0.28623  0.10158  1.0000
  C   C36       1.0  0.96568  0.71378  0.89842  1.0000
  C   C37       1.0  0.11902  0.19430  0.15729  1.0000
  C   C38       1.0  0.88099  0.80571  0.84271  1.0000
  C   C39       1.0  0.16641  0.23103  0.26473  1.0000
  C   C40       1.0  0.83361  0.76897  0.73527  1.0000
  C   C41       1.0  0.25021  0.14265  0.31987  1.0000
  C   C42       1.0  0.74980  0.85734  0.68014  1.0000
  C   C43       1.0  0.28477  0.01516  0.26958  1.0000
  C   C44       1.0  0.71523  0.98484  0.73042  1.0000
  C   C45       1.0  0.23705  0.97704  0.16327  1.0000
  C   C46       1.0  0.76294  0.02295  0.83673  1.0000
  C   C47       1.0  0.15663  0.06679  0.10689  1.0000
  C   C48       1.0  0.84337  0.93322  0.89311  1.0000
  C   C49       1.0  0.45453  0.80683  0.95049  1.0000
  C   C50       1.0  0.54547  0.19317  0.04951  1.0000
  C   C51       1.0  0.35766  0.87860  0.87201  1.0000
  C   C52       1.0  0.64234  0.12140  0.12798  1.0000
  C   C53       1.0  0.32020  0.76689  0.77357  1.0000
  C   C54       1.0  0.67980  0.23311  0.22643  1.0000
  C   C55       1.0  0.41040  0.64567  0.79944  1.0000
  C   C56       1.0  0.58960  0.35433  0.20056  1.0000
  O   O1        1.0  0.42869  0.65612  0.91138  1.0000
  O   O2        1.0  0.57131  0.34389  0.08862  1.0000
