data_image0
_chemical_formula_structural       Dy2H22C32N4O20
_chemical_formula_sum              "Dy2 H22 C32 N4 O20"
_cell_length_a       6.85044
_cell_length_b       10.0999
_cell_length_c       13.8681
_cell_angle_alpha    75.5263
_cell_angle_beta     69.9457
_cell_angle_gamma    82.3252

_space_group_name_H-M_alt    "P 1"
_space_group_IT_number       1

loop_
  _space_group_symop_operation_xyz
  'x, y, z'

loop_
  _atom_site_type_symbol
  _atom_site_label
  _atom_site_symmetry_multiplicity
  _atom_site_fract_x
  _atom_site_fract_y
  _atom_site_fract_z
  _atom_site_occupancy
  Dy  Dy1       1.0  0.57694  0.06592  0.16234  1.0000
  Dy  Dy2       1.0  0.42307  0.93408  0.83766  1.0000
  H   H1        1.0  0.81201  0.68028  0.01346  1.0000
  H   H2        1.0  0.18801  0.31971  0.98653  1.0000
  H   H3        1.0  0.71940  0.38099  0.97057  1.0000
  H   H4        1.0  0.28060  0.61901  0.02943  1.0000
  H   H5        1.0  0.71243  0.27066  0.69129  1.0000
  H   H6        1.0  0.28755  0.72935  0.30871  1.0000
  H   H7        1.0  0.74484  0.51186  0.13956  1.0000
  H   H8        1.0  0.25515  0.48814  0.86045  1.0000
  H   H9        1.0  0.75834  0.68289  0.39312  1.0000
  H   H10       1.0  0.24165  0.31712  0.60688  1.0000
  H   H11       1.0  0.78154  0.68980  0.68410  1.0000
  H   H12       1.0  0.21846  0.31021  0.31590  1.0000
  H   H13       1.0  0.71535  0.24825  0.43803  1.0000
  H   H14       1.0  0.28465  0.75175  0.56197  1.0000
  H   H15       1.0  0.04588  0.04848  0.13423  1.0000
  H   H16       1.0  0.95412  0.95151  0.86577  1.0000
  H   H17       1.0  0.02989  0.11145  0.02157  1.0000
  H   H18       1.0  0.97012  0.88855  0.97842  1.0000
  H   H19       1.0  0.40879  0.02770  0.38128  1.0000
  H   H20       1.0  0.59122  0.97229  0.61872  1.0000
  H   H21       1.0  0.26553  0.92882  0.36725  1.0000
  H   H22       1.0  0.73448  0.07117  0.63275  1.0000
  C   C1        1.0  0.67271  0.16315  0.89323  1.0000
  C   C2        1.0  0.32729  0.83685  0.10678  1.0000
  C   C3        1.0  0.75460  0.75541  0.18993  1.0000
  C   C4        1.0  0.24540  0.24459  0.81007  1.0000
  C   C5        1.0  0.68937  0.25635  0.24312  1.0000
  C   C6        1.0  0.31063  0.74365  0.75687  1.0000
  C   C7        1.0  0.71113  0.30974  0.83686  1.0000
  C   C8        1.0  0.28886  0.69026  0.16314  1.0000
  C   C9        1.0  0.72695  0.40948  0.88827  1.0000
  C   C10       1.0  0.27305  0.59051  0.11173  1.0000
  C   C11       1.0  0.75701  0.61393  0.25774  1.0000
  C   C12       1.0  0.24299  0.38607  0.74226  1.0000
  C   C13       1.0  0.72572  0.34704  0.73125  1.0000
  C   C14       1.0  0.27427  0.65297  0.26875  1.0000
  C   C15       1.0  0.74716  0.50049  0.21912  1.0000
  C   C16       1.0  0.25284  0.49951  0.78088  1.0000
  C   C17       1.0  0.72810  0.36955  0.28402  1.0000
  C   C18       1.0  0.27189  0.63045  0.71598  1.0000
  C   C19       1.0  0.76118  0.65532  0.88626  1.0000
  C   C20       1.0  0.23883  0.34467  0.11375  1.0000
  C   C21       1.0  0.75419  0.59526  0.36154  1.0000
  C   C22       1.0  0.24580  0.40474  0.63846  1.0000
  C   C23       1.0  0.75151  0.54627  0.83304  1.0000
  C   C24       1.0  0.24849  0.45373  0.16695  1.0000
  C   C25       1.0  0.75139  0.48332  0.67576  1.0000
  C   C26       1.0  0.24859  0.51668  0.32424  1.0000
  C   C27       1.0  0.76297  0.58340  0.72695  1.0000
  C   C28       1.0  0.23702  0.41661  0.27305  1.0000
  C   C29       1.0  0.72965  0.35005  0.38678  1.0000
  C   C30       1.0  0.27034  0.64995  0.61322  1.0000
  C   C31       1.0  0.74557  0.46234  0.42540  1.0000
  C   C32       1.0  0.25442  0.53766  0.57460  1.0000
  N   N1        1.0  0.75950  0.52665  0.56888  1.0000
  N   N2        1.0  0.24049  0.47335  0.43112  1.0000
  N   N3        1.0  0.74374  0.42882  0.53045  1.0000
  N   N4        1.0  0.25625  0.57119  0.46955  1.0000
  O   O1        1.0  0.65501  0.13039  0.99003  1.0000
  O   O2        1.0  0.34499  0.86960  0.00996  1.0000
  O   O3        1.0  0.66132  0.07871  0.84101  1.0000
  O   O4        1.0  0.33869  0.92128  0.15898  1.0000
  O   O5        1.0  0.80206  0.77218  0.09022  1.0000
  O   O6        1.0  0.19795  0.22782  0.90978  1.0000
  O   O7        1.0  0.69644  0.85362  0.23762  1.0000
  O   O8        1.0  0.30357  0.14638  0.76238  1.0000
  O   O9        1.0  0.66624  0.28602  0.15246  1.0000
  O   O10       1.0  0.33376  0.71399  0.84754  1.0000
  O   O11       1.0  0.72189  0.77906  0.85255  1.0000
  O   O12       1.0  0.27812  0.22095  0.14745  1.0000
  O   O13       1.0  0.67137  0.13365  0.29880  1.0000
  O   O14       1.0  0.32864  0.86635  0.70119  1.0000
  O   O15       1.0  0.81691  0.60874  0.97095  1.0000
  O   O16       1.0  0.18311  0.39125  0.02905  1.0000
  O   O17       1.0  0.95098  0.06302  0.09324  1.0000
  O   O18       1.0  0.04902  0.93699  0.90676  1.0000
  O   O19       1.0  0.31694  0.02069  0.34223  1.0000
  O   O20       1.0  0.68307  0.97930  0.65778  1.0000
