data_image0
_chemical_formula_structural       Ag4H32C20Br4N8
_chemical_formula_sum              "Ag4 H32 C20 Br4 N8"
_cell_length_a       7.47852
_cell_length_b       10.3686
_cell_length_c       10.3686
_cell_angle_alpha    87.0992
_cell_angle_beta     76.0771
_cell_angle_gamma    76.0776

_space_group_name_H-M_alt    "P 1"
_space_group_IT_number       1

loop_
  _space_group_symop_operation_xyz
  'x, y, z'

loop_
  _atom_site_type_symbol
  _atom_site_label
  _atom_site_symmetry_multiplicity
  _atom_site_fract_x
  _atom_site_fract_y
  _atom_site_fract_z
  _atom_site_occupancy
  Ag  Ag1       1.0  0.88910  0.62839  0.47051  1.0000
  Ag  Ag2       1.0  0.61090  0.52949  0.37161  1.0000
  Ag  Ag3       1.0  0.11089  0.37161  0.52950  1.0000
  Ag  Ag4       1.0  0.38911  0.47052  0.62839  1.0000
  H   H1        1.0  0.25789  0.77647  0.40348  1.0000
  H   H2        1.0  0.24209  0.59652  0.22354  1.0000
  H   H3        1.0  0.74211  0.22353  0.59652  1.0000
  H   H4        1.0  0.75790  0.40348  0.77646  1.0000
  H   H5        1.0  0.91639  0.13270  0.29413  1.0000
  H   H6        1.0  0.58360  0.70587  0.86731  1.0000
  H   H7        1.0  0.08360  0.86730  0.70587  1.0000
  H   H8        1.0  0.41640  0.29413  0.13270  1.0000
  H   H9        1.0  0.70632  0.93908  0.35063  1.0000
  H   H10       1.0  0.79367  0.64936  0.06092  1.0000
  H   H11       1.0  0.29367  0.06091  0.64937  1.0000
  H   H12       1.0  0.20634  0.35064  0.93908  1.0000
  H   H13       1.0  0.37580  0.99215  0.39082  1.0000
  H   H14       1.0  0.12419  0.60919  0.00785  1.0000
  H   H15       1.0  0.62419  0.00786  0.60919  1.0000
  H   H16       1.0  0.87581  0.39082  0.99215  1.0000
  H   H17       1.0  0.24169  0.13814  0.33356  1.0000
  H   H18       1.0  0.25830  0.66644  0.86186  1.0000
  H   H19       1.0  0.75830  0.86186  0.66644  1.0000
  H   H20       1.0  0.74170  0.33356  0.13813  1.0000
  H   H21       1.0  0.47840  0.89490  0.15778  1.0000
  H   H22       1.0  0.02160  0.84223  0.10510  1.0000
  H   H23       1.0  0.52161  0.10510  0.84223  1.0000
  H   H24       1.0  0.97841  0.15778  0.89489  1.0000
  H   H25       1.0  0.54309  0.04849  0.16220  1.0000
  H   H26       1.0  0.95691  0.83781  0.95151  1.0000
  H   H27       1.0  0.45691  0.95151  0.83780  1.0000
  H   H28       1.0  0.04310  0.16220  0.04848  1.0000
  H   H29       1.0  0.34412  0.04256  0.10001  1.0000
  H   H30       1.0  0.15588  0.89999  0.95744  1.0000
  H   H31       1.0  0.65588  0.95744  0.89999  1.0000
  H   H32       1.0  0.84413  0.10001  0.04255  1.0000
  C   C1        1.0  0.13587  0.84345  0.37789  1.0000
  C   C2        1.0  0.36412  0.62211  0.15655  1.0000
  C   C3        1.0  0.86413  0.15655  0.62211  1.0000
  C   C4        1.0  0.63588  0.37789  0.84345  1.0000
  C   C5        1.0  0.95509  0.02908  0.32111  1.0000
  C   C6        1.0  0.54490  0.67888  0.97092  1.0000
  C   C7        1.0  0.04490  0.97092  0.67889  1.0000
  C   C8        1.0  0.45511  0.32111  0.02908  1.0000
  C   C9        1.0  0.85322  0.93274  0.35045  1.0000
  C   C10       1.0  0.64678  0.64954  0.06726  1.0000
  C   C11       1.0  0.14678  0.06725  0.64955  1.0000
  C   C12       1.0  0.35323  0.35046  0.93274  1.0000
  C   C13       1.0  0.29688  0.03104  0.31499  1.0000
  C   C14       1.0  0.20311  0.68501  0.96897  1.0000
  C   C15       1.0  0.70311  0.96897  0.68501  1.0000
  C   C16       1.0  0.79690  0.31500  0.03103  1.0000
  C   C17       1.0  0.42252  0.00207  0.17560  1.0000
  C   C18       1.0  0.07747  0.82441  0.99793  1.0000
  C   C19       1.0  0.57748  0.99793  0.82441  1.0000
  C   C20       1.0  0.92253  0.17560  0.00207  1.0000
  Br  Br1       1.0  0.49841  0.70900  0.57870  1.0000
  Br  Br2       1.0  0.00159  0.42131  0.29100  1.0000
  Br  Br3       1.0  0.50159  0.29100  0.42131  1.0000
  Br  Br4       1.0  0.99841  0.57869  0.70900  1.0000
  N   N1        1.0  0.96761  0.81743  0.38603  1.0000
  N   N2        1.0  0.53238  0.61397  0.18257  1.0000
  N   N3        1.0  0.03239  0.18257  0.61397  1.0000
  N   N4        1.0  0.46763  0.38603  0.81743  1.0000
  N   N5        1.0  0.13417  0.97059  0.33867  1.0000
  N   N6        1.0  0.36582  0.66133  0.02942  1.0000
  N   N7        1.0  0.86583  0.02941  0.66133  1.0000
  N   N8        1.0  0.63418  0.33867  0.97058  1.0000
