data_image0
_chemical_formula_structural       Cd4H36C16N4O24
_chemical_formula_sum              "Cd4 H36 C16 N4 O24"
_cell_length_a       5.44655
_cell_length_b       9.74562
_cell_length_c       14.7777
_cell_angle_alpha    89.9985
_cell_angle_beta     89.9983
_cell_angle_gamma    89.9993

_space_group_name_H-M_alt    "P 1"
_space_group_IT_number       1

loop_
  _space_group_symop_operation_xyz
  'x, y, z'

loop_
  _atom_site_type_symbol
  _atom_site_label
  _atom_site_symmetry_multiplicity
  _atom_site_fract_x
  _atom_site_fract_y
  _atom_site_fract_z
  _atom_site_occupancy
  Cd  Cd1       1.0  0.15827  0.74156  0.05151  1.0000
  Cd  Cd2       1.0  0.84174  0.24157  0.94849  1.0000
  Cd  Cd3       1.0  0.84171  0.74157  0.55150  1.0000
  Cd  Cd4       1.0  0.15829  0.24157  0.44850  1.0000
  H   H1        1.0  0.59498  0.62489  0.12955  1.0000
  H   H2        1.0  0.40505  0.12489  0.87045  1.0000
  H   H3        1.0  0.40502  0.62490  0.62955  1.0000
  H   H4        1.0  0.59497  0.12490  0.37045  1.0000
  H   H5        1.0  0.47063  0.49758  0.07837  1.0000
  H   H6        1.0  0.52939  0.99758  0.92164  1.0000
  H   H7        1.0  0.52938  0.49760  0.57836  1.0000
  H   H8        1.0  0.47064  0.99759  0.42164  1.0000
  H   H9        1.0  0.36919  0.81705  0.88450  1.0000
  H   H10       1.0  0.63081  0.31704  0.11550  1.0000
  H   H11       1.0  0.63079  0.81704  0.38450  1.0000
  H   H12       1.0  0.36920  0.31706  0.61550  1.0000
  H   H13       1.0  0.59845  0.77960  0.94777  1.0000
  H   H14       1.0  0.40156  0.27960  0.05223  1.0000
  H   H15       1.0  0.40153  0.77961  0.44777  1.0000
  H   H16       1.0  0.59845  0.27961  0.55223  1.0000
  H   H17       1.0  0.42521  0.84168  0.20570  1.0000
  H   H18       1.0  0.57478  0.34169  0.79430  1.0000
  H   H19       1.0  0.57475  0.84169  0.70570  1.0000
  H   H20       1.0  0.42525  0.34169  0.29430  1.0000
  H   H21       1.0  0.99825  0.97915  0.25859  1.0000
  H   H22       1.0  0.00173  0.47917  0.74140  1.0000
  H   H23       1.0  0.00174  0.97916  0.75858  1.0000
  H   H24       1.0  0.99825  0.47915  0.24141  1.0000
  H   H25       1.0  0.15169  0.84327  0.31158  1.0000
  H   H26       1.0  0.84830  0.34327  0.68842  1.0000
  H   H27       1.0  0.84828  0.84325  0.81158  1.0000
  H   H28       1.0  0.15170  0.34324  0.18843  1.0000
  H   H29       1.0  0.49669  0.01540  0.10529  1.0000
  H   H30       1.0  0.50332  0.51540  0.89471  1.0000
  H   H31       1.0  0.50331  0.01541  0.60528  1.0000
  H   H32       1.0  0.49669  0.51540  0.39471  1.0000
  H   H33       1.0  0.34314  0.09441  0.19674  1.0000
  H   H34       1.0  0.65686  0.59442  0.80326  1.0000
  H   H35       1.0  0.65683  0.09442  0.69673  1.0000
  H   H36       1.0  0.34317  0.59441  0.30327  1.0000
  C   C1        1.0  0.85882  0.78051  0.22727  1.0000
  C   C2        1.0  0.14118  0.28052  0.77273  1.0000
  C   C3        1.0  0.14115  0.78050  0.72727  1.0000
  C   C4        1.0  0.85885  0.28049  0.27273  1.0000
  C   C5        1.0  0.07436  0.87632  0.24626  1.0000
  C   C6        1.0  0.92563  0.37633  0.75374  1.0000
  C   C7        1.0  0.92560  0.87633  0.74625  1.0000
  C   C8        1.0  0.07439  0.37632  0.25375  1.0000
  C   C9        1.0  0.32051  0.01852  0.14209  1.0000
  C   C10       1.0  0.67950  0.51853  0.85792  1.0000
  C   C11       1.0  0.67947  0.01853  0.64207  1.0000
  C   C12       1.0  0.32052  0.51853  0.35792  1.0000
  C   C13       1.0  0.12550  0.06854  0.07562  1.0000
  C   C14       1.0  0.87450  0.56855  0.92439  1.0000
  C   C15       1.0  0.87448  0.06856  0.57561  1.0000
  C   C16       1.0  0.12552  0.56855  0.42438  1.0000
  N   N1        1.0  0.26812  0.88066  0.17675  1.0000
  N   N2        1.0  0.73188  0.38067  0.82325  1.0000
  N   N3        1.0  0.73185  0.88066  0.67674  1.0000
  N   N4        1.0  0.26815  0.38067  0.32326  1.0000
  O   O1        1.0  0.86148  0.69960  0.15935  1.0000
  O   O2        1.0  0.13853  0.19960  0.84065  1.0000
  O   O3        1.0  0.13849  0.69960  0.65934  1.0000
  O   O4        1.0  0.86151  0.19960  0.34067  1.0000
  O   O5        1.0  0.67891  0.78561  0.28150  1.0000
  O   O6        1.0  0.32110  0.28563  0.71851  1.0000
  O   O7        1.0  0.32104  0.78560  0.78150  1.0000
  O   O8        1.0  0.67895  0.28559  0.21851  1.0000
  O   O9        1.0  0.13419  0.19762  0.05543  1.0000
  O   O10       1.0  0.86580  0.69762  0.94457  1.0000
  O   O11       1.0  0.86582  0.19763  0.55544  1.0000
  O   O12       1.0  0.13418  0.69763  0.44457  1.0000
  O   O13       1.0  0.96962  0.98750  0.04301  1.0000
  O   O14       1.0  0.03039  0.48749  0.95700  1.0000
  O   O15       1.0  0.03036  0.98748  0.54299  1.0000
  O   O16       1.0  0.96962  0.48748  0.45700  1.0000
  O   O17       1.0  0.43446  0.58655  0.10836  1.0000
  O   O18       1.0  0.56556  0.08655  0.89164  1.0000
  O   O19       1.0  0.56553  0.58656  0.60836  1.0000
  O   O20       1.0  0.43447  0.08656  0.39165  1.0000
  O   O21       1.0  0.43818  0.83100  0.94754  1.0000
  O   O22       1.0  0.56183  0.33099  0.05246  1.0000
  O   O23       1.0  0.56182  0.83100  0.44754  1.0000
  O   O24       1.0  0.43817  0.33100  0.55246  1.0000
