data_image0
_chemical_formula_structural       Cu2Ag4H28C32N12
_chemical_formula_sum              "Cu2 Ag4 H28 C32 N12"
_cell_length_a       9.53629
_cell_length_b       10.5077
_cell_length_c       10.5077
_cell_angle_alpha    113.833
_cell_angle_beta     99.2122
_cell_angle_gamma    99.2127

_space_group_name_H-M_alt    "P 1"
_space_group_IT_number       1

loop_
  _space_group_symop_operation_xyz
  'x, y, z'

loop_
  _atom_site_type_symbol
  _atom_site_label
  _atom_site_symmetry_multiplicity
  _atom_site_fract_x
  _atom_site_fract_y
  _atom_site_fract_z
  _atom_site_occupancy
  Cu  Cu1       1.0  0.25000  0.92302  0.07698  1.0000
  Cu  Cu2       1.0  0.75000  0.07698  0.92302  1.0000
  Ag  Ag1       1.0  0.25000  0.21625  0.78375  1.0000
  Ag  Ag2       1.0  0.75000  0.78375  0.21625  1.0000
  Ag  Ag3       1.0  1.00000  0.99999  0.50000  1.0000
  Ag  Ag4       1.0  0.50000  0.50001  0.00001  1.0000
  H   H1        1.0  0.05351  0.67612  0.07199  1.0000
  H   H2        1.0  0.55350  0.07199  0.67612  1.0000
  H   H3        1.0  0.94650  0.32388  0.92801  1.0000
  H   H4        1.0  0.44649  0.92801  0.32388  1.0000
  H   H5        1.0  0.81463  0.50039  0.92787  1.0000
  H   H6        1.0  0.31463  0.92787  0.50039  1.0000
  H   H7        1.0  0.18537  0.49961  0.07213  1.0000
  H   H8        1.0  0.68537  0.07214  0.49961  1.0000
  H   H9        1.0  0.78851  0.71588  0.65447  1.0000
  H   H10       1.0  0.28851  0.65447  0.71589  1.0000
  H   H11       1.0  0.21149  0.28411  0.34553  1.0000
  H   H12       1.0  0.71149  0.34553  0.28411  1.0000
  H   H13       1.0  0.02689  0.88392  0.81117  1.0000
  H   H14       1.0  0.52689  0.81117  0.88392  1.0000
  H   H15       1.0  0.97311  0.11608  0.18883  1.0000
  H   H16       1.0  0.47312  0.18883  0.11608  1.0000
  H   H17       1.0  0.62093  0.38835  0.68979  1.0000
  H   H18       1.0  0.12093  0.68978  0.38835  1.0000
  H   H19       1.0  0.37907  0.61164  0.31022  1.0000
  H   H20       1.0  0.87906  0.31021  0.61164  1.0000
  H   H21       1.0  0.54349  0.53739  0.73176  1.0000
  H   H22       1.0  0.04349  0.73175  0.53740  1.0000
  H   H23       1.0  0.45651  0.46260  0.26825  1.0000
  H   H24       1.0  0.95651  0.26824  0.46261  1.0000
  H   H25       1.0  0.61452  0.47991  0.57840  1.0000
  H   H26       1.0  0.11452  0.57840  0.47992  1.0000
  H   H27       1.0  0.38548  0.52008  0.42160  1.0000
  H   H28       1.0  0.88548  0.42160  0.52009  1.0000
  C   C1        1.0  0.10579  0.97437  0.34166  1.0000
  C   C2        1.0  0.60580  0.34167  0.97438  1.0000
  C   C3        1.0  0.89420  0.02563  0.65834  1.0000
  C   C4        1.0  0.39420  0.65835  0.02563  1.0000
  C   C5        1.0  0.25000  0.10075  0.89925  1.0000
  C   C6        1.0  0.75000  0.89925  0.10074  1.0000
  C   C7        1.0  0.25000  0.33146  0.66853  1.0000
  C   C8        1.0  0.75000  0.66854  0.33147  1.0000
  C   C9        1.0  0.99110  0.68090  0.97838  1.0000
  C   C10       1.0  0.49111  0.97839  0.68089  1.0000
  C   C11       1.0  0.00889  0.31911  0.02162  1.0000
  C   C12       1.0  0.50889  0.02162  0.31911  1.0000
  C   C13       1.0  0.85752  0.58338  0.89711  1.0000
  C   C14       1.0  0.35752  0.89710  0.58338  1.0000
  C   C15       1.0  0.14248  0.41662  0.10289  1.0000
  C   C16       1.0  0.64248  0.10290  0.41662  1.0000
  C   C17       1.0  0.77872  0.59349  0.77824  1.0000
  C   C18       1.0  0.27872  0.77824  0.59349  1.0000
  C   C19       1.0  0.22127  0.40650  0.22176  1.0000
  C   C20       1.0  0.72127  0.22176  0.40650  1.0000
  C   C21       1.0  0.84194  0.70385  0.74727  1.0000
  C   C22       1.0  0.34194  0.74726  0.70385  1.0000
  C   C23       1.0  0.15806  0.29615  0.25273  1.0000
  C   C24       1.0  0.65806  0.25274  0.29615  1.0000
  C   C25       1.0  0.97626  0.79718  0.83295  1.0000
  C   C26       1.0  0.47626  0.83295  0.79717  1.0000
  C   C27       1.0  0.02374  0.20282  0.16705  1.0000
  C   C28       1.0  0.52374  0.16705  0.20282  1.0000
  C   C29       1.0  0.63266  0.49376  0.68947  1.0000
  C   C30       1.0  0.13266  0.68947  0.49376  1.0000
  C   C31       1.0  0.36734  0.50623  0.31053  1.0000
  C   C32       1.0  0.86734  0.31053  0.50624  1.0000
  N   N1        1.0  0.16565  0.95855  0.24946  1.0000
  N   N2        1.0  0.66565  0.24945  0.95855  1.0000
  N   N3        1.0  0.83435  0.04146  0.75055  1.0000
  N   N4        1.0  0.33435  0.75055  0.04146  1.0000
  N   N5        1.0  0.25000  0.03426  0.96573  1.0000
  N   N6        1.0  0.75000  0.96574  0.03426  1.0000
  N   N7        1.0  0.25000  0.39812  0.60188  1.0000
  N   N8        1.0  0.75000  0.60189  0.39812  1.0000
  N   N9        1.0  0.05001  0.78631  0.94686  1.0000
  N   N10       1.0  0.55000  0.94686  0.78631  1.0000
  N   N11       1.0  0.95000  0.21369  0.05314  1.0000
  N   N12       1.0  0.44999  0.05314  0.21368  1.0000
