data_image0
_chemical_formula_structural       Zn4H48C56N8O20
_chemical_formula_sum              "Zn4 H48 C56 N8 O20"
_cell_length_a       8.65171
_cell_length_b       11.1165
_cell_length_c       16.1008
_cell_angle_alpha    100.758
_cell_angle_beta     90
_cell_angle_gamma    90

_space_group_name_H-M_alt    "P 1"
_space_group_IT_number       1

loop_
  _space_group_symop_operation_xyz
  'x, y, z'

loop_
  _atom_site_type_symbol
  _atom_site_label
  _atom_site_symmetry_multiplicity
  _atom_site_fract_x
  _atom_site_fract_y
  _atom_site_fract_z
  _atom_site_occupancy
  Zn  Zn1       1.0  0.08919  0.80869  0.49721  1.0000
  Zn  Zn2       1.0  0.58918  0.69132  0.00279  1.0000
  Zn  Zn3       1.0  0.91081  0.19132  0.50279  1.0000
  Zn  Zn4       1.0  0.41081  0.30869  0.99722  1.0000
  H   H1        1.0  0.59981  0.26422  0.46369  1.0000
  H   H2        1.0  0.09981  0.23578  0.03632  1.0000
  H   H3        1.0  0.40018  0.73577  0.53631  1.0000
  H   H4        1.0  0.90018  0.76422  0.96368  1.0000
  H   H5        1.0  0.92485  0.95471  0.59550  1.0000
  H   H6        1.0  0.42485  0.54529  0.90450  1.0000
  H   H7        1.0  0.07516  0.04529  0.40450  1.0000
  H   H8        1.0  0.57516  0.45471  0.09551  1.0000
  H   H9        1.0  0.83464  0.93022  0.51032  1.0000
  H   H10       1.0  0.33463  0.56978  0.98967  1.0000
  H   H11       1.0  0.16536  0.06978  0.48968  1.0000
  H   H12       1.0  0.66536  0.43022  0.01033  1.0000
  H   H13       1.0  0.43578  0.10683  0.49351  1.0000
  H   H14       1.0  0.93577  0.39316  0.00650  1.0000
  H   H15       1.0  0.56422  0.89317  0.50651  1.0000
  H   H16       1.0  0.06420  0.60684  0.99350  1.0000
  H   H17       1.0  0.34100  0.09729  0.75477  1.0000
  H   H18       1.0  0.84099  0.40272  0.74524  1.0000
  H   H19       1.0  0.65900  0.90272  0.24524  1.0000
  H   H20       1.0  0.15900  0.59729  0.25476  1.0000
  H   H21       1.0  0.56499  0.41139  0.69005  1.0000
  H   H22       1.0  0.06499  0.08860  0.80994  1.0000
  H   H23       1.0  0.43502  0.58861  0.30995  1.0000
  H   H24       1.0  0.93501  0.91140  0.19005  1.0000
  H   H25       1.0  0.76186  0.41153  0.59793  1.0000
  H   H26       1.0  0.26186  0.08846  0.90207  1.0000
  H   H27       1.0  0.23814  0.58847  0.40207  1.0000
  H   H28       1.0  0.73812  0.91153  0.09792  1.0000
  H   H29       1.0  0.62392  0.50918  0.56179  1.0000
  H   H30       1.0  0.12393  0.99082  0.93822  1.0000
  H   H31       1.0  0.37607  0.49081  0.43821  1.0000
  H   H32       1.0  0.87606  0.00919  0.06179  1.0000
  H   H33       1.0  0.69397  0.59961  0.44670  1.0000
  H   H34       1.0  0.19398  0.90040  0.05331  1.0000
  H   H35       1.0  0.30601  0.40039  0.55330  1.0000
  H   H36       1.0  0.80601  0.09961  0.94669  1.0000
  H   H37       1.0  0.84821  0.59629  0.31425  1.0000
  H   H38       1.0  0.34822  0.90371  0.18576  1.0000
  H   H39       1.0  0.15180  0.40371  0.68576  1.0000
  H   H40       1.0  0.65179  0.09628  0.81423  1.0000
  H   H41       1.0  0.03057  0.41910  0.26644  1.0000
  H   H42       1.0  0.53057  0.08091  0.23357  1.0000
  H   H43       1.0  0.96945  0.58091  0.73357  1.0000
  H   H44       1.0  0.46945  0.91908  0.76641  1.0000
  H   H45       1.0  0.05591  0.26021  0.35728  1.0000
  H   H46       1.0  0.55591  0.23981  0.14272  1.0000
  H   H47       1.0  0.94411  0.73981  0.64272  1.0000
  H   H48       1.0  0.44411  0.76018  0.85726  1.0000
  C   C1        1.0  0.51863  0.26330  0.58339  1.0000
  C   C2        1.0  0.01864  0.23670  0.91661  1.0000
  C   C3        1.0  0.48136  0.73671  0.41661  1.0000
  C   C4        1.0  0.98135  0.76329  0.08339  1.0000
  C   C5        1.0  0.44435  0.14904  0.56010  1.0000
  C   C6        1.0  0.94435  0.35095  0.93991  1.0000
  C   C7        1.0  0.55565  0.85096  0.43991  1.0000
  C   C8        1.0  0.05565  0.64905  0.06009  1.0000
  C   C9        1.0  0.38412  0.08882  0.62151  1.0000
  C   C10       1.0  0.88412  0.41117  0.87849  1.0000
  C   C11       1.0  0.61588  0.91118  0.37849  1.0000
  C   C12       1.0  0.11587  0.58883  0.12150  1.0000
  C   C13       1.0  0.39038  0.14325  0.70709  1.0000
  C   C14       1.0  0.89038  0.35675  0.79292  1.0000
  C   C15       1.0  0.60962  0.85675  0.29291  1.0000
  C   C16       1.0  0.10961  0.64325  0.20708  1.0000
  C   C17       1.0  0.45347  0.26025  0.72996  1.0000
  C   C18       1.0  0.95346  0.23975  0.77005  1.0000
  C   C19       1.0  0.54654  0.73975  0.27005  1.0000
  C   C20       1.0  0.04654  0.76026  0.22995  1.0000
  C   C21       1.0  0.51781  0.32005  0.66897  1.0000
  C   C22       1.0  0.01781  0.17994  0.83103  1.0000
  C   C23       1.0  0.48218  0.67995  0.33103  1.0000
  C   C24       1.0  0.98218  0.82006  0.16897  1.0000
  C   C25       1.0  0.68855  0.42274  0.54366  1.0000
  C   C26       1.0  0.18856  0.07725  0.95634  1.0000
  C   C27       1.0  0.31145  0.57726  0.45635  1.0000
  C   C28       1.0  0.81145  0.92274  0.04366  1.0000
  C   C29       1.0  0.78974  0.43075  0.46897  1.0000
  C   C30       1.0  0.28974  0.06926  0.03104  1.0000
  C   C31       1.0  0.21026  0.56925  0.53103  1.0000
  C   C32       1.0  0.71026  0.93074  0.96896  1.0000
  C   C33       1.0  0.77516  0.52591  0.42422  1.0000
  C   C34       1.0  0.27517  0.97409  0.07579  1.0000
  C   C35       1.0  0.22484  0.47410  0.57579  1.0000
  C   C36       1.0  0.72484  0.02590  0.92420  1.0000
  C   C37       1.0  0.86123  0.52360  0.35066  1.0000
  C   C38       1.0  0.36123  0.97642  0.14935  1.0000
  C   C39       1.0  0.13877  0.47641  0.64934  1.0000
  C   C40       1.0  0.63877  0.02357  0.85065  1.0000
  C   C41       1.0  0.96291  0.42654  0.32445  1.0000
  C   C42       1.0  0.46290  0.07348  0.17556  1.0000
  C   C43       1.0  0.03710  0.57347  0.67555  1.0000
  C   C44       1.0  0.53710  0.92651  0.82444  1.0000
  C   C45       1.0  0.97587  0.33664  0.37371  1.0000
  C   C46       1.0  0.47588  0.16338  0.12629  1.0000
  C   C47       1.0  0.02415  0.66337  0.62629  1.0000
  C   C48       1.0  0.52412  0.83661  0.87371  1.0000
  C   C49       1.0  0.31391  0.96432  0.59610  1.0000
  C   C50       1.0  0.81391  0.53568  0.90390  1.0000
  C   C51       1.0  0.68609  0.03568  0.40390  1.0000
  C   C52       1.0  0.18609  0.46433  0.09610  1.0000
  C   C53       1.0  0.45029  0.32550  0.82006  1.0000
  C   C54       1.0  0.95027  0.17449  0.67994  1.0000
  C   C55       1.0  0.54972  0.67448  0.17994  1.0000
  C   C56       1.0  0.04972  0.82551  0.32006  1.0000
  N   N1        1.0  0.58426  0.31854  0.52178  1.0000
  N   N2        1.0  0.08426  0.18146  0.97823  1.0000
  N   N3        1.0  0.41575  0.68146  0.47823  1.0000
  N   N4        1.0  0.91573  0.81854  0.02177  1.0000
  N   N5        1.0  0.89085  0.33789  0.44416  1.0000
  N   N6        1.0  0.39085  0.16212  0.05584  1.0000
  N   N7        1.0  0.10915  0.66211  0.55584  1.0000
  N   N8        1.0  0.60915  0.83788  0.94415  1.0000
  O   O1        1.0  0.23142  0.94977  0.52677  1.0000
  O   O2        1.0  0.73142  0.55023  0.97323  1.0000
  O   O3        1.0  0.76858  0.05023  0.47323  1.0000
  O   O4        1.0  0.26858  0.44977  0.02677  1.0000
  O   O5        1.0  0.33758  0.88183  0.63749  1.0000
  O   O6        1.0  0.83761  0.61818  0.86253  1.0000
  O   O7        1.0  0.66241  0.11818  0.36252  1.0000
  O   O8        1.0  0.16242  0.38183  0.13748  1.0000
  O   O9        1.0  0.41935  0.25762  0.87517  1.0000
  O   O10       1.0  0.91935  0.24239  0.62483  1.0000
  O   O11       1.0  0.58064  0.74238  0.12483  1.0000
  O   O12       1.0  0.08065  0.75763  0.37516  1.0000
  O   O13       1.0  0.47778  0.43846  0.83559  1.0000
  O   O14       1.0  0.97775  0.06152  0.66441  1.0000
  O   O15       1.0  0.52226  0.56151  0.16441  1.0000
  O   O16       1.0  0.02224  0.93847  0.33559  1.0000
  O   O17       1.0  0.89225  0.88405  0.54856  1.0000
  O   O18       1.0  0.39225  0.61594  0.95143  1.0000
  O   O19       1.0  0.10775  0.11594  0.45143  1.0000
  O   O20       1.0  0.60774  0.38406  0.04857  1.0000
