data_image0
_chemical_formula_structural       Zn2H44C58N4O18
_chemical_formula_sum              "Zn2 H44 C58 N4 O18"
_cell_length_a       10.0521
_cell_length_b       12.1238
_cell_length_c       12.566
_cell_angle_alpha    60.2064
_cell_angle_beta     87.5379
_cell_angle_gamma    85.5673

_space_group_name_H-M_alt    "P 1"
_space_group_IT_number       1

loop_
  _space_group_symop_operation_xyz
  'x, y, z'

loop_
  _atom_site_type_symbol
  _atom_site_label
  _atom_site_symmetry_multiplicity
  _atom_site_fract_x
  _atom_site_fract_y
  _atom_site_fract_z
  _atom_site_occupancy
  Zn  Zn1       1.0  0.34041  0.68060  0.35960  1.0000
  Zn  Zn2       1.0  0.65959  0.31940  0.64039  1.0000
  H   H1        1.0  0.30209  0.43783  0.81153  1.0000
  H   H2        1.0  0.69791  0.56217  0.18847  1.0000
  H   H3        1.0  0.84093  0.08102  0.40069  1.0000
  H   H4        1.0  0.15907  0.91898  0.59931  1.0000
  H   H5        1.0  0.65992  0.66676  0.93795  1.0000
  H   H6        1.0  0.34008  0.33323  0.06205  1.0000
  H   H7        1.0  0.58574  0.89129  0.77962  1.0000
  H   H8        1.0  0.41427  0.10870  0.22039  1.0000
  H   H9        1.0  0.46887  0.93041  0.59268  1.0000
  H   H10       1.0  0.53113  0.06959  0.40732  1.0000
  H   H11       1.0  0.69109  0.29152  0.13769  1.0000
  H   H12       1.0  0.30891  0.70848  0.86232  1.0000
  H   H13       1.0  0.11557  0.28362  0.07326  1.0000
  H   H14       1.0  0.88443  0.71638  0.92674  1.0000
  H   H15       1.0  0.85164  0.55154  0.78308  1.0000
  H   H16       1.0  0.14836  0.44846  0.21693  1.0000
  H   H17       1.0  0.16154  0.80481  0.46732  1.0000
  H   H18       1.0  0.83846  0.19519  0.53268  1.0000
  H   H19       1.0  0.91611  0.84050  0.48936  1.0000
  H   H20       1.0  0.08390  0.15949  0.51065  1.0000
  H   H21       1.0  0.85675  0.58533  0.35115  1.0000
  H   H22       1.0  0.14325  0.41467  0.64884  1.0000
  H   H23       1.0  0.10415  0.56089  0.33388  1.0000
  H   H24       1.0  0.89585  0.43912  0.66612  1.0000
  H   H25       1.0  0.68847  0.77294  0.48427  1.0000
  H   H26       1.0  0.31153  0.22707  0.51573  1.0000
  H   H27       1.0  0.66322  0.67327  0.42231  1.0000
  H   H28       1.0  0.33678  0.32673  0.57769  1.0000
  H   H29       1.0  0.57272  0.89715  0.28841  1.0000
  H   H30       1.0  0.42728  0.10285  0.71159  1.0000
  H   H31       1.0  0.73275  0.95371  0.27592  1.0000
  H   H32       1.0  0.26725  0.04629  0.72408  1.0000
  H   H33       1.0  0.81768  0.81597  0.18160  1.0000
  H   H34       1.0  0.18231  0.18403  0.81840  1.0000
  H   H35       1.0  0.65562  0.77134  0.18800  1.0000
  H   H36       1.0  0.34437  0.22866  0.81200  1.0000
  H   H37       1.0  0.60940  0.09952  0.10517  1.0000
  H   H38       1.0  0.39060  0.90049  0.89482  1.0000
  H   H39       1.0  0.57940  0.27454  0.89112  1.0000
  H   H40       1.0  0.42061  0.72546  0.10887  1.0000
  H   H41       1.0  0.72734  0.04406  0.75019  1.0000
  H   H42       1.0  0.27266  0.95594  0.24981  1.0000
  H   H43       1.0  0.76336  0.85711  0.96119  1.0000
  H   H44       1.0  0.23664  0.14289  0.03881  1.0000
  C   C1        1.0  0.42040  0.76302  0.52060  1.0000
  C   C2        1.0  0.57961  0.23698  0.47940  1.0000
  C   C3        1.0  0.48581  0.73436  0.63789  1.0000
  C   C4        1.0  0.51420  0.26564  0.36211  1.0000
  C   C5        1.0  0.53273  0.60960  0.72329  1.0000
  C   C6        1.0  0.46728  0.39040  0.27670  1.0000
  C   C7        1.0  0.59373  0.58868  0.83034  1.0000
  C   C8        1.0  0.40627  0.41131  0.16966  1.0000
  C   C9        1.0  0.61283  0.68807  0.85265  1.0000
  C   C10       1.0  0.38717  0.31193  0.14735  1.0000
  C   C11       1.0  0.56928  0.81176  0.76557  1.0000
  C   C12       1.0  0.43072  0.18824  0.23444  1.0000
  C   C13       1.0  0.50445  0.83436  0.66014  1.0000
  C   C14       1.0  0.49555  0.16564  0.33985  1.0000
  C   C15       1.0  0.52677  0.49703  0.70370  1.0000
  C   C16       1.0  0.47323  0.50297  0.29630  1.0000
  C   C17       1.0  0.75762  0.42389  0.95592  1.0000
  C   C18       1.0  0.24238  0.57611  0.04409  1.0000
  C   C19       1.0  0.77693  0.32579  0.07678  1.0000
  C   C20       1.0  0.22307  0.67421  0.92322  1.0000
  C   C21       1.0  0.90650  0.27543  0.11846  1.0000
  C   C22       1.0  0.09350  0.72458  0.88154  1.0000
  C   C23       1.0  0.01549  0.32231  0.03892  1.0000
  C   C24       1.0  0.98451  0.67770  0.96109  1.0000
  C   C25       1.0  0.99529  0.42101  0.91840  1.0000
  C   C26       1.0  0.00471  0.57899  0.08160  1.0000
  C   C27       1.0  0.86590  0.47332  0.87669  1.0000
  C   C28       1.0  0.13410  0.52668  0.12331  1.0000
  C   C29       1.0  0.10933  0.47344  0.83041  1.0000
  C   C30       1.0  0.89067  0.52656  0.16959  1.0000
  C   C31       1.0  0.93251  0.17598  0.24844  1.0000
  C   C32       1.0  0.06749  0.82403  0.75156  1.0000
  C   C33       1.0  0.08955  0.75935  0.44186  1.0000
  C   C34       1.0  0.91045  0.24064  0.55814  1.0000
  C   C35       1.0  0.95319  0.77954  0.45213  1.0000
  C   C36       1.0  0.04681  0.22046  0.54787  1.0000
  C   C37       1.0  0.86504  0.72130  0.41514  1.0000
  C   C38       1.0  0.13496  0.27870  0.58485  1.0000
  C   C39       1.0  0.92035  0.63844  0.37505  1.0000
  C   C40       1.0  0.07965  0.36156  0.62495  1.0000
  C   C41       1.0  0.05779  0.62328  0.36618  1.0000
  C   C42       1.0  0.94220  0.37672  0.63382  1.0000
  C   C43       1.0  0.71822  0.75369  0.40967  1.0000
  C   C44       1.0  0.28178  0.24631  0.59032  1.0000
  C   C45       1.0  0.68013  0.87267  0.28580  1.0000
  C   C46       1.0  0.31986  0.12734  0.71420  1.0000
  C   C47       1.0  0.71224  0.85026  0.17816  1.0000
  C   C48       1.0  0.28776  0.14974  0.82184  1.0000
  C   C49       1.0  0.68913  0.96174  0.05228  1.0000
  C   C50       1.0  0.31087  0.03826  0.94772  1.0000
  C   C51       1.0  0.63684  0.08152  0.03015  1.0000
  C   C52       1.0  0.36316  0.91848  0.96984  1.0000
  C   C53       1.0  0.62005  0.18058  0.91041  1.0000
  C   C54       1.0  0.37995  0.81942  0.08958  1.0000
  C   C55       1.0  0.70310  0.05108  0.83223  1.0000
  C   C56       1.0  0.29690  0.94892  0.16777  1.0000
  C   C57       1.0  0.72207  0.94837  0.94925  1.0000
  C   C58       1.0  0.27793  0.05163  0.05075  1.0000
  N   N1        1.0  0.14131  0.68462  0.39692  1.0000
  N   N2        1.0  0.85869  0.31537  0.60308  1.0000
  N   N3        1.0  0.65240  0.16634  0.81258  1.0000
  N   N4        1.0  0.34761  0.83366  0.18742  1.0000
  O   O1        1.0  0.36479  0.87057  0.45243  1.0000
  O   O2        1.0  0.63522  0.12943  0.54757  1.0000
  O   O3        1.0  0.42974  0.66857  0.49877  1.0000
  O   O4        1.0  0.57026  0.33143  0.50123  1.0000
  O   O5        1.0  0.42670  0.43082  0.73690  1.0000
  O   O6        1.0  0.57330  0.56918  0.26310  1.0000
  O   O7        1.0  0.63592  0.47007  0.66192  1.0000
  O   O8        1.0  0.36408  0.52993  0.33807  1.0000
  O   O9        1.0  0.09462  0.56440  0.72590  1.0000
  O   O10       1.0  0.90538  0.43560  0.27410  1.0000
  O   O11       1.0  0.22636  0.40940  0.87631  1.0000
  O   O12       1.0  0.77364  0.59061  0.12369  1.0000
  O   O13       1.0  0.04323  0.13043  0.29229  1.0000
  O   O14       1.0  0.95677  0.86957  0.70772  1.0000
  O   O15       1.0  0.81788  0.14058  0.31487  1.0000
  O   O16       1.0  0.18212  0.85942  0.68513  1.0000
  O   O17       1.0  0.62660  0.46282  0.91975  1.0000
  O   O18       1.0  0.37340  0.53718  0.08026  1.0000
