data_image0
_chemical_formula_structural       Er2H44C54S4N14O28
_chemical_formula_sum              "Er2 H44 C54 S4 N14 O28"
_cell_length_a       9.53897
_cell_length_b       12.8868
_cell_length_c       14.5927
_cell_angle_alpha    67.9585
_cell_angle_beta     86.3003
_cell_angle_gamma    75.6008

_space_group_name_H-M_alt    "P 1"
_space_group_IT_number       1

loop_
  _space_group_symop_operation_xyz
  'x, y, z'

loop_
  _atom_site_type_symbol
  _atom_site_label
  _atom_site_symmetry_multiplicity
  _atom_site_fract_x
  _atom_site_fract_y
  _atom_site_fract_z
  _atom_site_occupancy
  Er  Er1       1.0  0.23499  0.54095  0.49080  1.0000
  Er  Er2       1.0  0.76501  0.45905  0.50920  1.0000
  H   H1        1.0  0.96137  0.69835  0.47334  1.0000
  H   H2        1.0  0.03862  0.30165  0.52666  1.0000
  H   H3        1.0  0.05319  0.76348  0.51019  1.0000
  H   H4        1.0  0.94679  0.23653  0.48981  1.0000
  H   H5        1.0  0.43540  0.59734  0.60094  1.0000
  H   H6        1.0  0.56459  0.40266  0.39905  1.0000
  H   H7        1.0  0.32165  0.71294  0.55191  1.0000
  H   H8        1.0  0.67835  0.28706  0.44809  1.0000
  H   H9        1.0  0.26909  0.12377  0.54587  1.0000
  H   H10       1.0  0.73091  0.87624  0.45413  1.0000
  H   H11       1.0  0.39898  0.98529  0.31852  1.0000
  H   H12       1.0  0.60103  0.01470  0.68149  1.0000
  H   H13       1.0  0.42971  0.17848  0.20232  1.0000
  H   H14       1.0  0.57031  0.82151  0.79769  1.0000
  H   H15       1.0  0.39444  0.34010  0.26344  1.0000
  H   H16       1.0  0.60557  0.65990  0.73656  1.0000
  H   H17       1.0  0.74398  0.56892  0.23169  1.0000
  H   H18       1.0  0.25602  0.43109  0.76832  1.0000
  H   H19       1.0  0.80113  0.80978  0.94094  1.0000
  H   H20       1.0  0.19887  0.19022  0.05906  1.0000
  H   H21       1.0  0.02752  0.83144  0.00183  1.0000
  H   H22       1.0  0.97248  0.16857  0.99817  1.0000
  H   H23       1.0  0.11016  0.71946  0.17977  1.0000
  H   H24       1.0  0.88983  0.28055  0.82023  1.0000
  H   H25       1.0  0.71353  0.76061  0.32668  1.0000
  H   H26       1.0  0.28646  0.23939  0.67333  1.0000
  H   H27       1.0  0.54630  0.05907  0.06509  1.0000
  H   H28       1.0  0.45370  0.94093  0.93491  1.0000
  H   H29       1.0  0.31593  0.99596  0.07360  1.0000
  H   H30       1.0  0.68407  0.00404  0.92640  1.0000
  H   H31       1.0  0.28537  0.81650  0.21277  1.0000
  H   H32       1.0  0.71463  0.18351  0.78721  1.0000
  H   H33       1.0  0.08654  0.62471  0.68256  1.0000
  H   H34       1.0  0.91347  0.37528  0.31744  1.0000
  H   H35       1.0  0.07431  0.64110  0.79793  1.0000
  H   H36       1.0  0.92571  0.35889  0.20207  1.0000
  H   H37       1.0  0.95443  0.08754  0.62824  1.0000
  H   H38       1.0  0.04557  0.91246  0.37176  1.0000
  H   H39       1.0  0.39579  0.70446  0.92879  1.0000
  H   H40       1.0  0.60421  0.29553  0.07121  1.0000
  H   H41       1.0  0.25829  0.75419  0.83968  1.0000
  H   H42       1.0  0.74171  0.24580  0.16032  1.0000
  H   H43       1.0  0.13744  0.39367  0.16013  1.0000
  H   H44       1.0  0.86257  0.60632  0.83986  1.0000
  C   C1        1.0  0.32517  0.24372  0.40655  1.0000
  C   C2        1.0  0.67483  0.75628  0.59345  1.0000
  C   C3        1.0  0.30596  0.13671  0.47107  1.0000
  C   C4        1.0  0.69405  0.86329  0.52893  1.0000
  C   C5        1.0  0.33813  0.04515  0.43799  1.0000
  C   C6        1.0  0.66188  0.95485  0.56202  1.0000
  C   C7        1.0  0.37922  0.05876  0.34133  1.0000
  C   C8        1.0  0.62079  0.94124  0.65868  1.0000
  C   C9        1.0  0.39687  0.16616  0.27772  1.0000
  C   C10       1.0  0.60314  0.83383  0.72229  1.0000
  C   C11       1.0  0.37430  0.25719  0.31098  1.0000
  C   C12       1.0  0.62571  0.74281  0.68902  1.0000
  C   C13       1.0  0.29565  0.34412  0.43878  1.0000
  C   C14       1.0  0.70435  0.65588  0.56121  1.0000
  C   C15       1.0  0.93384  0.63695  0.21568  1.0000
  C   C16       1.0  0.06616  0.36305  0.78432  1.0000
  C   C17       1.0  0.80736  0.62509  0.18183  1.0000
  C   C18       1.0  0.19263  0.37492  0.81816  1.0000
  C   C19       1.0  0.76162  0.68918  0.08364  1.0000
  C   C20       1.0  0.23838  0.31082  0.91636  1.0000
  C   C21       1.0  0.83862  0.76378  0.01778  1.0000
  C   C22       1.0  0.16137  0.23622  0.98222  1.0000
  C   C23       1.0  0.96500  0.77469  0.05235  1.0000
  C   C24       1.0  0.03500  0.22530  0.94766  1.0000
  C   C25       1.0  0.01221  0.71187  0.15090  1.0000
  C   C26       1.0  0.98779  0.28813  0.84910  1.0000
  C   C27       1.0  0.98094  0.57209  0.32265  1.0000
  C   C28       1.0  0.01905  0.42792  0.67735  1.0000
  C   C29       1.0  0.49779  0.77762  0.27613  1.0000
  C   C30       1.0  0.50220  0.22238  0.72386  1.0000
  C   C31       1.0  0.62687  0.81184  0.27133  1.0000
  C   C32       1.0  0.37313  0.18817  0.72867  1.0000
  C   C33       1.0  0.64044  0.91338  0.19487  1.0000
  C   C34       1.0  0.35956  0.08662  0.80513  1.0000
  C   C35       1.0  0.53089  0.98044  0.12313  1.0000
  C   C36       1.0  0.46912  0.01956  0.87686  1.0000
  C   C37       1.0  0.40262  0.94513  0.12908  1.0000
  C   C38       1.0  0.59739  0.05487  0.87091  1.0000
  C   C39       1.0  0.38555  0.84474  0.20565  1.0000
  C   C40       1.0  0.61445  0.15526  0.79435  1.0000
  C   C41       1.0  0.47706  0.66942  0.35740  1.0000
  C   C42       1.0  0.52294  0.33059  0.64260  1.0000
  C   C43       1.0  0.00029  0.96297  0.55190  1.0000
  C   C44       1.0  0.99972  0.03703  0.44810  1.0000
  C   C45       1.0  0.97696  0.00011  0.62972  1.0000
  C   C46       1.0  0.02304  0.99989  0.37029  1.0000
  C   C47       1.0  0.02774  0.79011  0.67532  1.0000
  C   C48       1.0  0.97226  0.20988  0.32469  1.0000
  C   C49       1.0  0.06716  0.51369  0.00701  1.0000
  C   C50       1.0  0.93284  0.48631  0.99299  1.0000
  C   C51       1.0  0.15358  0.46137  0.09162  1.0000
  C   C52       1.0  0.84642  0.53863  0.90838  1.0000
  C   C53       1.0  0.23884  0.61248  0.95823  1.0000
  C   C54       1.0  0.76116  0.38751  0.04176  1.0000
  S   S1        1.0  0.99105  0.88439  0.74034  1.0000
  S   S2        1.0  0.00896  0.11560  0.25966  1.0000
  S   S3        1.0  0.30012  0.52061  0.07938  1.0000
  S   S4        1.0  0.69989  0.47938  0.92062  1.0000
  N   N1        1.0  0.33219  0.93037  0.50770  1.0000
  N   N2        1.0  0.66781  0.06962  0.49230  1.0000
  N   N3        1.0  0.62747  0.67769  0.05018  1.0000
  N   N4        1.0  0.37252  0.32232  0.94982  1.0000
  N   N5        1.0  0.77622  0.95014  0.18818  1.0000
  N   N6        1.0  0.22378  0.04985  0.81182  1.0000
  N   N7        1.0  0.02929  0.84417  0.57853  1.0000
  N   N8        1.0  0.97071  0.15583  0.42147  1.0000
  N   N9        1.0  0.04795  0.67532  0.72274  1.0000
  N   N10       1.0  0.95206  0.32467  0.27727  1.0000
  N   N11       1.0  0.11742  0.59854  0.93116  1.0000
  N   N12       1.0  0.88259  0.40146  0.06884  1.0000
  N   N13       1.0  0.31320  0.68847  0.89927  1.0000
  N   N14       1.0  0.68681  0.31153  0.10073  1.0000
  O   O1        1.0  0.05919  0.71316  0.46985  1.0000
  O   O2        1.0  0.94080  0.28685  0.53015  1.0000
  O   O3        1.0  0.33075  0.62883  0.58348  1.0000
  O   O4        1.0  0.66924  0.37116  0.41652  1.0000
  O   O5        1.0  0.36544  0.42209  0.40065  1.0000
  O   O6        1.0  0.63454  0.57793  0.59935  1.0000
  O   O7        1.0  0.20018  0.35165  0.50321  1.0000
  O   O8        1.0  0.79980  0.64836  0.49678  1.0000
  O   O9        1.0  0.31278  0.91574  0.59589  1.0000
  O   O10       1.0  0.68723  0.08426  0.40411  1.0000
  O   O11       1.0  0.35016  0.85144  0.47450  1.0000
  O   O12       1.0  0.64984  0.14856  0.52550  1.0000
  O   O13       1.0  0.09186  0.58779  0.35271  1.0000
  O   O14       1.0  0.90813  0.41222  0.64730  1.0000
  O   O15       1.0  0.90394  0.50526  0.37614  1.0000
  O   O16       1.0  0.09604  0.49474  0.62385  1.0000
  O   O17       1.0  0.57078  0.60084  0.10529  1.0000
  O   O18       1.0  0.42922  0.39917  0.89471  1.0000
  O   O19       1.0  0.57425  0.74720  0.96698  1.0000
  O   O20       1.0  0.42574  0.25281  0.03302  1.0000
  O   O21       1.0  0.34744  0.66193  0.37419  1.0000
  O   O22       1.0  0.65257  0.33806  0.62583  1.0000
  O   O23       1.0  0.58803  0.59396  0.40285  1.0000
  O   O24       1.0  0.41197  0.40605  0.59715  1.0000
  O   O25       1.0  0.79064  0.03603  0.11504  1.0000
  O   O26       1.0  0.20936  0.96396  0.88497  1.0000
  O   O27       1.0  0.86963  0.89292  0.25512  1.0000
  O   O28       1.0  0.13036  0.10707  0.74489  1.0000
