data_image0
_chemical_formula_structural       Zn2H20C28Cl4O10
_chemical_formula_sum              "Zn2 H20 C28 Cl4 O10"
_cell_length_a       5.81286
_cell_length_b       7.81997
_cell_length_c       16.3155
_cell_angle_alpha    95.8824
_cell_angle_beta     101.539
_cell_angle_gamma    92.2961

_space_group_name_H-M_alt    "P 1"
_space_group_IT_number       1

loop_
  _space_group_symop_operation_xyz
  'x, y, z'

loop_
  _atom_site_type_symbol
  _atom_site_label
  _atom_site_symmetry_multiplicity
  _atom_site_fract_x
  _atom_site_fract_y
  _atom_site_fract_z
  _atom_site_occupancy
  Zn  Zn1       1.0  0.19203  0.25256  0.00303  1.0000
  Zn  Zn2       1.0  0.80798  0.74744  0.99697  1.0000
  H   H1        1.0  0.62753  0.35265  0.99381  1.0000
  H   H2        1.0  0.62537  0.16095  0.02228  1.0000
  H   H3        1.0  0.37247  0.64736  0.00620  1.0000
  H   H4        1.0  0.37463  0.83905  0.97772  1.0000
  H   H5        1.0  0.74882  0.81833  0.73694  1.0000
  H   H6        1.0  0.00271  0.68458  0.26070  1.0000
  H   H7        1.0  0.25118  0.18168  0.26305  1.0000
  H   H8        1.0  0.99727  0.31541  0.73931  1.0000
  H   H9        1.0  0.18250  0.00462  0.57463  1.0000
  H   H10       1.0  0.58438  0.50129  0.43121  1.0000
  H   H11       1.0  0.81751  0.99538  0.42537  1.0000
  H   H12       1.0  0.41561  0.49871  0.56880  1.0000
  H   H13       1.0  0.49284  0.10975  0.69997  1.0000
  H   H14       1.0  0.76187  0.39933  0.31009  1.0000
  H   H15       1.0  0.50717  0.89024  0.30002  1.0000
  H   H16       1.0  0.23811  0.60066  0.68991  1.0000
  H   H17       1.0  0.42920  0.07305  0.84431  1.0000
  H   H18       1.0  0.55834  0.43760  0.16353  1.0000
  H   H19       1.0  0.57081  0.92696  0.15569  1.0000
  H   H20       1.0  0.44165  0.56239  0.83647  1.0000
  C   C1        1.0  0.05072  0.91545  0.88501  1.0000
  C   C2        1.0  0.15545  0.59401  0.11625  1.0000
  C   C3        1.0  0.94928  0.08456  0.11498  1.0000
  C   C4        1.0  0.84455  0.40598  0.88375  1.0000
  C   C5        1.0  0.08626  0.94280  0.79916  1.0000
  C   C6        1.0  0.27048  0.56500  0.20356  1.0000
  C   C7        1.0  0.91375  0.05721  0.20084  1.0000
  C   C8        1.0  0.72951  0.43499  0.79644  1.0000
  C   C9        1.0  0.91077  0.88276  0.72865  1.0000
  C   C10       1.0  0.16821  0.62173  0.27162  1.0000
  C   C11       1.0  0.08924  0.11725  0.27134  1.0000
  C   C12       1.0  0.83178  0.37826  0.72838  1.0000
  C   C13       1.0  0.94691  0.90837  0.64880  1.0000
  C   C14       1.0  0.28179  0.59582  0.35274  1.0000
  C   C15       1.0  0.05310  0.09164  0.35120  1.0000
  C   C16       1.0  0.71820  0.40417  0.64726  1.0000
  C   C17       1.0  0.15644  0.98764  0.63762  1.0000
  C   C18       1.0  0.49662  0.51838  0.36735  1.0000
  C   C19       1.0  0.84357  0.01236  0.36237  1.0000
  C   C20       1.0  0.50337  0.48162  0.63266  1.0000
  C   C21       1.0  0.33018  0.04629  0.70836  1.0000
  C   C22       1.0  0.59585  0.46181  0.29894  1.0000
  C   C23       1.0  0.66983  0.95372  0.29163  1.0000
  C   C24       1.0  0.40414  0.53819  0.70107  1.0000
  C   C25       1.0  0.29541  0.02579  0.78892  1.0000
  C   C26       1.0  0.48358  0.48366  0.21722  1.0000
  C   C27       1.0  0.70460  0.97422  0.21108  1.0000
  C   C28       1.0  0.51641  0.51633  0.78278  1.0000
  Cl  Cl1       1.0  0.72445  0.84310  0.56163  1.0000
  Cl  Cl2       1.0  0.15239  0.65951  0.43725  1.0000
  Cl  Cl3       1.0  0.27555  0.15691  0.43837  1.0000
  Cl  Cl4       1.0  0.84760  0.34050  0.56275  1.0000
  O   O1        1.0  0.19678  0.98961  0.94967  1.0000
  O   O2        1.0  0.23596  0.52367  0.05440  1.0000
  O   O3        1.0  0.80324  0.01039  0.05032  1.0000
  O   O4        1.0  0.76405  0.47634  0.94561  1.0000
  O   O5        1.0  0.87995  0.81223  0.88999  1.0000
  O   O6        1.0  0.98541  0.69367  0.10744  1.0000
  O   O7        1.0  0.12004  0.18778  0.11001  1.0000
  O   O8        1.0  0.01458  0.30632  0.89256  1.0000
  O   O9        1.0  0.54187  0.26977  0.02193  1.0000
  O   O10       1.0  0.45814  0.73023  0.97807  1.0000
