data_image0
_chemical_formula_structural       K2H52C40N2O8
_chemical_formula_sum              "K2 H52 C40 N2 O8"
_cell_length_a       10.1321
_cell_length_b       10.6186
_cell_length_c       12.7711
_cell_angle_alpha    70.3092
_cell_angle_beta     85.966
_cell_angle_gamma    67.0194

_space_group_name_H-M_alt    "P 1"
_space_group_IT_number       1

loop_
  _space_group_symop_operation_xyz
  'x, y, z'

loop_
  _atom_site_type_symbol
  _atom_site_label
  _atom_site_symmetry_multiplicity
  _atom_site_fract_x
  _atom_site_fract_y
  _atom_site_fract_z
  _atom_site_occupancy
  K   K1        1.0  0.81442  0.59457  0.06869  1.0000
  K   K2        1.0  0.18558  0.40543  0.93131  1.0000
  H   H1        1.0  0.03546  0.66667  0.98093  1.0000
  H   H2        1.0  0.96454  0.33333  0.01907  1.0000
  H   H3        1.0  0.05478  0.88940  0.98147  1.0000
  H   H4        1.0  0.94522  0.11060  0.01853  1.0000
  H   H5        1.0  0.16210  0.89484  0.15099  1.0000
  H   H6        1.0  0.83790  0.10516  0.84901  1.0000
  H   H7        1.0  0.25237  0.66875  0.31644  1.0000
  H   H8        1.0  0.74764  0.33125  0.68356  1.0000
  H   H9        1.0  0.22952  0.44573  0.31879  1.0000
  H   H10       1.0  0.77048  0.55427  0.68120  1.0000
  H   H11       1.0  0.97802  0.23386  0.21263  1.0000
  H   H12       1.0  0.02197  0.76615  0.78737  1.0000
  H   H13       1.0  0.09369  0.97291  0.32369  1.0000
  H   H14       1.0  0.90629  0.02709  0.67631  1.0000
  H   H15       1.0  0.35061  0.86311  0.39407  1.0000
  H   H16       1.0  0.64938  0.13689  0.60592  1.0000
  H   H17       1.0  0.49088  0.02237  0.35058  1.0000
  H   H18       1.0  0.50912  0.97763  0.64941  1.0000
  H   H19       1.0  0.37629  0.28211  0.24022  1.0000
  H   H20       1.0  0.62371  0.71789  0.75978  1.0000
  H   H21       1.0  0.82575  0.53628  0.41564  1.0000
  H   H22       1.0  0.17425  0.46372  0.58436  1.0000
  H   H23       1.0  0.95081  0.42552  0.34350  1.0000
  H   H24       1.0  0.04919  0.57448  0.65650  1.0000
  H   H25       1.0  0.85841  0.23137  0.42568  1.0000
  H   H26       1.0  0.14159  0.76862  0.57432  1.0000
  H   H27       1.0  0.90255  0.27922  0.53670  1.0000
  H   H28       1.0  0.09745  0.72078  0.46330  1.0000
  H   H29       1.0  0.47846  0.43573  0.43550  1.0000
  H   H30       1.0  0.52154  0.56427  0.56450  1.0000
  H   H31       1.0  0.60678  0.32414  0.36586  1.0000
  H   H32       1.0  0.39322  0.67585  0.63414  1.0000
  H   H33       1.0  0.52618  0.58342  0.24459  1.0000
  H   H34       1.0  0.47382  0.41657  0.75541  1.0000
  H   H35       1.0  0.56952  0.62972  0.35686  1.0000
  H   H36       1.0  0.43048  0.37028  0.64314  1.0000
  H   H37       1.0  0.47213  0.42852  0.15876  1.0000
  H   H38       1.0  0.52787  0.57148  0.84124  1.0000
  H   H39       1.0  0.66406  0.33733  0.16024  1.0000
  H   H40       1.0  0.33594  0.66268  0.83976  1.0000
  H   H41       1.0  0.47586  0.74896  0.94010  1.0000
  H   H42       1.0  0.52414  0.25104  0.05990  1.0000
  H   H43       1.0  0.35996  0.67346  0.02811  1.0000
  H   H44       1.0  0.64004  0.32655  0.97189  1.0000
  H   H45       1.0  0.55320  0.97666  0.15197  1.0000
  H   H46       1.0  0.44679  0.02334  0.84804  1.0000
  H   H47       1.0  0.50581  0.82354  0.17891  1.0000
  H   H48       1.0  0.49419  0.17646  0.82110  1.0000
  H   H49       1.0  0.70707  0.93511  0.89412  1.0000
  H   H50       1.0  0.29293  0.06489  0.10589  1.0000
  H   H51       1.0  0.67379  0.04258  0.98305  1.0000
  H   H52       1.0  0.32622  0.95742  0.01696  1.0000
  C   C1        1.0  0.12868  0.53547  0.15040  1.0000
  C   C2        1.0  0.87132  0.46454  0.84960  1.0000
  C   C3        1.0  0.08210  0.66616  0.05582  1.0000
  C   C4        1.0  0.91790  0.33385  0.94418  1.0000
  C   C5        1.0  0.09302  0.79272  0.05607  1.0000
  C   C6        1.0  0.90698  0.20728  0.94393  1.0000
  C   C7        1.0  0.15379  0.79615  0.14968  1.0000
  C   C8        1.0  0.84622  0.20385  0.85032  1.0000
  C   C9        1.0  0.20386  0.66872  0.24273  1.0000
  C   C10       1.0  0.79615  0.33128  0.75727  1.0000
  C   C11       1.0  0.19264  0.54167  0.24378  1.0000
  C   C12       1.0  0.80737  0.45833  0.75621  1.0000
  C   C13       1.0  0.16659  0.28122  0.21672  1.0000
  C   C14       1.0  0.83340  0.71878  0.78327  1.0000
  C   C15       1.0  0.09093  0.18729  0.24281  1.0000
  C   C16       1.0  0.90906  0.81272  0.75718  1.0000
  C   C17       1.0  0.15638  0.04035  0.30548  1.0000
  C   C18       1.0  0.84361  0.95965  0.69451  1.0000
  C   C19       1.0  0.30092  0.97826  0.34527  1.0000
  C   C20       1.0  0.69907  0.02174  0.65472  1.0000
  C   C21       1.0  0.37780  0.06815  0.32095  1.0000
  C   C22       1.0  0.62220  0.93185  0.67905  1.0000
  C   C23       1.0  0.31310  0.21547  0.25883  1.0000
  C   C24       1.0  0.68689  0.78453  0.74116  1.0000
  C   C25       1.0  0.84424  0.45247  0.37692  1.0000
  C   C26       1.0  0.15576  0.54753  0.62308  1.0000
  C   C27       1.0  0.83069  0.31886  0.46191  1.0000
  C   C28       1.0  0.16931  0.68114  0.53810  1.0000
  C   C29       1.0  0.58614  0.40882  0.40407  1.0000
  C   C30       1.0  0.41386  0.59118  0.59593  1.0000
  C   C31       1.0  0.59800  0.54327  0.31936  1.0000
  C   C32       1.0  0.40201  0.45673  0.68064  1.0000
  C   C33       1.0  0.56510  0.41120  0.10669  1.0000
  C   C34       1.0  0.43490  0.58880  0.89331  1.0000
  C   C35       1.0  0.45561  0.64953  0.97962  1.0000
  C   C36       1.0  0.54439  0.35047  0.02038  1.0000
  C   C37       1.0  0.51412  0.91775  0.11330  1.0000
  C   C38       1.0  0.48588  0.08225  0.88670  1.0000
  C   C39       1.0  0.63057  0.98212  0.94939  1.0000
  C   C40       1.0  0.36943  0.01787  0.05061  1.0000
  N   N1        1.0  0.09800  0.42215  0.14694  1.0000
  N   N2        1.0  0.90200  0.57786  0.85306  1.0000
  O   O1        1.0  0.74140  0.51139  0.28317  1.0000
  O   O2        1.0  0.25860  0.48860  0.71683  1.0000
  O   O3        1.0  0.68720  0.35291  0.49808  1.0000
  O   O4        1.0  0.31281  0.64709  0.50192  1.0000
  O   O5        1.0  0.57986  0.54722  0.05399  1.0000
  O   O6        1.0  0.42014  0.45278  0.94601  1.0000
  O   O7        1.0  0.61731  0.86325  0.03969  1.0000
  O   O8        1.0  0.38269  0.13675  0.96031  1.0000
