data_image0
_chemical_formula_structural       Cu4H32C36S8N16Cl4
_chemical_formula_sum              "Cu4 H32 C36 S8 N16 Cl4"
_cell_length_a       8.94835
_cell_length_b       8.94828
_cell_length_c       15.3079
_cell_angle_alpha    96.5153
_cell_angle_beta     96.5148
_cell_angle_gamma    94.3908

_space_group_name_H-M_alt    "P 1"
_space_group_IT_number       1

loop_
  _space_group_symop_operation_xyz
  'x, y, z'

loop_
  _atom_site_type_symbol
  _atom_site_label
  _atom_site_symmetry_multiplicity
  _atom_site_fract_x
  _atom_site_fract_y
  _atom_site_fract_z
  _atom_site_occupancy
  Cu  Cu1       1.0  0.07579  0.57991  0.42945  1.0000
  Cu  Cu2       1.0  0.42008  0.92422  0.07055  1.0000
  Cu  Cu3       1.0  0.92420  0.42009  0.57055  1.0000
  Cu  Cu4       1.0  0.57992  0.07579  0.92945  1.0000
  H   H1        1.0  0.34119  0.40912  0.47214  1.0000
  H   H2        1.0  0.59088  0.65882  0.02786  1.0000
  H   H3        1.0  0.65880  0.59087  0.52786  1.0000
  H   H4        1.0  0.40914  0.34119  0.97214  1.0000
  H   H5        1.0  0.54029  0.30189  0.38196  1.0000
  H   H6        1.0  0.69811  0.45973  0.11803  1.0000
  H   H7        1.0  0.45971  0.69809  0.61805  1.0000
  H   H8        1.0  0.30191  0.54028  0.88196  1.0000
  H   H9        1.0  0.48631  0.28895  0.21459  1.0000
  H   H10       1.0  0.71105  0.51370  0.28540  1.0000
  H   H11       1.0  0.51369  0.71103  0.78542  1.0000
  H   H12       1.0  0.28895  0.48630  0.71459  1.0000
  H   H13       1.0  0.94833  0.53908  0.07877  1.0000
  H   H14       1.0  0.46092  0.05167  0.42123  1.0000
  H   H15       1.0  0.05167  0.46093  0.92123  1.0000
  H   H16       1.0  0.53908  0.94833  0.57877  1.0000
  H   H17       1.0  0.09104  0.40897  0.08991  1.0000
  H   H18       1.0  0.59102  0.90896  0.41009  1.0000
  H   H19       1.0  0.90896  0.59103  0.91009  1.0000
  H   H20       1.0  0.40897  0.09104  0.58991  1.0000
  H   H21       1.0  0.22551  0.17865  0.09555  1.0000
  H   H22       1.0  0.82136  0.77448  0.40445  1.0000
  H   H23       1.0  0.77449  0.82136  0.90444  1.0000
  H   H24       1.0  0.17864  0.22552  0.59555  1.0000
  H   H25       1.0  0.95466  0.19836  0.12993  1.0000
  H   H26       1.0  0.80164  0.04533  0.37008  1.0000
  H   H27       1.0  0.04534  0.80164  0.87007  1.0000
  H   H28       1.0  0.19836  0.95466  0.62992  1.0000
  H   H29       1.0  0.79643  0.95564  0.13389  1.0000
  H   H30       1.0  0.04436  0.20357  0.36611  1.0000
  H   H31       1.0  0.20357  0.04437  0.86610  1.0000
  H   H32       1.0  0.95563  0.79643  0.63390  1.0000
  C   C1        1.0  0.33139  0.40164  0.39997  1.0000
  C   C2        1.0  0.59835  0.66863  0.10003  1.0000
  C   C3        1.0  0.66861  0.59835  0.60003  1.0000
  C   C4        1.0  0.40166  0.33138  0.89997  1.0000
  C   C5        1.0  0.43802  0.34163  0.35046  1.0000
  C   C6        1.0  0.65838  0.56199  0.14953  1.0000
  C   C7        1.0  0.56198  0.65837  0.64955  1.0000
  C   C8        1.0  0.34164  0.43801  0.85046  1.0000
  C   C9        1.0  0.41039  0.33802  0.25874  1.0000
  C   C10       1.0  0.66199  0.58962  0.24125  1.0000
  C   C11       1.0  0.58961  0.66197  0.74126  1.0000
  C   C12       1.0  0.33802  0.41038  0.75875  1.0000
  C   C13       1.0  0.19343  0.45180  0.27170  1.0000
  C   C14       1.0  0.54820  0.80657  0.22829  1.0000
  C   C15       1.0  0.80657  0.54820  0.72830  1.0000
  C   C16       1.0  0.45180  0.19342  0.77170  1.0000
  C   C17       1.0  0.05847  0.52084  0.11297  1.0000
  C   C18       1.0  0.47916  0.94153  0.38703  1.0000
  C   C19       1.0  0.94154  0.47917  0.88703  1.0000
  C   C20       1.0  0.52083  0.05846  0.61297  1.0000
  C   C21       1.0  0.11528  0.82111  0.09656  1.0000
  C   C22       1.0  0.17890  0.88472  0.40344  1.0000
  C   C23       1.0  0.88472  0.17890  0.90344  1.0000
  C   C24       1.0  0.82109  0.11528  0.59657  1.0000
  C   C25       1.0  0.14956  0.07963  0.10078  1.0000
  C   C26       1.0  0.92037  0.85043  0.39922  1.0000
  C   C27       1.0  0.85044  0.92037  0.89921  1.0000
  C   C28       1.0  0.07962  0.14957  0.60078  1.0000
  C   C29       1.0  0.00194  0.09017  0.11944  1.0000
  C   C30       1.0  0.90983  0.99805  0.38055  1.0000
  C   C31       1.0  0.99806  0.90983  0.88054  1.0000
  C   C32       1.0  0.09017  0.00195  0.61945  1.0000
  C   C33       1.0  0.91492  0.95549  0.12292  1.0000
  C   C34       1.0  0.04451  0.08508  0.37708  1.0000
  C   C35       1.0  0.08508  0.04452  0.87707  1.0000
  C   C36       1.0  0.95549  0.91492  0.62293  1.0000
  S   S1        1.0  0.03327  0.53329  0.22908  1.0000
  S   S2        1.0  0.46670  0.96674  0.27092  1.0000
  S   S3        1.0  0.96674  0.46673  0.77093  1.0000
  S   S4        1.0  0.53328  0.03325  0.72908  1.0000
  S   S5        1.0  0.20366  0.65316  0.08509  1.0000
  S   S6        1.0  0.34684  0.79634  0.41491  1.0000
  S   S7        1.0  0.79635  0.34684  0.91490  1.0000
  S   S8        1.0  0.65316  0.20366  0.58510  1.0000
  N   N1        1.0  0.20842  0.45776  0.36141  1.0000
  N   N2        1.0  0.54223  0.79158  0.13858  1.0000
  N   N3        1.0  0.79157  0.54223  0.63859  1.0000
  N   N4        1.0  0.45777  0.20842  0.86141  1.0000
  N   N5        1.0  0.28802  0.39272  0.21900  1.0000
  N   N6        1.0  0.60727  0.71198  0.28100  1.0000
  N   N7        1.0  0.71197  0.60727  0.78101  1.0000
  N   N8        1.0  0.39272  0.28802  0.71900  1.0000
  N   N9        1.0  0.97117  0.82067  0.11125  1.0000
  N   N10       1.0  0.17933  0.02883  0.38874  1.0000
  N   N11       1.0  0.02884  0.17934  0.88874  1.0000
  N   N12       1.0  0.82067  0.97116  0.61126  1.0000
  N   N13       1.0  0.20847  0.94567  0.08940  1.0000
  N   N14       1.0  0.05433  0.79153  0.41060  1.0000
  N   N15       1.0  0.79154  0.05433  0.91059  1.0000
  N   N16       1.0  0.94566  0.20847  0.58941  1.0000
  Cl  Cl1       1.0  0.16403  0.56310  0.57978  1.0000
  Cl  Cl2       1.0  0.43689  0.83597  0.92021  1.0000
  Cl  Cl3       1.0  0.83596  0.43690  0.42022  1.0000
  Cl  Cl4       1.0  0.56311  0.16404  0.07978  1.0000
