data_image0
_chemical_formula_structural       Cu6H16C24N8O24F12
_chemical_formula_sum              "Cu6 H16 C24 N8 O24 F12"
_cell_length_a       6.65543
_cell_length_b       8.05573
_cell_length_c       19.4483
_cell_angle_alpha    89.9929
_cell_angle_beta     90.917
_cell_angle_gamma    89.978

_space_group_name_H-M_alt    "P 1"
_space_group_IT_number       1

loop_
  _space_group_symop_operation_xyz
  'x, y, z'

loop_
  _atom_site_type_symbol
  _atom_site_label
  _atom_site_symmetry_multiplicity
  _atom_site_fract_x
  _atom_site_fract_y
  _atom_site_fract_z
  _atom_site_occupancy
  Cu  Cu1       1.0  0.00094  0.99904  0.00020  1.0000
  Cu  Cu2       1.0  0.49983  0.50086  0.49998  1.0000
  Cu  Cu3       1.0  0.01290  0.22421  0.30285  1.0000
  Cu  Cu4       1.0  0.48680  0.72411  0.19713  1.0000
  Cu  Cu5       1.0  0.98698  0.77610  0.69726  1.0000
  Cu  Cu6       1.0  0.51247  0.27583  0.80271  1.0000
  H   H1        1.0  0.37694  0.11401  0.30372  1.0000
  H   H2        1.0  0.12294  0.61354  0.19615  1.0000
  H   H3        1.0  0.62314  0.88609  0.69667  1.0000
  H   H4        1.0  0.87643  0.38547  0.80341  1.0000
  H   H5        1.0  0.32902  0.19417  0.37759  1.0000
  H   H6        1.0  0.17140  0.69304  0.12222  1.0000
  H   H7        1.0  0.67073  0.80611  0.62274  1.0000
  H   H8        1.0  0.82896  0.30484  0.87723  1.0000
  H   H9        1.0  0.34586  0.76166  0.04368  1.0000
  H   H10       1.0  0.15514  0.26333  0.45622  1.0000
  H   H11       1.0  0.65604  0.23747  0.95620  1.0000
  H   H12       1.0  0.84407  0.73950  0.54366  1.0000
  H   H13       1.0  0.21159  0.63892  0.99970  1.0000
  H   H14       1.0  0.28983  0.14098  0.50026  1.0000
  H   H15       1.0  0.79241  0.36031  0.99935  1.0000
  H   H16       1.0  0.70757  0.86262  0.50063  1.0000
  C   C1        1.0  0.09934  0.13447  0.14850  1.0000
  C   C2        1.0  0.40047  0.63500  0.35150  1.0000
  C   C3        1.0  0.90136  0.86463  0.85180  1.0000
  C   C4        1.0  0.59861  0.36560  0.64829  1.0000
  C   C5        1.0  0.83235  0.98288  0.13023  1.0000
  C   C6        1.0  0.66785  0.48373  0.36991  1.0000
  C   C7        1.0  0.16861  0.01594  0.87008  1.0000
  C   C8        1.0  0.33148  0.51730  0.63004  1.0000
  C   C9        1.0  0.83417  0.03543  0.19848  1.0000
  C   C10       1.0  0.66575  0.53577  0.30159  1.0000
  C   C11       1.0  0.16647  0.96373  0.80180  1.0000
  C   C12       1.0  0.33327  0.46447  0.69826  1.0000
  C   C13       1.0  0.68762  0.03952  0.25441  1.0000
  C   C14       1.0  0.81234  0.53959  0.24567  1.0000
  C   C15       1.0  0.31287  0.95987  0.74583  1.0000
  C   C16       1.0  0.18669  0.46008  0.75416  1.0000
  C   C17       1.0  0.27601  0.24472  0.13453  1.0000
  C   C18       1.0  0.22343  0.74507  0.36534  1.0000
  C   C19       1.0  0.72435  0.75471  0.86576  1.0000
  C   C20       1.0  0.77565  0.25565  0.63431  1.0000
  C   C21       1.0  0.69808  0.88699  0.08441  1.0000
  C   C22       1.0  0.80235  0.38801  0.41573  1.0000
  C   C23       1.0  0.30291  0.11201  0.91582  1.0000
  C   C24       1.0  0.19732  0.61348  0.58424  1.0000
  N   N1        1.0  0.99959  0.04781  0.09953  1.0000
  N   N2        1.0  0.50057  0.54879  0.40056  1.0000
  N   N3        1.0  0.00149  0.95090  0.90080  1.0000
  N   N4        1.0  0.49880  0.45240  0.59935  1.0000
  N   N5        1.0  0.00508  0.12799  0.20918  1.0000
  N   N6        1.0  0.49467  0.62814  0.29081  1.0000
  N   N7        1.0  0.99542  0.87135  0.79107  1.0000
  N   N8        1.0  0.50427  0.37187  0.70896  1.0000
  O   O1        1.0  0.74373  0.12131  0.30821  1.0000
  O   O2        1.0  0.75604  0.62113  0.19180  1.0000
  O   O3        1.0  0.25650  0.87844  0.69196  1.0000
  O   O4        1.0  0.24294  0.37818  0.80796  1.0000
  O   O5        1.0  0.74731  0.88356  0.02126  1.0000
  O   O6        1.0  0.75368  0.38532  0.47895  1.0000
  O   O7        1.0  0.25439  0.11480  0.97904  1.0000
  O   O8        1.0  0.24639  0.61673  0.52107  1.0000
  O   O9        1.0  0.53870  0.81342  0.10392  1.0000
  O   O10       1.0  0.96129  0.31384  0.39614  1.0000
  O   O11       1.0  0.46150  0.18648  0.89610  1.0000
  O   O12       1.0  0.03828  0.68754  0.60383  1.0000
  O   O13       1.0  0.51420  0.97617  0.24879  1.0000
  O   O14       1.0  0.98573  0.47620  0.25134  1.0000
  O   O15       1.0  0.48631  0.02317  0.75143  1.0000
  O   O16       1.0  0.01316  0.52332  0.74857  1.0000
  O   O17       1.0  0.30568  0.20602  0.32726  1.0000
  O   O18       1.0  0.19409  0.70553  0.17256  1.0000
  O   O19       1.0  0.69419  0.79399  0.67307  1.0000
  O   O20       1.0  0.80535  0.29325  0.82688  1.0000
  O   O21       1.0  0.20471  0.73088  0.03196  1.0000
  O   O22       1.0  0.29641  0.23278  0.46789  1.0000
  O   O23       1.0  0.79768  0.26740  0.96750  1.0000
  O   O24       1.0  0.70244  0.76961  0.53244  1.0000
  F   F1        1.0  0.22103  0.36853  0.08922  1.0000
  F   F2        1.0  0.27814  0.86950  0.41040  1.0000
  F   F3        1.0  0.77921  0.63008  0.91072  1.0000
  F   F4        1.0  0.72105  0.13162  0.58906  1.0000
  F   F5        1.0  0.43364  0.16426  0.10644  1.0000
  F   F6        1.0  0.06624  0.66457  0.39366  1.0000
  F   F7        1.0  0.56748  0.83532  0.89426  1.0000
  F   F8        1.0  0.93286  0.33641  0.60614  1.0000
  F   F9        1.0  0.34462  0.31971  0.19271  1.0000
  F   F10       1.0  0.15450  0.81925  0.30700  1.0000
  F   F11       1.0  0.65467  0.68071  0.80751  1.0000
  F   F12       1.0  0.84466  0.18084  0.69250  1.0000
