data_image0
_chemical_formula_structural       Cd3H30C36S6N12
_chemical_formula_sum              "Cd3 H30 C36 S6 N12"
_cell_length_a       7.79331
_cell_length_b       8.49088
_cell_length_c       17.6979
_cell_angle_alpha    87.9435
_cell_angle_beta     85.6573
_cell_angle_gamma    62.6403

_space_group_name_H-M_alt    "P 1"
_space_group_IT_number       1

loop_
  _space_group_symop_operation_xyz
  'x, y, z'

loop_
  _atom_site_type_symbol
  _atom_site_label
  _atom_site_symmetry_multiplicity
  _atom_site_fract_x
  _atom_site_fract_y
  _atom_site_fract_z
  _atom_site_occupancy
  Cd  Cd1       1.0  0.08175  0.99988  0.83465  1.0000
  Cd  Cd2       1.0  0.91825  0.00012  0.16535  1.0000
  Cd  Cd3       1.0  1.00000  1.00000  0.50000  1.0000
  H   H1        1.0  0.28489  0.67334  0.94934  1.0000
  H   H2        1.0  0.04083  0.67424  0.05080  1.0000
  H   H3        1.0  0.71511  0.32664  0.05066  1.0000
  H   H4        1.0  0.95917  0.32578  0.94921  1.0000
  H   H5        1.0  0.47791  0.34091  0.95227  1.0000
  H   H6        1.0  0.17883  0.34197  0.04806  1.0000
  H   H7        1.0  0.52211  0.65908  0.04773  1.0000
  H   H8        1.0  0.82116  0.65805  0.95194  1.0000
  H   H9        1.0  0.55792  0.17417  0.83010  1.0000
  H   H10       1.0  0.26661  0.17464  0.17022  1.0000
  H   H11       1.0  0.44209  0.82583  0.16989  1.0000
  H   H12       1.0  0.73337  0.82536  0.82978  1.0000
  H   H13       1.0  0.43205  0.34299  0.71070  1.0000
  H   H14       1.0  0.22602  0.34264  0.28943  1.0000
  H   H15       1.0  0.56795  0.65703  0.28930  1.0000
  H   H16       1.0  0.77398  0.65734  0.71057  1.0000
  H   H17       1.0  0.23921  0.67565  0.71799  1.0000
  H   H18       1.0  0.08729  0.67522  0.28198  1.0000
  H   H19       1.0  0.76079  0.32436  0.28201  1.0000
  H   H20       1.0  0.91272  0.32477  0.71802  1.0000
  H   H21       1.0  0.96363  0.33205  0.39365  1.0000
  H   H22       1.0  0.70361  0.33184  0.60608  1.0000
  H   H23       1.0  0.03636  0.66794  0.60635  1.0000
  H   H24       1.0  0.29639  0.66816  0.39392  1.0000
  H   H25       1.0  0.80031  0.66509  0.38838  1.0000
  H   H26       1.0  0.53480  0.66486  0.61139  1.0000
  H   H27       1.0  0.19969  0.33491  0.61161  1.0000
  H   H28       1.0  0.46521  0.33515  0.38861  1.0000
  H   H29       1.0  0.58324  0.83424  0.49994  1.0000
  H   H30       1.0  0.41677  0.16576  0.50006  1.0000
  C   C1        1.0  0.82609  0.99963  0.68302  1.0000
  C   C2        1.0  0.17391  0.00037  0.31698  1.0000
  C   C3        1.0  0.26599  0.00022  0.64917  1.0000
  C   C4        1.0  0.73402  0.99977  0.35085  1.0000
  C   C5        1.0  0.77907  0.99993  0.98772  1.0000
  C   C6        1.0  0.22093  0.00007  0.01228  1.0000
  C   C7        1.0  0.32042  0.59432  0.89788  1.0000
  C   C8        1.0  0.08475  0.59494  0.10226  1.0000
  C   C9        1.0  0.67958  0.40567  0.10212  1.0000
  C   C10       1.0  0.91524  0.40507  0.89775  1.0000
  C   C11       1.0  0.42844  0.41051  0.89914  1.0000
  C   C12       1.0  0.15979  0.41123  0.10110  1.0000
  C   C13       1.0  0.57157  0.58948  0.10086  1.0000
  C   C14       1.0  0.84021  0.58878  0.89890  1.0000
  C   C15       1.0  0.47109  0.31768  0.83118  1.0000
  C   C16       1.0  0.21055  0.31806  0.16905  1.0000
  C   C17       1.0  0.52892  0.68233  0.16882  1.0000
  C   C18       1.0  0.78944  0.68195  0.83094  1.0000
  C   C19       1.0  0.40307  0.41178  0.76459  1.0000
  C   C20       1.0  0.18577  0.41172  0.23554  1.0000
  C   C21       1.0  0.59693  0.58822  0.23541  1.0000
  C   C22       1.0  0.81423  0.58827  0.76446  1.0000
  C   C23       1.0  0.29565  0.59561  0.76839  1.0000
  C   C24       1.0  0.10998  0.59550  0.23166  1.0000
  C   C25       1.0  0.70435  0.40440  0.23161  1.0000
  C   C26       1.0  0.89002  0.40450  0.76835  1.0000
  C   C27       1.0  0.86515  0.41155  0.44020  1.0000
  C   C28       1.0  0.72277  0.41142  0.55955  1.0000
  C   C29       1.0  0.13485  0.58845  0.55980  1.0000
  C   C30       1.0  0.27724  0.58857  0.44045  1.0000
  C   C31       1.0  0.77546  0.59608  0.43776  1.0000
  C   C32       1.0  0.62844  0.59592  0.56202  1.0000
  C   C33       1.0  0.22454  0.40391  0.56224  1.0000
  C   C34       1.0  0.37157  0.40407  0.43798  1.0000
  C   C35       1.0  0.65514  0.68995  0.49990  1.0000
  C   C36       1.0  0.34487  0.31005  0.50010  1.0000
  S   S1        1.0  0.72951  0.99953  0.60453  1.0000
  S   S2        1.0  0.27048  0.00047  0.39548  1.0000
  S   S3        1.0  0.35841  0.00069  0.72860  1.0000
  S   S4        1.0  0.64157  0.99932  0.27140  1.0000
  S   S5        1.0  0.65920  0.00083  0.06727  1.0000
  S   S6        1.0  0.34080  0.99917  0.93273  1.0000
  N   N1        1.0  0.89210  0.99973  0.74096  1.0000
  N   N2        1.0  0.10790  0.00027  0.25904  1.0000
  N   N3        1.0  0.20392  0.99993  0.59012  1.0000
  N   N4        1.0  0.79607  0.00006  0.40987  1.0000
  N   N5        1.0  0.86354  0.99926  0.92919  1.0000
  N   N6        1.0  0.13646  0.00074  0.07080  1.0000
  N   N7        1.0  0.25521  0.68538  0.83377  1.0000
  N   N8        1.0  0.06009  0.68562  0.16627  1.0000
  N   N9        1.0  0.74478  0.31462  0.16623  1.0000
  N   N10       1.0  0.93991  0.31438  0.83373  1.0000
  N   N11       1.0  0.83955  0.32015  0.49987  1.0000
  N   N12       1.0  0.16045  0.67985  0.50014  1.0000
