data_image0
_chemical_formula_structural       Cd4H40C48S8N16
_chemical_formula_sum              "Cd4 H40 C48 S8 N16"
_cell_length_a       7.62968
_cell_length_b       8.52186
_cell_length_c       23.705
_cell_angle_alpha    84.8285
_cell_angle_beta     89.5076
_cell_angle_gamma    63.4607

_space_group_name_H-M_alt    "P 1"
_space_group_IT_number       1

loop_
  _space_group_symop_operation_xyz
  'x, y, z'

loop_
  _atom_site_type_symbol
  _atom_site_label
  _atom_site_symmetry_multiplicity
  _atom_site_fract_x
  _atom_site_fract_y
  _atom_site_fract_z
  _atom_site_occupancy
  Cd  Cd1       1.0  0.55893  0.97054  0.37469  1.0000
  Cd  Cd2       1.0  0.44107  0.02946  0.62531  1.0000
  Cd  Cd3       1.0  0.45047  0.99172  0.12448  1.0000
  Cd  Cd4       1.0  0.54953  0.00828  0.87552  1.0000
  H   H1        1.0  0.31189  0.27231  0.45633  1.0000
  H   H2        1.0  0.68811  0.72769  0.54367  1.0000
  H   H3        1.0  0.18255  0.79007  0.37693  1.0000
  H   H4        1.0  0.81745  0.20993  0.62307  1.0000
  H   H5        1.0  0.36068  0.64568  0.29233  1.0000
  H   H6        1.0  0.63931  0.35432  0.70767  1.0000
  H   H7        1.0  0.51480  0.31575  0.29606  1.0000
  H   H8        1.0  0.48519  0.68426  0.70394  1.0000
  H   H9        1.0  0.85439  0.67067  0.29530  1.0000
  H   H10       1.0  0.14561  0.32933  0.70470  1.0000
  H   H11       1.0  0.03701  0.34170  0.29432  1.0000
  H   H12       1.0  0.96298  0.65831  0.70568  1.0000
  H   H13       1.0  0.00813  0.15038  0.37670  1.0000
  H   H14       1.0  0.99186  0.84962  0.62330  1.0000
  H   H15       1.0  0.79083  0.29322  0.45537  1.0000
  H   H16       1.0  0.20917  0.70678  0.54463  1.0000
  H   H17       1.0  0.61497  0.62564  0.44927  1.0000
  H   H18       1.0  0.38502  0.37436  0.55073  1.0000
  H   H19       1.0  0.31251  0.28437  0.21467  1.0000
  H   H20       1.0  0.68749  0.71562  0.78533  1.0000
  H   H21       1.0  0.97984  0.80630  0.12994  1.0000
  H   H22       1.0  0.02017  0.19369  0.87006  1.0000
  H   H23       1.0  0.03552  0.66870  0.03812  1.0000
  H   H24       1.0  0.96449  0.33129  0.96188  1.0000
  H   H25       1.0  0.22441  0.33921  0.04067  1.0000
  H   H26       1.0  0.77561  0.66079  0.95933  1.0000
  H   H27       1.0  0.54101  0.69340  0.03701  1.0000
  H   H28       1.0  0.45899  0.30660  0.96299  1.0000
  H   H29       1.0  0.67556  0.36518  0.03586  1.0000
  H   H30       1.0  0.32444  0.63482  0.96414  1.0000
  H   H31       1.0  0.79636  0.17425  0.12742  1.0000
  H   H32       1.0  0.20363  0.82575  0.87258  1.0000
  H   H33       1.0  0.78529  0.31651  0.21637  1.0000
  H   H34       1.0  0.21471  0.68349  0.78363  1.0000
  H   H35       1.0  0.64490  0.64721  0.21010  1.0000
  H   H36       1.0  0.35510  0.35279  0.78990  1.0000
  H   H37       1.0  0.12466  0.61154  0.21982  1.0000
  H   H38       1.0  0.87534  0.38846  0.78018  1.0000
  H   H39       1.0  0.15225  0.59945  0.45987  1.0000
  H   H40       1.0  0.84775  0.40056  0.54013  1.0000
  C   C1        1.0  0.71587  0.00940  0.51089  1.0000
  C   C2        1.0  0.28413  0.99060  0.48911  1.0000
  C   C3        1.0  0.27846  0.98282  0.26077  1.0000
  C   C4        1.0  0.72154  0.01719  0.73922  1.0000
  C   C5        1.0  0.72960  0.98031  0.24015  1.0000
  C   C6        1.0  0.27039  0.01969  0.75985  1.0000
  C   C7        1.0  0.27635  0.99687  0.99019  1.0000
  C   C8        1.0  0.72365  0.00312  0.00981  1.0000
  C   C9        1.0  0.32057  0.35965  0.42106  1.0000
  C   C10       1.0  0.67943  0.64035  0.57894  1.0000
  C   C11       1.0  0.24674  0.64759  0.37652  1.0000
  C   C12       1.0  0.75326  0.35241  0.62348  1.0000
  C   C13       1.0  0.34687  0.56762  0.32955  1.0000
  C   C14       1.0  0.65312  0.43238  0.67044  1.0000
  C   C15       1.0  0.43089  0.38486  0.33113  1.0000
  C   C16       1.0  0.56910  0.61514  0.66887  1.0000
  C   C17       1.0  0.84272  0.58197  0.32960  1.0000
  C   C18       1.0  0.15728  0.41804  0.67040  1.0000
  C   C19       1.0  0.94415  0.39977  0.32932  1.0000
  C   C20       1.0  0.05584  0.60024  0.67068  1.0000
  C   C21       1.0  0.92783  0.29322  0.37521  1.0000
  C   C22       1.0  0.07216  0.70678  0.62479  1.0000
  C   C23       1.0  0.80860  0.37297  0.41934  1.0000
  C   C24       1.0  0.19140  0.62704  0.58066  1.0000
  C   C25       1.0  0.71168  0.55617  0.41627  1.0000
  C   C26       1.0  0.28832  0.44383  0.58373  1.0000
  C   C27       1.0  0.24810  0.37487  0.17666  1.0000
  C   C28       1.0  0.75190  0.62513  0.82334  1.0000
  C   C29       1.0  0.06434  0.66443  0.12921  1.0000
  C   C30       1.0  0.93567  0.33556  0.87079  1.0000
  C   C31       1.0  0.09357  0.58802  0.07819  1.0000
  C   C32       1.0  0.90644  0.41198  0.92181  1.0000
  C   C33       1.0  0.19972  0.40584  0.07927  1.0000
  C   C34       1.0  0.80029  0.59416  0.92073  1.0000
  C   C35       1.0  0.59720  0.60460  0.07574  1.0000
  C   C36       1.0  0.40280  0.39540  0.92426  1.0000
  C   C37       1.0  0.67108  0.42293  0.07533  1.0000
  C   C38       1.0  0.32891  0.57707  0.92468  1.0000
  C   C39       1.0  0.73955  0.31659  0.12630  1.0000
  C   C40       1.0  0.26045  0.68341  0.87370  1.0000
  C   C41       1.0  0.73188  0.39578  0.17585  1.0000
  C   C42       1.0  0.26812  0.60421  0.82415  1.0000
  C   C43       1.0  0.65511  0.57851  0.17260  1.0000
  C   C44       1.0  0.34488  0.42149  0.82740  1.0000
  C   C45       1.0  0.14321  0.55590  0.17933  1.0000
  C   C46       1.0  0.85679  0.44410  0.82067  1.0000
  C   C47       1.0  0.23285  0.54154  0.42294  1.0000
  C   C48       1.0  0.76715  0.45846  0.57706  1.0000
  S   S1        1.0  0.84545  0.93106  0.45626  1.0000
  S   S2        1.0  0.15455  0.06894  0.54374  1.0000
  S   S3        1.0  0.19695  0.95021  0.20195  1.0000
  S   S4        1.0  0.80305  0.04978  0.79805  1.0000
  S   S5        1.0  0.82100  0.00276  0.29906  1.0000
  S   S6        1.0  0.17901  0.99724  0.70094  1.0000
  S   S7        1.0  0.15816  0.02676  0.04889  1.0000
  S   S8        1.0  0.84185  0.97323  0.95111  1.0000
  N   N1        1.0  0.62377  0.06563  0.55122  1.0000
  N   N2        1.0  0.37623  0.93437  0.44878  1.0000
  N   N3        1.0  0.33481  0.00599  0.30420  1.0000
  N   N4        1.0  0.66519  0.99400  0.69580  1.0000
  N   N5        1.0  0.66655  0.96263  0.19703  1.0000
  N   N6        1.0  0.33346  0.03737  0.80297  1.0000
  N   N7        1.0  0.41888  0.28208  0.37604  1.0000
  N   N8        1.0  0.58112  0.71792  0.62396  1.0000
  N   N9        1.0  0.72866  0.65925  0.37232  1.0000
  N   N10       1.0  0.27134  0.34075  0.62768  1.0000
  N   N11       1.0  0.27572  0.30101  0.12751  1.0000
  N   N12       1.0  0.72428  0.69899  0.87249  1.0000
  N   N13       1.0  0.58911  0.68118  0.12350  1.0000
  N   N14       1.0  0.41089  0.31882  0.87650  1.0000
  N   N15       1.0  0.36024  0.97425  0.94713  1.0000
  N   N16       1.0  0.63977  0.02574  0.05287  1.0000
