data_image0
_chemical_formula_structural       Ag8H24C44N12O16F12
_chemical_formula_sum              "Ag8 H24 C44 N12 O16 F12"
_cell_length_a       7.29802
_cell_length_b       10.9422
_cell_length_c       17.0967
_cell_angle_alpha    90
_cell_angle_beta     90
_cell_angle_gamma    91.9932

_space_group_name_H-M_alt    "P 1"
_space_group_IT_number       1

loop_
  _space_group_symop_operation_xyz
  'x, y, z'

loop_
  _atom_site_type_symbol
  _atom_site_label
  _atom_site_symmetry_multiplicity
  _atom_site_fract_x
  _atom_site_fract_y
  _atom_site_fract_z
  _atom_site_occupancy
  Ag  Ag1       1.0  0.46261  0.74308  0.14832  1.0000
  Ag  Ag2       1.0  0.03740  0.25692  0.64832  1.0000
  Ag  Ag3       1.0  0.53740  0.25692  0.85169  1.0000
  Ag  Ag4       1.0  0.96260  0.74308  0.35169  1.0000
  Ag  Ag5       1.0  0.27408  0.00734  0.82857  1.0000
  Ag  Ag6       1.0  0.22592  0.99266  0.32857  1.0000
  Ag  Ag7       1.0  0.72591  0.99265  0.17143  1.0000
  Ag  Ag8       1.0  0.77408  0.00734  0.67143  1.0000
  H   H1        1.0  0.11035  0.16039  0.10147  1.0000
  H   H2        1.0  0.38965  0.83961  0.60147  1.0000
  H   H3        1.0  0.88964  0.83961  0.89853  1.0000
  H   H4        1.0  0.61035  0.16039  0.39853  1.0000
  H   H5        1.0  0.47945  0.74852  0.32147  1.0000
  H   H6        1.0  0.02056  0.25148  0.82146  1.0000
  H   H7        1.0  0.52057  0.25149  0.67854  1.0000
  H   H8        1.0  0.97945  0.74852  0.17854  1.0000
  H   H9        1.0  0.66621  0.40368  0.40629  1.0000
  H   H10       1.0  0.83380  0.59632  0.90629  1.0000
  H   H11       1.0  0.33380  0.59632  0.59371  1.0000
  H   H12       1.0  0.16620  0.40369  0.09371  1.0000
  H   H13       1.0  0.54420  0.61410  0.43291  1.0000
  H   H14       1.0  0.95581  0.38590  0.93291  1.0000
  H   H15       1.0  0.45582  0.38590  0.56709  1.0000
  H   H16       1.0  0.04420  0.61411  0.06709  1.0000
  H   H17       1.0  0.64862  0.49179  0.16054  1.0000
  H   H18       1.0  0.85138  0.50821  0.66054  1.0000
  H   H19       1.0  0.35138  0.50821  0.83946  1.0000
  H   H20       1.0  0.14862  0.49179  0.33946  1.0000
  H   H21       1.0  0.71802  0.34295  0.26648  1.0000
  H   H22       1.0  0.78198  0.65705  0.76648  1.0000
  H   H23       1.0  0.28198  0.65706  0.73352  1.0000
  H   H24       1.0  0.21801  0.34295  0.23352  1.0000
  C   C1        1.0  0.23422  0.02186  0.00641  1.0000
  C   C2        1.0  0.26579  0.97814  0.50641  1.0000
  C   C3        1.0  0.76577  0.97813  0.99359  1.0000
  C   C4        1.0  0.73422  0.02186  0.49359  1.0000
  C   C5        1.0  0.53468  0.65902  0.31131  1.0000
  C   C6        1.0  0.96533  0.34098  0.81130  1.0000
  C   C7        1.0  0.46533  0.34098  0.68870  1.0000
  C   C8        1.0  0.03467  0.65903  0.18870  1.0000
  C   C9        1.0  0.63863  0.46673  0.35875  1.0000
  C   C10       1.0  0.86138  0.53327  0.85875  1.0000
  C   C11       1.0  0.36138  0.53327  0.64125  1.0000
  C   C12       1.0  0.13862  0.46673  0.14125  1.0000
  C   C13       1.0  0.26220  0.96045  0.07741  1.0000
  C   C14       1.0  0.23780  0.03955  0.57741  1.0000
  C   C15       1.0  0.73779  0.03954  0.92259  1.0000
  C   C16       1.0  0.76220  0.96045  0.42259  1.0000
  C   C17       1.0  0.57146  0.58211  0.37387  1.0000
  C   C18       1.0  0.92855  0.41789  0.87387  1.0000
  C   C19       1.0  0.42855  0.41789  0.62613  1.0000
  C   C20       1.0  0.07146  0.58212  0.12613  1.0000
  C   C21       1.0  0.62783  0.51455  0.22168  1.0000
  C   C22       1.0  0.87217  0.48545  0.72168  1.0000
  C   C23       1.0  0.37217  0.48545  0.77832  1.0000
  C   C24       1.0  0.12783  0.51455  0.27832  1.0000
  C   C25       1.0  0.66731  0.43264  0.28109  1.0000
  C   C26       1.0  0.83270  0.56736  0.78109  1.0000
  C   C27       1.0  0.33270  0.56736  0.71891  1.0000
  C   C28       1.0  0.16730  0.43264  0.21890  1.0000
  C   C29       1.0  0.34744  0.84624  0.98199  1.0000
  C   C30       1.0  0.15256  0.15376  0.48199  1.0000
  C   C31       1.0  0.65256  0.15375  0.01801  1.0000
  C   C32       1.0  0.84744  0.84625  0.51801  1.0000
  C   C33       1.0  0.16618  0.14475  0.98868  1.0000
  C   C34       1.0  0.33381  0.85524  0.48868  1.0000
  C   C35       1.0  0.83381  0.85523  0.01132  1.0000
  C   C36       1.0  0.66620  0.14476  0.51132  1.0000
  C   C37       1.0  0.39916  0.73485  0.93741  1.0000
  C   C38       1.0  0.10083  0.26515  0.43742  1.0000
  C   C39       1.0  0.60083  0.26514  0.06259  1.0000
  C   C40       1.0  0.89916  0.73486  0.56259  1.0000
  C   C41       1.0  0.22269  0.99785  0.15858  1.0000
  C   C42       1.0  0.27732  0.00215  0.65858  1.0000
  C   C43       1.0  0.77730  0.00214  0.84142  1.0000
  C   C44       1.0  0.72268  0.99785  0.34142  1.0000
  N   N1        1.0  0.33608  0.84990  0.06058  1.0000
  N   N2        1.0  0.16393  0.15010  0.56058  1.0000
  N   N3        1.0  0.66392  0.15010  0.93942  1.0000
  N   N4        1.0  0.83607  0.84990  0.43942  1.0000
  N   N5        1.0  0.56179  0.62608  0.23629  1.0000
  N   N6        1.0  0.93822  0.37392  0.73629  1.0000
  N   N7        1.0  0.43822  0.37393  0.76371  1.0000
  N   N8        1.0  0.06178  0.62608  0.26371  1.0000
  N   N9        1.0  0.28954  0.94777  0.94676  1.0000
  N   N10       1.0  0.21046  0.05222  0.44676  1.0000
  N   N11       1.0  0.71045  0.05221  0.05325  1.0000
  N   N12       1.0  0.78954  0.94778  0.55324  1.0000
  O   O1        1.0  0.10035  0.20855  0.04696  1.0000
  O   O2        1.0  0.39965  0.79144  0.54696  1.0000
  O   O3        1.0  0.89964  0.79144  0.95303  1.0000
  O   O4        1.0  0.60035  0.20856  0.45304  1.0000
  O   O5        1.0  0.17249  0.18625  0.92117  1.0000
  O   O6        1.0  0.32748  0.81374  0.42118  1.0000
  O   O7        1.0  0.82751  0.81374  0.07882  1.0000
  O   O8        1.0  0.67252  0.18626  0.57883  1.0000
  O   O9        1.0  0.13749  0.09574  0.17075  1.0000
  O   O10       1.0  0.36251  0.90426  0.67075  1.0000
  O   O11       1.0  0.86249  0.90426  0.82924  1.0000
  O   O12       1.0  0.63749  0.09574  0.32925  1.0000
  O   O13       1.0  0.27523  0.92748  0.21322  1.0000
  O   O14       1.0  0.22478  0.07252  0.71323  1.0000
  O   O15       1.0  0.72477  0.07252  0.78677  1.0000
  O   O16       1.0  0.77522  0.92748  0.28677  1.0000
  F   F1        1.0  0.48822  0.76398  0.86949  1.0000
  F   F2        1.0  0.01177  0.23602  0.36949  1.0000
  F   F3        1.0  0.51178  0.23600  0.13051  1.0000
  F   F4        1.0  0.98822  0.76399  0.63051  1.0000
  F   F5        1.0  0.50879  0.66119  0.97971  1.0000
  F   F6        1.0  0.99121  0.33881  0.47971  1.0000
  F   F7        1.0  0.49119  0.33880  0.02030  1.0000
  F   F8        1.0  0.00878  0.66119  0.52030  1.0000
  F   F9        1.0  0.24738  0.66404  0.91701  1.0000
  F   F10       1.0  0.25262  0.33596  0.41701  1.0000
  F   F11       1.0  0.75261  0.33596  0.08299  1.0000
  F   F12       1.0  0.74737  0.66405  0.58300  1.0000
