data_image0
_chemical_formula_structural       Ag3H42C45S6N3
_chemical_formula_sum              "Ag3 H42 C45 S6 N3"
_cell_length_a       4.83225
_cell_length_b       15.5389
_cell_length_c       15.541
_cell_angle_alpha    120.023
_cell_angle_beta     90.0033
_cell_angle_gamma    89.9997

_space_group_name_H-M_alt    "P 1"
_space_group_IT_number       1

loop_
  _space_group_symop_operation_xyz
  'x, y, z'

loop_
  _atom_site_type_symbol
  _atom_site_label
  _atom_site_symmetry_multiplicity
  _atom_site_fract_x
  _atom_site_fract_y
  _atom_site_fract_z
  _atom_site_occupancy
  Ag  Ag1       1.0  0.08785  0.06714  0.10516  1.0000
  Ag  Ag2       1.0  0.42147  0.89487  0.96195  1.0000
  Ag  Ag3       1.0  0.75464  0.03807  0.93289  1.0000
  H   H1        1.0  0.05406  0.97761  0.32753  1.0000
  H   H2        1.0  0.38780  0.67235  0.64995  1.0000
  H   H3        1.0  0.72088  0.35003  0.02245  1.0000
  H   H4        1.0  0.96840  0.08659  0.32275  1.0000
  H   H5        1.0  0.30232  0.67719  0.76376  1.0000
  H   H6        1.0  0.63525  0.23617  0.91348  1.0000
  H   H7        1.0  0.10809  0.00765  0.48898  1.0000
  H   H8        1.0  0.44199  0.51084  0.51853  1.0000
  H   H9        1.0  0.77528  0.48134  0.99232  1.0000
  H   H10       1.0  0.97188  0.09279  0.66676  1.0000
  H   H11       1.0  0.30562  0.33304  0.42577  1.0000
  H   H12       1.0  0.63943  0.57392  0.90715  1.0000
  H   H13       1.0  0.58428  0.21516  0.72694  1.0000
  H   H14       1.0  0.91787  0.27290  0.48786  1.0000
  H   H15       1.0  0.25177  0.51176  0.78480  1.0000
  H   H16       1.0  0.32920  0.24890  0.60811  1.0000
  H   H17       1.0  0.66296  0.39176  0.64053  1.0000
  H   H18       1.0  0.99636  0.35921  0.75112  1.0000
  H   H19       1.0  0.46500  0.16302  0.42982  1.0000
  H   H20       1.0  0.79894  0.57009  0.73307  1.0000
  H   H21       1.0  0.13183  0.26685  0.83704  1.0000
  H   H22       1.0  0.38083  0.86210  0.22942  1.0000
  H   H23       1.0  0.71434  0.77028  0.63259  1.0000
  H   H24       1.0  0.04735  0.36753  0.13780  1.0000
  H   H25       1.0  0.54804  0.90433  0.34571  1.0000
  H   H26       1.0  0.88210  0.65410  0.55851  1.0000
  H   H27       1.0  0.21505  0.44155  0.09568  1.0000
  H   H28       1.0  0.90935  0.80652  0.35436  1.0000
  H   H29       1.0  0.24344  0.64569  0.45215  1.0000
  H   H30       1.0  0.57634  0.54805  0.19375  1.0000
  H   H31       1.0  0.24736  0.66904  0.27183  1.0000
  H   H32       1.0  0.58091  0.72849  0.39742  1.0000
  H   H33       1.0  0.91418  0.60279  0.33121  1.0000
  H   H34       1.0  0.32889  0.58971  0.08882  1.0000
  H   H35       1.0  0.66155  0.91156  0.50123  1.0000
  H   H36       1.0  0.99525  0.49896  0.41032  1.0000
  H   H37       1.0  0.06727  0.64770  0.99036  1.0000
  H   H38       1.0  0.39962  0.00988  0.65774  1.0000
  H   H39       1.0  0.73316  0.34248  0.35213  1.0000
  H   H40       1.0  0.71846  0.78240  0.07231  1.0000
  H   H41       1.0  0.05122  0.92765  0.71026  1.0000
  H   H42       1.0  0.38446  0.28993  0.21744  1.0000
  C   C1        1.0  0.54810  0.01028  0.21308  1.0000
  C   C2        1.0  0.88180  0.78681  0.79717  1.0000
  C   C3        1.0  0.21484  0.20287  0.98976  1.0000
  C   C4        1.0  0.88857  0.03132  0.34086  1.0000
  C   C5        1.0  0.22241  0.65904  0.69038  1.0000
  C   C6        1.0  0.55541  0.30958  0.96872  1.0000
  C   C7        1.0  0.79611  0.07996  0.44777  1.0000
  C   C8        1.0  0.12999  0.55209  0.63205  1.0000
  C   C9        1.0  0.46310  0.36784  0.92006  1.0000
  C   C10       1.0  0.93667  0.06050  0.51498  1.0000
  C   C11       1.0  0.27051  0.48486  0.54535  1.0000
  C   C12       1.0  0.60381  0.45448  0.93949  1.0000
  C   C13       1.0  0.86154  0.10892  0.61520  1.0000
  C   C14       1.0  0.19528  0.38463  0.49347  1.0000
  C   C15       1.0  0.52884  0.50629  0.89108  1.0000
  C   C16       1.0  0.64430  0.17719  0.64892  1.0000
  C   C17       1.0  0.97794  0.35094  0.52799  1.0000
  C   C18       1.0  0.31153  0.47173  0.82282  1.0000
  C   C19       1.0  0.50061  0.19624  0.58210  1.0000
  C   C20       1.0  0.83436  0.41777  0.61390  1.0000
  C   C21       1.0  0.16772  0.38589  0.80380  1.0000
  C   C22       1.0  0.57527  0.14769  0.48205  1.0000
  C   C23       1.0  0.90912  0.51784  0.66549  1.0000
  C   C24       1.0  0.24222  0.33439  0.85235  1.0000
  C   C25       1.0  0.57999  0.88540  0.26808  1.0000
  C   C26       1.0  0.91370  0.73177  0.61728  1.0000
  C   C27       1.0  0.24669  0.38283  0.11459  1.0000
  C   C28       1.0  0.78813  0.80250  0.21854  1.0000
  C   C29       1.0  0.12155  0.78145  0.58402  1.0000
  C   C30       1.0  0.45465  0.41615  0.19754  1.0000
  C   C31       1.0  0.93879  0.77021  0.27406  1.0000
  C   C32       1.0  0.27245  0.72605  0.49624  1.0000
  C   C33       1.0  0.60550  0.50395  0.22995  1.0000
  C   C34       1.0  0.13024  0.69296  0.22763  1.0000
  C   C35       1.0  0.46364  0.77261  0.46553  1.0000
  C   C36       1.0  0.79688  0.53469  0.30721  1.0000
  C   C37       1.0  0.17559  0.64851  0.12557  1.0000
  C   C38       1.0  0.50850  0.87474  0.52325  1.0000
  C   C39       1.0  0.84193  0.47697  0.35155  1.0000
  C   C40       1.0  0.02803  0.68106  0.06981  1.0000
  C   C41       1.0  0.36075  0.93038  0.61154  1.0000
  C   C42       1.0  0.69415  0.38868  0.31888  1.0000
  C   C43       1.0  0.83380  0.75707  0.11588  1.0000
  C   C44       1.0  0.16676  0.88417  0.64136  1.0000
  C   C45       1.0  0.49999  0.35883  0.24288  1.0000
  S   S1        1.0  0.29073  0.93534  0.12959  1.0000
  S   S2        1.0  0.62443  0.87029  0.80570  1.0000
  S   S3        1.0  0.95753  0.19437  0.06471  1.0000
  S   S4        1.0  0.63347  0.12160  0.22370  1.0000
  S   S5        1.0  0.96711  0.77626  0.89788  1.0000
  S   S6        1.0  0.30015  0.10207  0.87847  1.0000
  N   N1        1.0  0.66597  0.97719  0.26985  1.0000
  N   N2        1.0  0.99974  0.73003  0.70729  1.0000
  N   N3        1.0  0.33271  0.29276  0.02282  1.0000
