data_image0
_chemical_formula_structural       Cd4H16C16O24
_chemical_formula_sum              "Cd4 H16 C16 O24"
_cell_length_a       6.2587
_cell_length_b       8.31063
_cell_length_c       12.0837
_cell_angle_alpha    89.9996
_cell_angle_beta     89.9997
_cell_angle_gamma    103.177

_space_group_name_H-M_alt    "P 1"
_space_group_IT_number       1

loop_
  _space_group_symop_operation_xyz
  'x, y, z'

loop_
  _atom_site_type_symbol
  _atom_site_label
  _atom_site_symmetry_multiplicity
  _atom_site_fract_x
  _atom_site_fract_y
  _atom_site_fract_z
  _atom_site_occupancy
  Cd  Cd1       1.0  0.29368  0.76913  0.63084  1.0000
  Cd  Cd2       1.0  0.20632  0.23087  0.13084  1.0000
  Cd  Cd3       1.0  0.70632  0.23087  0.36916  1.0000
  Cd  Cd4       1.0  0.79368  0.76913  0.86916  1.0000
  H   H1        1.0  0.23173  0.95852  0.44245  1.0000
  H   H2        1.0  0.26827  0.04148  0.94245  1.0000
  H   H3        1.0  0.76828  0.04148  0.55755  1.0000
  H   H4        1.0  0.73172  0.95852  0.05754  1.0000
  H   H5        1.0  0.18130  0.76563  0.40215  1.0000
  H   H6        1.0  0.31870  0.23438  0.90215  1.0000
  H   H7        1.0  0.81870  0.23438  0.59785  1.0000
  H   H8        1.0  0.68130  0.76562  0.09785  1.0000
  H   H9        1.0  0.32550  0.74148  0.86043  1.0000
  H   H10       1.0  0.17450  0.25852  0.36043  1.0000
  H   H11       1.0  0.67450  0.25852  0.13957  1.0000
  H   H12       1.0  0.82550  0.74148  0.63957  1.0000
  H   H13       1.0  0.37046  0.56879  0.81011  1.0000
  H   H14       1.0  0.12955  0.43121  0.31011  1.0000
  H   H15       1.0  0.62954  0.43121  0.18989  1.0000
  H   H16       1.0  0.87046  0.56879  0.68989  1.0000
  C   C1        1.0  0.29970  0.38610  0.59241  1.0000
  C   C2        1.0  0.20030  0.61389  0.09241  1.0000
  C   C3        1.0  0.70030  0.61391  0.40759  1.0000
  C   C4        1.0  0.79970  0.38611  0.90759  1.0000
  C   C5        1.0  0.31837  0.31960  0.70432  1.0000
  C   C6        1.0  0.18162  0.68038  0.20432  1.0000
  C   C7        1.0  0.68163  0.68040  0.29569  1.0000
  C   C8        1.0  0.81838  0.31961  0.79568  1.0000
  C   C9        1.0  0.32781  0.15824  0.65685  1.0000
  C   C10       1.0  0.17219  0.84176  0.15686  1.0000
  C   C11       1.0  0.67219  0.84175  0.34315  1.0000
  C   C12       1.0  0.82781  0.15824  0.84314  1.0000
  C   C13       1.0  0.31385  0.22613  0.54517  1.0000
  C   C14       1.0  0.18614  0.77386  0.04516  1.0000
  C   C15       1.0  0.68615  0.77387  0.45483  1.0000
  C   C16       1.0  0.81385  0.22613  0.95484  1.0000
  O   O1        1.0  0.27821  0.52030  0.55105  1.0000
  O   O2        1.0  0.22178  0.47970  0.05105  1.0000
  O   O3        1.0  0.72179  0.47970  0.44895  1.0000
  O   O4        1.0  0.77822  0.52029  0.94895  1.0000
  O   O5        1.0  0.32574  0.37573  0.80170  1.0000
  O   O6        1.0  0.17427  0.62427  0.30170  1.0000
  O   O7        1.0  0.67426  0.62427  0.19829  1.0000
  O   O8        1.0  0.82574  0.37573  0.69830  1.0000
  O   O9        1.0  0.34589  0.02477  0.70118  1.0000
  O   O10       1.0  0.15411  0.97522  0.20118  1.0000
  O   O11       1.0  0.65411  0.97524  0.29881  1.0000
  O   O12       1.0  0.84589  0.02477  0.79882  1.0000
  O   O13       1.0  0.31776  0.17202  0.44613  1.0000
  O   O14       1.0  0.18224  0.82798  0.94613  1.0000
  O   O15       1.0  0.68224  0.82799  0.55388  1.0000
  O   O16       1.0  0.81776  0.17201  0.05387  1.0000
  O   O17       1.0  0.17630  0.84169  0.46567  1.0000
  O   O18       1.0  0.32370  0.15831  0.96568  1.0000
  O   O19       1.0  0.82370  0.15832  0.53432  1.0000
  O   O20       1.0  0.67629  0.84169  0.03432  1.0000
  O   O21       1.0  0.41531  0.69500  0.80411  1.0000
  O   O22       1.0  0.08469  0.30500  0.30411  1.0000
  O   O23       1.0  0.58469  0.30500  0.19589  1.0000
  O   O24       1.0  0.91531  0.69500  0.69589  1.0000
