data_image0
_chemical_formula_structural       Zn2H32C32N8O14
_chemical_formula_sum              "Zn2 H32 C32 N8 O14"
_cell_length_a       6.79213
_cell_length_b       9.25835
_cell_length_c       14.682
_cell_angle_alpha    87.5814
_cell_angle_beta     79.7707
_cell_angle_gamma    68.0907

_space_group_name_H-M_alt    "P 1"
_space_group_IT_number       1

loop_
  _space_group_symop_operation_xyz
  'x, y, z'

loop_
  _atom_site_type_symbol
  _atom_site_label
  _atom_site_symmetry_multiplicity
  _atom_site_fract_x
  _atom_site_fract_y
  _atom_site_fract_z
  _atom_site_occupancy
  Zn  Zn1       1.0  0.49998  0.50000  0.50000  1.0000
  Zn  Zn2       1.0  0.00001  0.49999  0.00000  1.0000
  H   H1        1.0  0.92287  0.93284  0.57222  1.0000
  H   H2        1.0  0.07711  0.06718  0.42778  1.0000
  H   H3        1.0  0.73627  0.00989  0.90349  1.0000
  H   H4        1.0  0.26372  0.99012  0.09650  1.0000
  H   H5        1.0  0.50675  0.52996  0.70211  1.0000
  H   H6        1.0  0.49326  0.47004  0.29789  1.0000
  H   H7        1.0  0.40577  0.73677  0.82093  1.0000
  H   H8        1.0  0.59425  0.26321  0.17907  1.0000
  H   H9        1.0  0.32373  0.06698  0.59863  1.0000
  H   H10       1.0  0.67625  0.93302  0.40137  1.0000
  H   H11       1.0  0.44479  0.84094  0.48926  1.0000
  H   H12       1.0  0.55518  0.15905  0.51075  1.0000
  H   H13       1.0  0.20013  0.44001  0.80211  1.0000
  H   H14       1.0  0.79989  0.55998  0.19789  1.0000
  H   H15       1.0  0.33361  0.22543  0.68665  1.0000
  H   H16       1.0  0.66638  0.77456  0.31335  1.0000
  H   H17       1.0  0.23040  0.92412  0.90981  1.0000
  H   H18       1.0  0.76960  0.07587  0.09019  1.0000
  H   H19       1.0  0.09344  0.15823  0.01526  1.0000
  H   H20       1.0  0.90657  0.84176  0.98474  1.0000
  H   H21       1.0  0.90477  0.39352  0.38336  1.0000
  H   H22       1.0  0.09522  0.60649  0.61663  1.0000
  H   H23       1.0  0.91152  0.38749  0.48874  1.0000
  H   H24       1.0  0.08845  0.61253  0.51125  1.0000
  H   H25       1.0  0.39942  0.47665  0.93377  1.0000
  H   H26       1.0  0.60060  0.52336  0.06623  1.0000
  H   H27       1.0  0.30635  0.62564  0.99900  1.0000
  H   H28       1.0  0.69365  0.37437  0.00100  1.0000
  H   H29       1.0  0.78434  0.53856  0.85376  1.0000
  H   H30       1.0  0.21566  0.46143  0.14625  1.0000
  H   H31       1.0  0.83334  0.69719  0.85337  1.0000
  H   H32       1.0  0.16664  0.30280  0.14663  1.0000
  C   C1        1.0  0.88306  0.95837  0.64671  1.0000
  C   C2        1.0  0.11693  0.04164  0.35329  1.0000
  C   C3        1.0  0.81905  0.11193  0.68174  1.0000
  C   C4        1.0  0.18095  0.88807  0.31826  1.0000
  C   C5        1.0  0.77198  0.13215  0.77781  1.0000
  C   C6        1.0  0.22803  0.86786  0.22219  1.0000
  C   C7        1.0  0.78430  0.99824  0.82845  1.0000
  C   C8        1.0  0.21570  0.00177  0.17155  1.0000
  C   C9        1.0  0.80073  0.24069  0.61321  1.0000
  C   C10       1.0  0.19926  0.75931  0.38678  1.0000
  C   C11       1.0  0.71467  0.28519  0.82979  1.0000
  C   C12       1.0  0.28535  0.71481  0.17021  1.0000
  C   C13       1.0  0.46726  0.65066  0.68246  1.0000
  C   C14       1.0  0.53275  0.34934  0.31755  1.0000
  C   C15       1.0  0.41090  0.76866  0.74855  1.0000
  C   C16       1.0  0.58913  0.23133  0.25145  1.0000
  C   C17       1.0  0.36044  0.92281  0.72040  1.0000
  C   C18       1.0  0.63955  0.07719  0.27961  1.0000
  C   C19       1.0  0.37376  0.94947  0.62503  1.0000
  C   C20       1.0  0.62622  0.05052  0.37497  1.0000
  C   C21       1.0  0.43489  0.82474  0.56351  1.0000
  C   C22       1.0  0.56511  0.17526  0.43649  1.0000
  C   C23       1.0  0.21022  0.32340  0.82272  1.0000
  C   C24       1.0  0.78978  0.67659  0.17728  1.0000
  C   C25       1.0  0.28346  0.20159  0.75834  1.0000
  C   C26       1.0  0.71652  0.79841  0.24166  1.0000
  C   C27       1.0  0.29119  0.05376  0.78743  1.0000
  C   C28       1.0  0.70880  0.94624  0.21257  1.0000
  C   C29       1.0  0.22707  0.03606  0.88237  1.0000
  C   C30       1.0  0.77293  0.96393  0.11764  1.0000
  C   C31       1.0  0.15307  0.16477  0.94187  1.0000
  C   C32       1.0  0.84694  0.83523  0.05813  1.0000
  N   N1        1.0  0.84976  0.85550  0.79130  1.0000
  N   N2        1.0  0.15023  0.14451  0.20870  1.0000
  N   N3        1.0  0.90313  0.83413  0.69905  1.0000
  N   N4        1.0  0.09687  0.16588  0.30095  1.0000
  N   N5        1.0  0.47853  0.67738  0.59124  1.0000
  N   N6        1.0  0.52147  0.32261  0.40876  1.0000
  N   N7        1.0  0.14352  0.30628  0.91273  1.0000
  N   N8        1.0  0.85649  0.69371  0.08727  1.0000
  O   O1        1.0  0.60767  0.32703  0.60577  1.0000
  O   O2        1.0  0.39233  0.67297  0.39422  1.0000
  O   O3        1.0  0.97331  0.24264  0.56588  1.0000
  O   O4        1.0  0.02668  0.75736  0.43412  1.0000
  O   O5        1.0  0.62362  0.29180  0.91462  1.0000
  O   O6        1.0  0.37638  0.70822  0.08537  1.0000
  O   O7        1.0  0.76364  0.39060  0.78640  1.0000
  O   O8        1.0  0.23639  0.60941  0.21359  1.0000
  O   O9        1.0  0.84083  0.45818  0.44031  1.0000
  O   O10       1.0  0.15914  0.54183  0.55968  1.0000
  O   O11       1.0  0.27278  0.57613  0.94755  1.0000
  O   O12       1.0  0.72723  0.42387  0.05245  1.0000
  O   O13       1.0  0.81024  0.61207  0.89350  1.0000
  O   O14       1.0  0.18976  0.38792  0.10651  1.0000
