data_image0
_chemical_formula_structural       Cd4H24C48O16
_chemical_formula_sum              "Cd4 H24 C48 O16"
_cell_length_a       5.73146
_cell_length_b       10.9162
_cell_length_c       15.0716
_cell_angle_alpha    94.8069
_cell_angle_beta     89.9993
_cell_angle_gamma    90.0002

_space_group_name_H-M_alt    "P 1"
_space_group_IT_number       1

loop_
  _space_group_symop_operation_xyz
  'x, y, z'

loop_
  _atom_site_type_symbol
  _atom_site_label
  _atom_site_symmetry_multiplicity
  _atom_site_fract_x
  _atom_site_fract_y
  _atom_site_fract_z
  _atom_site_occupancy
  Cd  Cd1       1.0  0.92737  0.63597  0.03461  1.0000
  Cd  Cd2       1.0  0.42738  0.86403  0.96538  1.0000
  Cd  Cd3       1.0  0.07263  0.36403  0.96538  1.0000
  Cd  Cd4       1.0  0.57264  0.13596  0.03461  1.0000
  H   H1        1.0  0.96985  0.40662  0.72145  1.0000
  H   H2        1.0  0.46984  0.09338  0.27855  1.0000
  H   H3        1.0  0.03015  0.59339  0.27855  1.0000
  H   H4        1.0  0.53016  0.90661  0.72145  1.0000
  H   H5        1.0  0.96485  0.44569  0.56141  1.0000
  H   H6        1.0  0.46484  0.05431  0.43860  1.0000
  H   H7        1.0  0.03515  0.55432  0.43859  1.0000
  H   H8        1.0  0.53516  0.94569  0.56140  1.0000
  H   H9        1.0  0.67063  0.58920  0.50621  1.0000
  H   H10       1.0  0.17063  0.91080  0.49380  1.0000
  H   H11       1.0  0.32936  0.41080  0.49379  1.0000
  H   H12       1.0  0.82938  0.08921  0.50621  1.0000
  H   H13       1.0  0.33177  0.71836  0.53082  1.0000
  H   H14       1.0  0.83176  0.78163  0.46918  1.0000
  H   H15       1.0  0.66821  0.28164  0.46918  1.0000
  H   H16       1.0  0.16824  0.21837  0.53083  1.0000
  H   H17       1.0  0.03292  0.82015  0.63289  1.0000
  H   H18       1.0  0.53293  0.67984  0.36711  1.0000
  H   H19       1.0  0.96706  0.17985  0.36710  1.0000
  H   H20       1.0  0.46707  0.32016  0.63290  1.0000
  H   H21       1.0  0.02134  0.77478  0.79139  1.0000
  H   H22       1.0  0.52134  0.72521  0.20862  1.0000
  H   H23       1.0  0.97865  0.22522  0.20862  1.0000
  H   H24       1.0  0.47867  0.27478  0.79139  1.0000
  C   C1        1.0  0.67750  0.52187  0.75650  1.0000
  C   C2        1.0  0.17750  0.97812  0.24350  1.0000
  C   C3        1.0  0.32248  0.47813  0.24349  1.0000
  C   C4        1.0  0.82250  0.02187  0.75650  1.0000
  C   C5        1.0  0.83652  0.46600  0.69658  1.0000
  C   C6        1.0  0.33652  0.03399  0.30342  1.0000
  C   C7        1.0  0.16347  0.53400  0.30342  1.0000
  C   C8        1.0  0.66348  0.96600  0.69658  1.0000
  C   C9        1.0  0.83468  0.48936  0.60619  1.0000
  C   C10       1.0  0.33468  0.01064  0.39381  1.0000
  C   C11       1.0  0.16531  0.51065  0.39380  1.0000
  C   C12       1.0  0.66533  0.98936  0.60619  1.0000
  C   C13       1.0  0.67257  0.56903  0.57585  1.0000
  C   C14       1.0  0.17257  0.93097  0.42415  1.0000
  C   C15       1.0  0.32741  0.43097  0.42415  1.0000
  C   C16       1.0  0.82743  0.06903  0.57585  1.0000
  C   C17       1.0  0.33045  0.70417  0.60169  1.0000
  C   C18       1.0  0.83045  0.79582  0.39831  1.0000
  C   C19       1.0  0.66952  0.29583  0.39830  1.0000
  C   C20       1.0  0.16955  0.20418  0.60170  1.0000
  C   C21       1.0  0.16517  0.75989  0.65775  1.0000
  C   C22       1.0  0.66517  0.74010  0.34225  1.0000
  C   C23       1.0  0.83481  0.24011  0.34225  1.0000
  C   C24       1.0  0.33483  0.25990  0.65775  1.0000
  C   C25       1.0  0.15971  0.73546  0.74819  1.0000
  C   C26       1.0  0.65971  0.76454  0.25181  1.0000
  C   C27       1.0  0.84027  0.26455  0.25181  1.0000
  C   C28       1.0  0.34029  0.23546  0.74820  1.0000
  C   C29       1.0  0.31949  0.65539  0.78153  1.0000
  C   C30       1.0  0.81950  0.84461  0.21847  1.0000
  C   C31       1.0  0.68049  0.34461  0.21847  1.0000
  C   C32       1.0  0.18051  0.15538  0.78153  1.0000
  C   C33       1.0  0.50041  0.60059  0.72632  1.0000
  C   C34       1.0  0.00041  0.89941  0.27368  1.0000
  C   C35       1.0  0.49957  0.39941  0.27368  1.0000
  C   C36       1.0  0.99960  0.10059  0.72632  1.0000
  C   C37       1.0  0.50186  0.62519  0.63408  1.0000
  C   C38       1.0  0.00186  0.87481  0.36592  1.0000
  C   C39       1.0  0.49813  0.37482  0.36592  1.0000
  C   C40       1.0  0.99815  0.12519  0.63408  1.0000
  C   C41       1.0  0.72828  0.50487  0.85255  1.0000
  C   C42       1.0  0.22829  0.99512  0.14745  1.0000
  C   C43       1.0  0.27172  0.49513  0.14745  1.0000
  C   C44       1.0  0.77174  0.00486  0.85254  1.0000
  C   C45       1.0  0.26502  0.61323  0.87112  1.0000
  C   C46       1.0  0.76503  0.88677  0.12888  1.0000
  C   C47       1.0  0.73498  0.38677  0.12888  1.0000
  C   C48       1.0  0.23499  0.11323  0.87111  1.0000
  O   O1        1.0  0.72760  0.60172  0.90636  1.0000
  O   O2        1.0  0.22760  0.89828  0.09364  1.0000
  O   O3        1.0  0.27240  0.39831  0.09364  1.0000
  O   O4        1.0  0.77241  0.10169  0.90636  1.0000
  O   O5        1.0  0.78664  0.39741  0.87060  1.0000
  O   O6        1.0  0.28664  0.10259  0.12940  1.0000
  O   O7        1.0  0.21338  0.60261  0.12940  1.0000
  O   O8        1.0  0.71338  0.89738  0.87059  1.0000
  O   O9        1.0  0.25137  0.49927  0.87697  1.0000
  O   O10       1.0  0.75137  0.00073  0.12304  1.0000
  O   O11       1.0  0.74866  0.50075  0.12304  1.0000
  O   O12       1.0  0.24867  0.99925  0.87696  1.0000
  O   O13       1.0  0.21285  0.69520  0.93534  1.0000
  O   O14       1.0  0.71285  0.80480  0.06466  1.0000
  O   O15       1.0  0.78715  0.30480  0.06466  1.0000
  O   O16       1.0  0.28715  0.19519  0.93534  1.0000
