data_image0
_chemical_formula_structural       Nd2H10C20O18
_chemical_formula_sum              "Nd2 H10 C20 O18"
_cell_length_a       6.33221
_cell_length_b       9.38806
_cell_length_c       9.64881
_cell_angle_alpha    87.9098
_cell_angle_beta     74.0202
_cell_angle_gamma    76.7629

_space_group_name_H-M_alt    "P 1"
_space_group_IT_number       1

loop_
  _space_group_symop_operation_xyz
  'x, y, z'

loop_
  _atom_site_type_symbol
  _atom_site_label
  _atom_site_symmetry_multiplicity
  _atom_site_fract_x
  _atom_site_fract_y
  _atom_site_fract_z
  _atom_site_occupancy
  Nd  Nd1       1.0  0.84774  0.44084  0.22078  1.0000
  Nd  Nd2       1.0  0.15226  0.55916  0.77922  1.0000
  H   H1        1.0  0.01531  0.92179  0.76237  1.0000
  H   H2        1.0  0.98468  0.07821  0.23762  1.0000
  H   H3        1.0  0.29910  0.55050  0.14113  1.0000
  H   H4        1.0  0.70090  0.44950  0.85887  1.0000
  H   H5        1.0  0.17266  0.59508  0.30295  1.0000
  H   H6        1.0  0.82734  0.40492  0.69704  1.0000
  H   H7        1.0  0.32159  0.84265  0.39065  1.0000
  H   H8        1.0  0.67840  0.15735  0.60935  1.0000
  H   H9        1.0  0.79101  0.93476  0.13255  1.0000
  H   H10       1.0  0.20899  0.06523  0.86745  1.0000
  C   C1        1.0  0.83161  0.87440  0.65027  1.0000
  C   C2        1.0  0.16839  0.12561  0.34972  1.0000
  C   C3        1.0  0.66193  0.93646  0.57138  1.0000
  C   C4        1.0  0.33807  0.06354  0.42862  1.0000
  C   C5        1.0  0.39888  0.91108  0.44075  1.0000
  C   C6        1.0  0.60112  0.08892  0.55925  1.0000
  C   C7        1.0  0.55981  0.84492  0.51122  1.0000
  C   C8        1.0  0.44019  0.15508  0.48878  1.0000
  C   C9        1.0  0.60781  0.67898  0.51923  1.0000
  C   C10       1.0  0.39219  0.32102  0.48076  1.0000
  C   C11       1.0  0.69170  0.22280  0.08678  1.0000
  C   C12       1.0  0.30830  0.77720  0.91322  1.0000
  C   C13       1.0  0.59300  0.10922  0.04019  1.0000
  C   C14       1.0  0.40700  0.89078  0.95981  1.0000
  C   C15       1.0  0.42768  0.14590  0.96518  1.0000
  C   C16       1.0  0.57233  0.85410  0.03482  1.0000
  C   C17       1.0  0.34560  0.29703  0.91783  1.0000
  C   C18       1.0  0.65440  0.70297  0.08217  1.0000
  C   C19       1.0  0.66362  0.96314  0.07385  1.0000
  C   C20       1.0  0.33638  0.03686  0.92615  1.0000
  O   O1        1.0  0.77729  0.60481  0.42756  1.0000
  O   O2        1.0  0.22270  0.39519  0.57244  1.0000
  O   O3        1.0  0.46467  0.62671  0.61290  1.0000
  O   O4        1.0  0.53532  0.37328  0.38710  1.0000
  O   O5        1.0  0.89398  0.74007  0.66440  1.0000
  O   O6        1.0  0.10602  0.25993  0.33560  1.0000
  O   O7        1.0  0.90883  0.97317  0.70431  1.0000
  O   O8        1.0  0.09117  0.02683  0.29569  1.0000
  O   O9        1.0  0.85134  0.18267  0.14795  1.0000
  O   O10       1.0  0.14867  0.81733  0.85205  1.0000
  O   O11       1.0  0.61777  0.35742  0.06769  1.0000
  O   O12       1.0  0.38223  0.64258  0.93231  1.0000
  O   O13       1.0  0.45386  0.33934  0.79895  1.0000
  O   O14       1.0  0.54614  0.66066  0.20105  1.0000
  O   O15       1.0  0.15557  0.37482  0.99006  1.0000
  O   O16       1.0  0.84444  0.62518  0.00994  1.0000
  O   O17       1.0  0.15388  0.56142  0.21394  1.0000
  O   O18       1.0  0.84612  0.43858  0.78606  1.0000
