data_image0
_chemical_formula_structural       Gd2H6C20O16
_chemical_formula_sum              "Gd2 H6 C20 O16"
_cell_length_a       7.23856
_cell_length_b       8.00415
_cell_length_c       8.722
_cell_angle_alpha    65.7497
_cell_angle_beta     85.6694
_cell_angle_gamma    83.7499

_space_group_name_H-M_alt    "P 1"
_space_group_IT_number       1

loop_
  _space_group_symop_operation_xyz
  'x, y, z'

loop_
  _atom_site_type_symbol
  _atom_site_label
  _atom_site_symmetry_multiplicity
  _atom_site_fract_x
  _atom_site_fract_y
  _atom_site_fract_z
  _atom_site_occupancy
  Gd  Gd1       1.0  0.06828  0.24217  0.50745  1.0000
  Gd  Gd2       1.0  0.93172  0.75783  0.49255  1.0000
  H   H1        1.0  0.25536  0.72148  0.02294  1.0000
  H   H2        1.0  0.74464  0.27852  0.97706  1.0000
  H   H3        1.0  0.93096  0.80046  0.95878  1.0000
  H   H4        1.0  0.06904  0.19954  0.04122  1.0000
  H   H5        1.0  0.50255  0.27988  0.49941  1.0000
  H   H6        1.0  0.49745  0.72012  0.50059  1.0000
  C   C1        1.0  0.76119  0.04192  0.70061  1.0000
  C   C2        1.0  0.23881  0.95808  0.29939  1.0000
  C   C3        1.0  0.66363  0.90213  0.84871  1.0000
  C   C4        1.0  0.33637  0.09787  0.15129  1.0000
  C   C5        1.0  0.47082  0.88259  0.86750  1.0000
  C   C6        1.0  0.52918  0.11741  0.13250  1.0000
  C   C7        1.0  0.33149  0.00926  0.74686  1.0000
  C   C8        1.0  0.66851  0.99074  0.25314  1.0000
  C   C9        1.0  0.40343  0.73836  0.00865  1.0000
  C   C10       1.0  0.59657  0.26164  0.99135  1.0000
  C   C11       1.0  0.52160  0.61724  0.13256  1.0000
  C   C12       1.0  0.47839  0.38276  0.86744  1.0000
  C   C13       1.0  0.44110  0.47024  0.28154  1.0000
  C   C14       1.0  0.55890  0.52976  0.71846  1.0000
  C   C15       1.0  0.71346  0.64075  0.11639  1.0000
  C   C16       1.0  0.28654  0.35924  0.88361  1.0000
  C   C17       1.0  0.84699  0.51290  0.24585  1.0000
  C   C18       1.0  0.15300  0.48711  0.75415  1.0000
  C   C19       1.0  0.78266  0.78232  0.97437  1.0000
  C   C20       1.0  0.21734  0.21768  0.02563  1.0000
  O   O1        1.0  0.83709  0.99209  0.58591  1.0000
  O   O2        1.0  0.16291  0.00791  0.41409  1.0000
  O   O3        1.0  0.78740  0.19660  0.69666  1.0000
  O   O4        1.0  0.21260  0.80340  0.30334  1.0000
  O   O5        1.0  0.38521  0.13261  0.60495  1.0000
  O   O6        1.0  0.61479  0.86739  0.39505  1.0000
  O   O7        1.0  0.15909  0.99758  0.78058  1.0000
  O   O8        1.0  0.84091  0.00242  0.21942  1.0000
  O   O9        1.0  0.27800  0.42970  0.28983  1.0000
  O   O10       1.0  0.72200  0.57030  0.71017  1.0000
  O   O11       1.0  0.55867  0.38804  0.40335  1.0000
  O   O12       1.0  0.44132  0.61196  0.59665  1.0000
  O   O13       1.0  0.90779  0.36124  0.24213  1.0000
  O   O14       1.0  0.09221  0.63876  0.75787  1.0000
  O   O15       1.0  0.89916  0.56115  0.35899  1.0000
  O   O16       1.0  0.10084  0.43886  0.64101  1.0000
