data_image0
_chemical_formula_structural       ZnH16C18S2N4O8
_chemical_formula_sum              "Zn1 H16 C18 S2 N4 O8"
_cell_length_a       7.14006
_cell_length_b       7.63811
_cell_length_c       10.5771
_cell_angle_alpha    106.026
_cell_angle_beta     95.6353
_cell_angle_gamma    108.862

_space_group_name_H-M_alt    "P 1"
_space_group_IT_number       1

loop_
  _space_group_symop_operation_xyz
  'x, y, z'

loop_
  _atom_site_type_symbol
  _atom_site_label
  _atom_site_symmetry_multiplicity
  _atom_site_fract_x
  _atom_site_fract_y
  _atom_site_fract_z
  _atom_site_occupancy
  Zn  Zn1       1.0  0.50000  0.50000  0.50000  1.0000
  H   H1        1.0  0.25783  0.17861  0.88709  1.0000
  H   H2        1.0  0.74217  0.82139  0.11291  1.0000
  H   H3        1.0  0.15142  0.83563  0.73249  1.0000
  H   H4        1.0  0.84858  0.16437  0.26751  1.0000
  H   H5        1.0  0.12390  0.56231  0.82279  1.0000
  H   H6        1.0  0.87610  0.43769  0.17721  1.0000
  H   H7        1.0  0.19686  0.62568  0.07062  1.0000
  H   H8        1.0  0.80314  0.37432  0.92938  1.0000
  H   H9        1.0  0.89840  0.74861  0.44333  1.0000
  H   H10       1.0  0.10160  0.25139  0.55667  1.0000
  H   H11       1.0  0.25332  0.75551  0.44844  1.0000
  H   H12       1.0  0.74667  0.24449  0.55155  1.0000
  H   H13       1.0  0.49661  0.61037  0.29131  1.0000
  H   H14       1.0  0.50339  0.38962  0.70869  1.0000
  H   H15       1.0  0.54816  0.82001  0.40039  1.0000
  H   H16       1.0  0.45184  0.17999  0.59961  1.0000
  C   C1        1.0  0.34808  0.28342  0.17550  1.0000
  C   C2        1.0  0.65192  0.71657  0.82450  1.0000
  C   C3        1.0  0.27938  0.09222  0.06420  1.0000
  C   C4        1.0  0.72063  0.90777  0.93580  1.0000
  C   C5        1.0  0.24114  0.05781  0.92628  1.0000
  C   C6        1.0  0.75887  0.94219  0.07372  1.0000
  C   C7        1.0  0.18220  0.86476  0.84051  1.0000
  C   C8        1.0  0.81781  0.13523  0.15948  1.0000
  C   C9        1.0  0.16571  0.71086  0.89168  1.0000
  C   C10       1.0  0.83429  0.28914  0.10832  1.0000
  C   C11       1.0  0.20423  0.74440  0.03056  1.0000
  C   C12       1.0  0.79577  0.25560  0.96944  1.0000
  C   C13       1.0  0.25867  0.93646  0.11326  1.0000
  C   C14       1.0  0.74133  0.06354  0.88674  1.0000
  C   C15       1.0  0.94391  0.63747  0.46843  1.0000
  C   C16       1.0  0.05609  0.36253  0.53157  1.0000
  C   C17       1.0  0.14023  0.64034  0.47097  1.0000
  C   C18       1.0  0.85977  0.35967  0.52903  1.0000
  S   S1        1.0  0.30910  0.03428  0.29069  1.0000
  S   S2        1.0  0.69090  0.96572  0.70931  1.0000
  N   N1        1.0  0.37254  0.26445  0.30007  1.0000
  N   N2        1.0  0.62746  0.73555  0.69993  1.0000
  N   N3        1.0  0.80347  0.49621  0.49729  1.0000
  N   N4        1.0  0.19653  0.50379  0.50271  1.0000
  O   O1        1.0  0.38323  0.44377  0.15459  1.0000
  O   O2        1.0  0.61677  0.55623  0.84541  1.0000
  O   O3        1.0  0.12630  0.96690  0.34114  1.0000
  O   O4        1.0  0.87369  0.03310  0.65886  1.0000
  O   O5        1.0  0.48424  0.00575  0.35252  1.0000
  O   O6        1.0  0.51575  0.99425  0.64748  1.0000
  O   O7        1.0  0.56838  0.69546  0.38741  1.0000
  O   O8        1.0  0.43162  0.30454  0.61258  1.0000
