data_image0
_chemical_formula_structural       CdH16C18S2N4O8
_chemical_formula_sum              "Cd1 H16 C18 S2 N4 O8"
_cell_length_a       7.4603
_cell_length_b       7.71525
_cell_length_c       10.5248
_cell_angle_alpha    103.386
_cell_angle_beta     96.5414
_cell_angle_gamma    110.59

_space_group_name_H-M_alt    "P 1"
_space_group_IT_number       1

loop_
  _space_group_symop_operation_xyz
  'x, y, z'

loop_
  _atom_site_type_symbol
  _atom_site_label
  _atom_site_symmetry_multiplicity
  _atom_site_fract_x
  _atom_site_fract_y
  _atom_site_fract_z
  _atom_site_occupancy
  Cd  Cd1       1.0  0.00000  0.00000  0.00000  1.0000
  H   H1        1.0  0.69603  0.13515  0.56775  1.0000
  H   H2        1.0  0.30397  0.86485  0.43225  1.0000
  H   H3        1.0  0.63095  0.08159  0.32084  1.0000
  H   H4        1.0  0.36905  0.91841  0.67916  1.0000
  H   H5        1.0  0.65663  0.35513  0.22734  1.0000
  H   H6        1.0  0.34337  0.64488  0.77266  1.0000
  H   H7        1.0  0.75325  0.68905  0.37801  1.0000
  H   H8        1.0  0.24675  0.31095  0.62199  1.0000
  H   H9        1.0  0.59146  0.74812  0.05566  1.0000
  H   H10       1.0  0.40854  0.25188  0.94435  1.0000
  H   H11       1.0  0.24751  0.73681  0.04740  1.0000
  H   H12       1.0  0.75249  0.26319  0.95260  1.0000
  H   H13       1.0  0.95146  0.67397  0.12370  1.0000
  H   H14       1.0  0.04854  0.32603  0.87630  1.0000
  H   H15       1.0  0.00012  0.88077  0.22400  1.0000
  H   H16       1.0  0.99988  0.11923  0.77600  1.0000
  C   C1        1.0  0.75422  0.44148  0.60701  1.0000
  C   C2        1.0  0.24578  0.55852  0.39299  1.0000
  C   C3        1.0  0.70398  0.25424  0.52646  1.0000
  C   C4        1.0  0.29602  0.74576  0.47354  1.0000
  C   C5        1.0  0.66924  0.22602  0.38801  1.0000
  C   C6        1.0  0.33076  0.77398  0.61199  1.0000
  C   C7        1.0  0.68484  0.38012  0.33506  1.0000
  C   C8        1.0  0.31516  0.61988  0.66494  1.0000
  C   C9        1.0  0.73864  0.56815  0.41853  1.0000
  C   C10       1.0  0.26136  0.43185  0.58147  1.0000
  C   C11       1.0  0.77352  0.59747  0.55603  1.0000
  C   C12       1.0  0.22648  0.40253  0.44397  1.0000
  C   C13       1.0  0.83722  0.78368  0.66497  1.0000
  C   C14       1.0  0.16278  0.21632  0.33503  1.0000
  C   C15       1.0  0.54985  0.86008  0.03070  1.0000
  C   C16       1.0  0.45015  0.13992  0.96930  1.0000
  C   C17       1.0  0.36077  0.85490  0.02687  1.0000
  C   C18       1.0  0.63923  0.14510  0.97313  1.0000
  S   S1        1.0  0.80047  0.53245  0.78343  1.0000
  S   S2        1.0  0.19953  0.46755  0.21657  1.0000
  N   N1        1.0  0.85819  0.75936  0.78949  1.0000
  N   N2        1.0  0.14181  0.24064  0.21051  1.0000
  N   N3        1.0  0.68773  0.00586  0.00392  1.0000
  N   N4        1.0  0.31227  0.99414  0.99608  1.0000
  O   O1        1.0  0.62312  0.45699  0.83238  1.0000
  O   O2        1.0  0.37688  0.54301  0.16762  1.0000
  O   O3        1.0  0.97145  0.51110  0.84956  1.0000
  O   O4        1.0  0.02855  0.48890  0.15044  1.0000
  O   O5        1.0  0.92029  0.78954  0.13352  1.0000
  O   O6        1.0  0.07971  0.21046  0.86648  1.0000
  O   O7        1.0  0.87141  0.94378  0.64307  1.0000
  O   O8        1.0  0.12860  0.05622  0.35693  1.0000
