data_image0
_chemical_formula_structural       MnH34C30S2N6O12
_chemical_formula_sum              "Mn1 H34 C30 S2 N6 O12"
_cell_length_a       7.57731
_cell_length_b       10.319
_cell_length_c       11.1133
_cell_angle_alpha    75.0162
_cell_angle_beta     71.962
_cell_angle_gamma    77.5658

_space_group_name_H-M_alt    "P 1"
_space_group_IT_number       1

loop_
  _space_group_symop_operation_xyz
  'x, y, z'

loop_
  _atom_site_type_symbol
  _atom_site_label
  _atom_site_symmetry_multiplicity
  _atom_site_fract_x
  _atom_site_fract_y
  _atom_site_fract_z
  _atom_site_occupancy
  Mn  Mn1       1.0  0.00003  1.00000  0.99996  1.0000
  H   H1        1.0  0.62279  0.25445  0.67385  1.0000
  H   H2        1.0  0.37721  0.74555  0.32615  1.0000
  H   H3        1.0  0.08237  0.60226  0.05856  1.0000
  H   H4        1.0  0.91763  0.39774  0.94144  1.0000
  H   H5        1.0  0.19388  0.33168  0.38454  1.0000
  H   H6        1.0  0.80612  0.66831  0.61547  1.0000
  H   H7        1.0  0.93131  0.29852  0.57854  1.0000
  H   H8        1.0  0.06870  0.70148  0.42146  1.0000
  H   H9        1.0  0.56122  0.31974  0.34390  1.0000
  H   H10       1.0  0.43877  0.68027  0.65610  1.0000
  H   H11       1.0  0.82464  0.35005  0.14823  1.0000
  H   H12       1.0  0.17537  0.64995  0.85177  1.0000
  H   H13       1.0  0.25723  0.40072  0.77195  1.0000
  H   H14       1.0  0.74277  0.59928  0.22805  1.0000
  H   H15       1.0  0.34464  0.22562  0.80410  1.0000
  H   H16       1.0  0.65536  0.77438  0.19590  1.0000
  H   H17       1.0  0.14074  0.28353  0.74501  1.0000
  H   H18       1.0  0.85927  0.71647  0.25499  1.0000
  H   H19       1.0  0.43317  0.58139  0.13054  1.0000
  H   H20       1.0  0.56683  0.41860  0.86947  1.0000
  H   H21       1.0  0.22415  0.57186  0.25941  1.0000
  H   H22       1.0  0.77585  0.42814  0.74059  1.0000
  H   H23       1.0  0.40849  0.90880  0.88713  1.0000
  H   H24       1.0  0.59151  0.09119  0.11287  1.0000
  H   H25       1.0  0.63654  0.91425  0.67810  1.0000
  H   H26       1.0  0.36345  0.08574  0.32191  1.0000
  H   H27       1.0  0.17535  0.06505  0.50254  1.0000
  H   H28       1.0  0.82464  0.93495  0.49746  1.0000
  H   H29       1.0  0.96541  0.05544  0.71941  1.0000
  H   H30       1.0  0.03458  0.94457  0.28059  1.0000
  H   H31       1.0  0.18786  0.16177  0.04438  1.0000
  H   H32       1.0  0.81213  0.83823  0.95561  1.0000
  H   H33       1.0  0.26345  0.99731  0.09463  1.0000
  H   H34       1.0  0.73654  0.00269  0.90536  1.0000
  C   C1        1.0  0.02588  0.34405  0.25351  1.0000
  C   C2        1.0  0.97412  0.65594  0.74650  1.0000
  C   C3        1.0  0.05677  0.32778  0.37460  1.0000
  C   C4        1.0  0.94324  0.67221  0.62540  1.0000
  C   C5        1.0  0.90785  0.30870  0.48446  1.0000
  C   C6        1.0  0.09216  0.69130  0.51554  1.0000
  C   C7        1.0  0.72766  0.30738  0.47481  1.0000
  C   C8        1.0  0.27234  0.69262  0.52520  1.0000
  C   C9        1.0  0.69916  0.32225  0.35226  1.0000
  C   C10       1.0  0.30083  0.67775  0.64774  1.0000
  C   C11       1.0  0.84805  0.34000  0.24219  1.0000
  C   C12       1.0  0.15195  0.66000  0.75782  1.0000
  C   C13       1.0  0.39459  0.32530  0.60132  1.0000
  C   C14       1.0  0.60542  0.67470  0.39869  1.0000
  C   C15       1.0  0.27809  0.30570  0.73903  1.0000
  C   C16       1.0  0.72191  0.69430  0.26097  1.0000
  C   C17       1.0  0.28002  0.60835  0.15410  1.0000
  C   C18       1.0  0.71997  0.39166  0.84590  1.0000
  C   C19       1.0  0.23129  0.76215  0.12544  1.0000
  C   C20       1.0  0.76872  0.23785  0.87455  1.0000
  C   C21       1.0  0.36082  0.94508  0.80004  1.0000
  C   C22       1.0  0.63917  0.05491  0.19997  1.0000
  C   C23       1.0  0.48991  0.94928  0.67978  1.0000
  C   C24       1.0  0.51008  0.05072  0.32023  1.0000
  C   C25       1.0  0.43295  0.99532  0.56473  1.0000
  C   C26       1.0  0.56705  0.00467  0.43529  1.0000
  C   C27       1.0  0.23703  0.03047  0.58375  1.0000
  C   C28       1.0  0.76296  0.96952  0.41626  1.0000
  C   C29       1.0  0.11583  0.02498  0.70693  1.0000
  C   C30       1.0  0.88417  0.97503  0.29308  1.0000
  S   S1        1.0  0.20764  0.38448  0.11388  1.0000
  S   S2        1.0  0.79237  0.61552  0.88613  1.0000
  N   N1        1.0  0.17334  0.98556  0.81724  1.0000
  N   N2        1.0  0.82665  0.01445  0.18278  1.0000
  N   N3        1.0  0.58404  0.28975  0.58868  1.0000
  N   N4        1.0  0.41596  0.71025  0.41132  1.0000
  N   N5        1.0  0.20505  0.54864  0.07789  1.0000
  N   N6        1.0  0.79495  0.45136  0.92211  1.0000
  O   O1        1.0  0.30899  0.82999  0.16993  1.0000
  O   O2        1.0  0.69099  0.17002  0.83007  1.0000
  O   O3        1.0  0.11033  0.81094  0.06065  1.0000
  O   O4        1.0  0.88971  0.18906  0.93932  1.0000
  O   O5        1.0  0.15899  0.35140  0.00909  1.0000
  O   O6        1.0  0.84100  0.64859  0.99091  1.0000
  O   O7        1.0  0.38685  0.32444  0.13876  1.0000
  O   O8        1.0  0.61315  0.67555  0.86125  1.0000
  O   O9        1.0  0.32613  0.37349  0.50861  1.0000
  O   O10       1.0  0.67388  0.62651  0.49138  1.0000
  O   O11       1.0  0.21325  0.06914  0.02829  1.0000
  O   O12       1.0  0.78677  0.93086  0.97169  1.0000
