data_image0
_chemical_formula_structural       Cd4H24C8O24
_chemical_formula_sum              "Cd4 H24 C8 O24"
_cell_length_a       7.29689
_cell_length_b       9.01948
_cell_length_c       9.8404
_cell_angle_alpha    97.4056
_cell_angle_beta     90.0004
_cell_angle_gamma    89.9989

_space_group_name_H-M_alt    "P 1"
_space_group_IT_number       1

loop_
  _space_group_symop_operation_xyz
  'x, y, z'

loop_
  _atom_site_type_symbol
  _atom_site_label
  _atom_site_symmetry_multiplicity
  _atom_site_fract_x
  _atom_site_fract_y
  _atom_site_fract_z
  _atom_site_occupancy
  Cd  Cd1       1.0  0.50000  1.00000  0.50000  1.0000
  Cd  Cd2       1.0  1.00000  0.00000  1.00000  1.0000
  Cd  Cd3       1.0  0.00000  0.50000  0.50000  1.0000
  Cd  Cd4       1.0  0.50000  0.50000  1.00000  1.0000
  H   H1        1.0  0.25037  0.92931  0.74449  1.0000
  H   H2        1.0  0.75037  0.07066  0.75553  1.0000
  H   H3        1.0  0.74963  0.07068  0.25551  1.0000
  H   H4        1.0  0.24963  0.92934  0.24447  1.0000
  H   H5        1.0  0.53764  0.67195  0.62897  1.0000
  H   H6        1.0  0.03763  0.32804  0.87103  1.0000
  H   H7        1.0  0.46236  0.32805  0.37103  1.0000
  H   H8        1.0  0.96237  0.67196  0.12897  1.0000
  H   H9        1.0  0.91927  0.80058  0.48370  1.0000
  H   H10       1.0  0.41926  0.19942  0.01632  1.0000
  H   H11       1.0  0.08074  0.19942  0.51630  1.0000
  H   H12       1.0  0.58074  0.80058  0.98368  1.0000
  H   H13       1.0  0.13155  0.76346  0.45775  1.0000
  H   H14       1.0  0.63155  0.23655  0.04227  1.0000
  H   H15       1.0  0.86845  0.23654  0.54226  1.0000
  H   H16       1.0  0.36845  0.76345  0.95773  1.0000
  H   H17       1.0  0.89368  0.70408  0.73150  1.0000
  H   H18       1.0  0.39366  0.29592  0.76851  1.0000
  H   H19       1.0  0.10632  0.29593  0.26850  1.0000
  H   H20       1.0  0.60633  0.70408  0.23149  1.0000
  H   H21       1.0  0.84477  0.54240  0.77476  1.0000
  H   H22       1.0  0.34476  0.45760  0.72524  1.0000
  H   H23       1.0  0.15523  0.45761  0.22524  1.0000
  H   H24       1.0  0.65524  0.54239  0.27476  1.0000
  C   C1        1.0  0.31297  0.03479  0.79226  1.0000
  C   C2        1.0  0.81298  0.96520  0.70774  1.0000
  C   C3        1.0  0.68703  0.96521  0.20774  1.0000
  C   C4        1.0  0.18701  0.03480  0.29227  1.0000
  C   C5        1.0  0.39934  0.66823  0.58258  1.0000
  C   C6        1.0  0.89934  0.33177  0.91743  1.0000
  C   C7        1.0  0.60066  0.33177  0.41742  1.0000
  C   C8        1.0  0.10066  0.66824  0.08258  1.0000
  O   O1        1.0  0.42275  0.10246  0.72121  1.0000
  O   O2        1.0  0.92276  0.89752  0.77879  1.0000
  O   O3        1.0  0.57725  0.89753  0.27879  1.0000
  O   O4        1.0  0.07724  0.10249  0.22121  1.0000
  O   O5        1.0  0.76989  0.91717  0.58472  1.0000
  O   O6        1.0  0.26990  0.08284  0.91529  1.0000
  O   O7        1.0  0.23011  0.08283  0.41528  1.0000
  O   O8        1.0  0.73010  0.91716  0.08471  1.0000
  O   O9        1.0  0.29891  0.55692  0.59784  1.0000
  O   O10       1.0  0.79891  0.44308  0.90215  1.0000
  O   O11       1.0  0.70110  0.44308  0.40216  1.0000
  O   O12       1.0  0.20110  0.55692  0.09785  1.0000
  O   O13       1.0  0.35026  0.77558  0.51765  1.0000
  O   O14       1.0  0.85026  0.22442  0.98235  1.0000
  O   O15       1.0  0.64974  0.22442  0.48235  1.0000
  O   O16       1.0  0.14974  0.77558  0.01764  1.0000
  O   O17       1.0  0.00501  0.73456  0.42496  1.0000
  O   O18       1.0  0.50501  0.26545  0.07506  1.0000
  O   O19       1.0  0.99499  0.26544  0.57504  1.0000
  O   O20       1.0  0.49499  0.73455  0.92494  1.0000
  O   O21       1.0  0.85407  0.60142  0.69557  1.0000
  O   O22       1.0  0.35406  0.39858  0.80443  1.0000
  O   O23       1.0  0.14593  0.39858  0.30443  1.0000
  O   O24       1.0  0.64594  0.60142  0.19557  1.0000
