data_image0
_chemical_formula_structural       Zn4H52C48N4O20
_chemical_formula_sum              "Zn4 H52 C48 N4 O20"
_cell_length_a       10.6576
_cell_length_b       10.6948
_cell_length_c       13.097
_cell_angle_alpha    86.9729
_cell_angle_beta     86.9623
_cell_angle_gamma    61.4882

_space_group_name_H-M_alt    "P 1"
_space_group_IT_number       1

loop_
  _space_group_symop_operation_xyz
  'x, y, z'

loop_
  _atom_site_type_symbol
  _atom_site_label
  _atom_site_symmetry_multiplicity
  _atom_site_fract_x
  _atom_site_fract_y
  _atom_site_fract_z
  _atom_site_occupancy
  Zn  Zn1       1.0  0.79954  0.28821  0.84064  1.0000
  Zn  Zn2       1.0  0.71150  0.20088  0.65940  1.0000
  Zn  Zn3       1.0  0.20046  0.71179  0.15936  1.0000
  Zn  Zn4       1.0  0.28850  0.79912  0.34060  1.0000
  H   H1        1.0  0.39627  0.66102  0.90714  1.0000
  H   H2        1.0  0.33861  0.60396  0.59291  1.0000
  H   H3        1.0  0.60373  0.33898  0.09286  1.0000
  H   H4        1.0  0.66139  0.39604  0.40709  1.0000
  H   H5        1.0  0.16801  0.88809  0.90735  1.0000
  H   H6        1.0  0.11160  0.83232  0.59261  1.0000
  H   H7        1.0  0.83199  0.11191  0.09265  1.0000
  H   H8        1.0  0.88840  0.16768  0.40739  1.0000
  H   H9        1.0  0.89689  0.59624  0.67067  1.0000
  H   H10       1.0  0.40318  0.10305  0.82945  1.0000
  H   H11       1.0  0.10311  0.40376  0.32933  1.0000
  H   H12       1.0  0.59682  0.89695  0.17055  1.0000
  H   H13       1.0  0.99693  0.28235  0.44507  1.0000
  H   H14       1.0  0.71832  0.00317  0.05490  1.0000
  H   H15       1.0  0.00307  0.71765  0.55493  1.0000
  H   H16       1.0  0.28167  0.99683  0.94509  1.0000
  H   H17       1.0  0.64873  0.57147  0.92539  1.0000
  H   H18       1.0  0.42866  0.35095  0.57438  1.0000
  H   H19       1.0  0.35127  0.42853  0.07461  1.0000
  H   H20       1.0  0.57134  0.64905  0.42562  1.0000
  H   H21       1.0  0.69268  0.67665  0.00352  1.0000
  H   H22       1.0  0.32281  0.30751  0.49635  1.0000
  H   H23       1.0  0.30732  0.32335  0.99648  1.0000
  H   H24       1.0  0.67719  0.69249  0.50365  1.0000
  H   H25       1.0  0.60788  0.58016  0.05858  1.0000
  H   H26       1.0  0.42017  0.39142  0.44120  1.0000
  H   H27       1.0  0.39212  0.41984  0.94142  1.0000
  H   H28       1.0  0.57983  0.60859  0.55880  1.0000
  H   H29       1.0  0.76680  0.64965  0.14599  1.0000
  H   H30       1.0  0.34988  0.23316  0.35392  1.0000
  H   H31       1.0  0.23320  0.35035  0.85401  1.0000
  H   H32       1.0  0.65012  0.76684  0.64608  1.0000
  H   H33       1.0  0.94705  0.57741  0.18396  1.0000
  H   H34       1.0  0.42205  0.05351  0.31596  1.0000
  H   H35       1.0  0.05295  0.42259  0.81604  1.0000
  H   H36       1.0  0.57794  0.94649  0.68404  1.0000
  H   H37       1.0  0.83277  0.51363  0.24370  1.0000
  H   H38       1.0  0.48652  0.16706  0.25628  1.0000
  H   H39       1.0  0.16723  0.48637  0.75630  1.0000
  H   H40       1.0  0.51348  0.83294  0.74372  1.0000
  H   H41       1.0  0.07863  0.24926  0.04819  1.0000
  H   H42       1.0  0.75099  0.92154  0.45198  1.0000
  H   H43       1.0  0.92136  0.75074  0.95181  1.0000
  H   H44       1.0  0.24901  0.07846  0.54802  1.0000
  H   H45       1.0  0.03330  0.25552  0.18160  1.0000
  H   H46       1.0  0.74489  0.96643  0.31852  1.0000
  H   H47       1.0  0.96670  0.74448  0.81840  1.0000
  H   H48       1.0  0.25511  0.03357  0.68148  1.0000
  H   H49       1.0  0.12349  0.35040  0.13065  1.0000
  H   H50       1.0  0.64910  0.87727  0.36959  1.0000
  H   H51       1.0  0.87651  0.64960  0.86935  1.0000
  H   H52       1.0  0.35090  0.12273  0.63041  1.0000
  C   C1        1.0  0.51891  0.48088  0.75005  1.0000
  C   C2        1.0  0.48109  0.51912  0.24995  1.0000
  C   C3        1.0  0.38199  0.61796  0.75001  1.0000
  C   C4        1.0  0.61801  0.38204  0.24999  1.0000
  C   C5        1.0  0.33394  0.69896  0.83834  1.0000
  C   C6        1.0  0.30082  0.66624  0.66167  1.0000
  C   C7        1.0  0.66606  0.30104  0.16166  1.0000
  C   C8        1.0  0.69918  0.33376  0.33833  1.0000
  C   C9        1.0  0.20676  0.82647  0.83831  1.0000
  C   C10       1.0  0.17337  0.79348  0.66166  1.0000
  C   C11       1.0  0.79324  0.17353  0.16169  1.0000
  C   C12       1.0  0.82663  0.20652  0.33834  1.0000
  C   C13       1.0  0.12611  0.87399  0.74998  1.0000
  C   C14       1.0  0.87389  0.12601  0.25002  1.0000
  C   C15       1.0  0.98920  0.01097  0.74994  1.0000
  C   C16       1.0  0.01080  0.98903  0.25006  1.0000
  C   C17       1.0  0.87227  0.36357  0.63303  1.0000
  C   C18       1.0  0.63630  0.12805  0.86710  1.0000
  C   C19       1.0  0.12773  0.63643  0.36697  1.0000
  C   C20       1.0  0.36369  0.87195  0.13290  1.0000
  C   C21       1.0  0.94031  0.43261  0.56471  1.0000
  C   C22       1.0  0.56738  0.05981  0.93534  1.0000
  C   C23       1.0  0.05969  0.56739  0.43529  1.0000
  C   C24       1.0  0.43262  0.94020  0.06466  1.0000
  C   C25       1.0  0.94255  0.55498  0.59568  1.0000
  C   C26       1.0  0.44465  0.05745  0.90440  1.0000
  C   C27       1.0  0.05745  0.44502  0.40432  1.0000
  C   C28       1.0  0.55534  0.94255  0.09560  1.0000
  C   C29       1.0  0.99852  0.37768  0.46855  1.0000
  C   C30       1.0  0.62267  0.00158  0.03142  1.0000
  C   C31       1.0  0.00148  0.62232  0.53145  1.0000
  C   C32       1.0  0.37733  0.99842  0.96858  1.0000
  C   C33       1.0  0.82874  0.44759  0.01661  1.0000
  C   C34       1.0  0.55254  0.17117  0.48333  1.0000
  C   C35       1.0  0.17125  0.55241  0.98339  1.0000
  C   C36       1.0  0.44746  0.82883  0.51667  1.0000
  C   C37       1.0  0.68695  0.57737  0.99989  1.0000
  C   C38       1.0  0.42264  0.31281  0.49992  1.0000
  C   C39       1.0  0.31305  0.42263  0.00011  1.0000
  C   C40       1.0  0.57736  0.68719  0.50008  1.0000
  C   C41       1.0  0.86045  0.55247  0.17097  1.0000
  C   C42       1.0  0.44728  0.13967  0.32898  1.0000
  C   C43       1.0  0.13955  0.44753  0.82903  1.0000
  C   C44       1.0  0.55271  0.86034  0.67102  1.0000
  C   C45       1.0  0.04410  0.31677  0.11474  1.0000
  C   C46       1.0  0.68327  0.95609  0.38544  1.0000
  C   C47       1.0  0.95590  0.68323  0.88526  1.0000
  C   C48       1.0  0.31673  0.04391  0.61456  1.0000
  N   N1        1.0  0.90800  0.44311  0.09473  1.0000
  N   N2        1.0  0.55685  0.09207  0.40533  1.0000
  N   N3        1.0  0.09200  0.55689  0.90527  1.0000
  N   N4        1.0  0.44315  0.90793  0.59467  1.0000
  O   O1        1.0  0.58655  0.44155  0.83313  1.0000
  O   O2        1.0  0.55804  0.41332  0.66699  1.0000
  O   O3        1.0  0.41345  0.55845  0.16686  1.0000
  O   O4        1.0  0.44197  0.58668  0.33301  1.0000
  O   O5        1.0  0.98509  0.11027  0.80195  1.0000
  O   O6        1.0  0.88940  0.01561  0.69785  1.0000
  O   O7        1.0  0.01491  0.88973  0.19805  1.0000
  O   O8        1.0  0.11061  0.98439  0.30215  1.0000
  O   O9        1.0  0.84496  0.40233  0.72560  1.0000
  O   O10       1.0  0.59711  0.15559  0.77460  1.0000
  O   O11       1.0  0.15504  0.59766  0.27439  1.0000
  O   O12       1.0  0.40289  0.84441  0.22540  1.0000
  O   O13       1.0  0.84605  0.27320  0.59248  1.0000
  O   O14       1.0  0.72691  0.15427  0.90764  1.0000
  O   O15       1.0  0.15395  0.72679  0.40751  1.0000
  O   O16       1.0  0.27309  0.84574  0.09236  1.0000
  O   O17       1.0  0.87560  0.34181  0.95889  1.0000
  O   O18       1.0  0.65855  0.12432  0.54117  1.0000
  O   O19       1.0  0.12440  0.65819  0.04111  1.0000
  O   O20       1.0  0.34145  0.87568  0.45883  1.0000
