data_image0
_chemical_formula_structural       Co2H24C44N8O4F12
_chemical_formula_sum              "Co2 H24 C44 N8 O4 F12"
_cell_length_a       6.28009
_cell_length_b       11.7576
_cell_length_c       14.3305
_cell_angle_alpha    90.0025
_cell_angle_beta     89.9988
_cell_angle_gamma    97.0684

_space_group_name_H-M_alt    "P 1"
_space_group_IT_number       1

loop_
  _space_group_symop_operation_xyz
  'x, y, z'

loop_
  _atom_site_type_symbol
  _atom_site_label
  _atom_site_symmetry_multiplicity
  _atom_site_fract_x
  _atom_site_fract_y
  _atom_site_fract_z
  _atom_site_occupancy
  Co  Co1       1.0  0.00001  0.00000  1.00000  1.0000
  Co  Co2       1.0  0.49999  1.00000  0.50000  1.0000
  H   H1        1.0  0.69436  0.35637  0.07257  1.0000
  H   H2        1.0  0.80564  0.64364  0.57256  1.0000
  H   H3        1.0  0.30565  0.64365  0.92743  1.0000
  H   H4        1.0  0.19435  0.35634  0.42744  1.0000
  H   H5        1.0  0.44944  0.49409  0.12636  1.0000
  H   H6        1.0  0.05057  0.50593  0.62634  1.0000
  H   H7        1.0  0.55057  0.50592  0.87365  1.0000
  H   H8        1.0  0.94944  0.49407  0.37366  1.0000
  H   H9        1.0  0.08663  0.42036  0.18710  1.0000
  H   H10       1.0  0.41337  0.57967  0.68709  1.0000
  H   H11       1.0  0.91338  0.57964  0.81290  1.0000
  H   H12       1.0  0.58662  0.42033  0.31291  1.0000
  H   H13       1.0  0.96151  0.21200  0.18566  1.0000
  H   H14       1.0  0.53846  0.78802  0.68566  1.0000
  H   H15       1.0  0.03851  0.78800  0.81434  1.0000
  H   H16       1.0  0.46152  0.21197  0.31435  1.0000
  H   H17       1.0  0.36997  0.00237  0.22900  1.0000
  H   H18       1.0  0.13004  0.99766  0.72902  1.0000
  H   H19       1.0  0.63004  0.99763  0.77100  1.0000
  H   H20       1.0  0.86996  0.00233  0.27098  1.0000
  H   H21       1.0  0.25824  0.80032  0.22345  1.0000
  H   H22       1.0  0.24177  0.19971  0.72346  1.0000
  H   H23       1.0  0.74176  0.19968  0.77655  1.0000
  H   H24       1.0  0.75824  0.80028  0.27655  1.0000
  C   C1        1.0  0.60935  0.13066  0.07013  1.0000
  C   C2        1.0  0.89062  0.86935  0.57013  1.0000
  C   C3        1.0  0.39067  0.86935  0.92988  1.0000
  C   C4        1.0  0.10935  0.13065  0.42987  1.0000
  C   C5        1.0  0.46515  0.20722  0.09904  1.0000
  C   C6        1.0  0.03483  0.79280  0.59904  1.0000
  C   C7        1.0  0.53487  0.79279  0.90096  1.0000
  C   C8        1.0  0.96515  0.20719  0.40096  1.0000
  C   C9        1.0  0.53391  0.32600  0.09782  1.0000
  C   C10       1.0  0.96608  0.67402  0.59780  1.0000
  C   C11       1.0  0.46610  0.67400  0.90219  1.0000
  C   C12       1.0  0.03391  0.32597  0.40220  1.0000
  C   C13       1.0  0.39684  0.40244  0.12803  1.0000
  C   C14       1.0  0.10316  0.59758  0.62802  1.0000
  C   C15       1.0  0.60317  0.59756  0.87197  1.0000
  C   C16       1.0  0.89683  0.40242  0.37199  1.0000
  C   C17       1.0  0.19240  0.36079  0.16113  1.0000
  C   C18       1.0  0.30759  0.63923  0.66112  1.0000
  C   C19       1.0  0.80762  0.63921  0.83887  1.0000
  C   C20       1.0  0.69240  0.36077  0.33888  1.0000
  C   C21       1.0  0.12188  0.24374  0.16115  1.0000
  C   C22       1.0  0.37811  0.75629  0.66115  1.0000
  C   C23       1.0  0.87814  0.75626  0.83885  1.0000
  C   C24       1.0  0.62188  0.24371  0.33885  1.0000
  C   C25       1.0  0.25519  0.16486  0.12931  1.0000
  C   C26       1.0  0.24481  0.83517  0.62931  1.0000
  C   C27       1.0  0.74482  0.83515  0.87069  1.0000
  C   C28       1.0  0.75518  0.16483  0.37069  1.0000
  C   C29       1.0  0.24952  0.97205  0.17608  1.0000
  C   C30       1.0  0.25048  0.02798  0.67608  1.0000
  C   C31       1.0  0.75048  0.02796  0.82392  1.0000
  C   C32       1.0  0.74951  0.97202  0.32391  1.0000
  C   C33       1.0  0.18100  0.85300  0.17487  1.0000
  C   C34       1.0  0.31898  0.14703  0.67486  1.0000
  C   C35       1.0  0.81899  0.14701  0.82514  1.0000
  C   C36       1.0  0.68102  0.85297  0.32514  1.0000
  C   C37       1.0  0.01598  0.80099  0.11903  1.0000
  C   C38       1.0  0.48403  0.19903  0.61903  1.0000
  C   C39       1.0  0.98401  0.19902  0.88097  1.0000
  C   C40       1.0  0.51597  0.80097  0.38097  1.0000
  C   C41       1.0  0.95719  0.67060  0.12497  1.0000
  C   C42       1.0  0.54281  0.32943  0.62497  1.0000
  C   C43       1.0  0.04280  0.32941  0.87503  1.0000
  C   C44       1.0  0.45720  0.67057  0.37503  1.0000
  N   N1        1.0  0.73676  0.07112  0.04873  1.0000
  N   N2        1.0  0.76325  0.92889  0.54873  1.0000
  N   N3        1.0  0.26327  0.92889  0.95127  1.0000
  N   N4        1.0  0.23674  0.07110  0.45127  1.0000
  N   N5        1.0  0.17644  0.04809  0.12097  1.0000
  N   N6        1.0  0.32355  0.95195  0.62098  1.0000
  N   N7        1.0  0.82358  0.95192  0.87903  1.0000
  N   N8        1.0  0.67644  0.04804  0.37902  1.0000
  O   O1        1.0  0.90213  0.84816  0.05993  1.0000
  O   O2        1.0  0.59787  0.15184  0.55992  1.0000
  O   O3        1.0  0.09787  0.15185  0.94007  1.0000
  O   O4        1.0  0.40212  0.84815  0.44008  1.0000
  F   F1        1.0  0.05102  0.61663  0.05365  1.0000
  F   F2        1.0  0.44904  0.38338  0.55363  1.0000
  F   F3        1.0  0.94898  0.38337  0.94636  1.0000
  F   F4        1.0  0.55095  0.61661  0.44637  1.0000
  F   F5        1.0  0.02126  0.62407  0.20616  1.0000
  F   F6        1.0  0.47873  0.37599  0.70615  1.0000
  F   F7        1.0  0.97871  0.37594  0.79384  1.0000
  F   F8        1.0  0.52129  0.62401  0.29385  1.0000
  F   F9        1.0  0.74185  0.64033  0.11720  1.0000
  F   F10       1.0  0.75813  0.35968  0.61720  1.0000
  F   F11       1.0  0.25814  0.35968  0.88279  1.0000
  F   F12       1.0  0.24187  0.64031  0.38278  1.0000
