data_image0
_chemical_formula_structural       Cu4H24C24S2I4N4
_chemical_formula_sum              "Cu4 H24 C24 S2 I4 N4"
_cell_length_a       7.72681
_cell_length_b       9.59829
_cell_length_c       11.3536
_cell_angle_alpha    77.9752
_cell_angle_beta     70.1952
_cell_angle_gamma    69.5685

_space_group_name_H-M_alt    "P 1"
_space_group_IT_number       1

loop_
  _space_group_symop_operation_xyz
  'x, y, z'

loop_
  _atom_site_type_symbol
  _atom_site_label
  _atom_site_symmetry_multiplicity
  _atom_site_fract_x
  _atom_site_fract_y
  _atom_site_fract_z
  _atom_site_occupancy
  Cu  Cu1       1.0  0.78691  0.01057  0.76716  1.0000
  Cu  Cu2       1.0  0.21309  0.98943  0.23284  1.0000
  Cu  Cu3       1.0  0.31962  0.04735  0.85473  1.0000
  Cu  Cu4       1.0  0.68039  0.95265  0.14527  1.0000
  H   H1        1.0  0.92415  0.88410  0.51486  1.0000
  H   H2        1.0  0.07585  0.11590  0.48514  1.0000
  H   H3        1.0  0.08307  0.63120  0.44096  1.0000
  H   H4        1.0  0.91693  0.36880  0.55904  1.0000
  H   H5        1.0  0.18987  0.41158  0.59659  1.0000
  H   H6        1.0  0.81013  0.58842  0.40341  1.0000
  H   H7        1.0  0.13427  0.45905  0.81439  1.0000
  H   H8        1.0  0.86573  0.54095  0.18561  1.0000
  H   H9        1.0  0.05826  0.79423  0.91220  1.0000
  H   H10       1.0  0.94174  0.20576  0.08780  1.0000
  H   H11       1.0  0.97619  0.63574  0.97966  1.0000
  H   H12       1.0  0.02381  0.36425  0.02034  1.0000
  H   H13       1.0  0.62340  0.64947  0.05392  1.0000
  H   H14       1.0  0.37660  0.35054  0.94608  1.0000
  H   H15       1.0  0.42693  0.81586  0.05891  1.0000
  H   H16       1.0  0.57307  0.18415  0.94108  1.0000
  H   H17       1.0  0.69305  0.48308  0.90447  1.0000
  H   H18       1.0  0.30696  0.51692  0.09553  1.0000
  H   H19       1.0  0.63511  0.42736  0.71868  1.0000
  H   H20       1.0  0.36488  0.57264  0.28132  1.0000
  H   H21       1.0  0.45515  0.64221  0.59097  1.0000
  H   H22       1.0  0.54484  0.35779  0.40903  1.0000
  H   H23       1.0  0.32978  0.89635  0.66236  1.0000
  H   H24       1.0  0.67021  0.10365  0.33764  1.0000
  C   C1        1.0  0.97354  0.78717  0.57844  1.0000
  C   C2        1.0  0.02646  0.21283  0.42156  1.0000
  C   C3        1.0  0.06233  0.64504  0.53801  1.0000
  C   C4        1.0  0.93767  0.35496  0.46199  1.0000
  C   C5        1.0  0.12038  0.52506  0.62357  1.0000
  C   C6        1.0  0.87962  0.47494  0.37643  1.0000
  C   C7        1.0  0.08847  0.55163  0.74655  1.0000
  C   C8        1.0  0.91152  0.44837  0.25345  1.0000
  C   C9        1.0  0.99817  0.69662  0.78075  1.0000
  C   C10       1.0  0.00183  0.30338  0.21925  1.0000
  C   C11       1.0  0.95993  0.73485  0.91084  1.0000
  C   C12       1.0  0.04007  0.26515  0.08916  1.0000
  C   C13       1.0  0.56460  0.75173  0.99759  1.0000
  C   C14       1.0  0.43540  0.24827  0.00241  1.0000
  C   C15       1.0  0.53636  0.71781  0.88426  1.0000
  C   C16       1.0  0.46364  0.28219  0.11573  1.0000
  C   C17       1.0  0.61138  0.57227  0.84943  1.0000
  C   C18       1.0  0.38863  0.42773  0.15056  1.0000
  C   C19       1.0  0.58174  0.54138  0.74458  1.0000
  C   C20       1.0  0.41825  0.45863  0.25542  1.0000
  C   C21       1.0  0.48078  0.65900  0.67482  1.0000
  C   C22       1.0  0.51922  0.34100  0.32518  1.0000
  C   C23       1.0  0.41011  0.80135  0.71415  1.0000
  C   C24       1.0  0.58989  0.19865  0.28585  1.0000
  S   S1        1.0  0.72183  0.87000  0.96521  1.0000
  S   S2        1.0  0.27818  0.13000  0.03479  1.0000
  I   I1        1.0  0.53778  0.17530  0.65707  1.0000
  I   I2        1.0  0.46222  0.82469  0.34293  1.0000
  I   I3        1.0  0.97657  0.16182  0.80950  1.0000
  I   I4        1.0  0.02343  0.83818  0.19050  1.0000
  N   N1        1.0  0.94119  0.81283  0.69718  1.0000
  N   N2        1.0  0.05881  0.18717  0.30283  1.0000
  N   N3        1.0  0.43347  0.83133  0.81798  1.0000
  N   N4        1.0  0.56653  0.16867  0.18202  1.0000
