data_image0
_chemical_formula_structural       Cd2H32C40S4N8O16
_chemical_formula_sum              "Cd2 H32 C40 S4 N8 O16"
_cell_length_a       7.13737
_cell_length_b       9.54177
_cell_length_c       16.371
_cell_angle_alpha    82.7174
_cell_angle_beta     82.228
_cell_angle_gamma    86.2248

_space_group_name_H-M_alt    "P 1"
_space_group_IT_number       1

loop_
  _space_group_symop_operation_xyz
  'x, y, z'

loop_
  _atom_site_type_symbol
  _atom_site_label
  _atom_site_symmetry_multiplicity
  _atom_site_fract_x
  _atom_site_fract_y
  _atom_site_fract_z
  _atom_site_occupancy
  Cd  Cd1       1.0  0.68044  0.00104  0.23212  1.0000
  Cd  Cd2       1.0  0.31955  0.99898  0.76787  1.0000
  H   H1        1.0  0.81712  0.67702  0.30251  1.0000
  H   H2        1.0  0.18286  0.32298  0.69749  1.0000
  H   H3        1.0  0.91931  0.54652  0.43022  1.0000
  H   H4        1.0  0.08069  0.45348  0.56977  1.0000
  H   H5        1.0  0.89852  0.67475  0.55921  1.0000
  H   H6        1.0  0.10149  0.32523  0.44078  1.0000
  H   H7        1.0  0.79664  0.92739  0.54806  1.0000
  H   H8        1.0  0.20337  0.07259  0.45193  1.0000
  H   H9        1.0  0.73278  0.13334  0.53227  1.0000
  H   H10       1.0  0.26723  0.86663  0.46773  1.0000
  H   H11       1.0  0.63504  0.38621  0.50770  1.0000
  H   H12       1.0  0.36497  0.61376  0.49232  1.0000
  H   H13       1.0  0.51532  0.48149  0.37145  1.0000
  H   H14       1.0  0.48468  0.51851  0.62857  1.0000
  H   H15       1.0  0.51460  0.31671  0.26502  1.0000
  H   H16       1.0  0.48539  0.68330  0.73499  1.0000
  H   H17       1.0  0.80729  0.31272  0.14282  1.0000
  H   H18       1.0  0.19273  0.68730  0.85717  1.0000
  H   H19       1.0  0.88926  0.43699  0.00018  1.0000
  H   H20       1.0  0.11079  0.56301  0.99981  1.0000
  H   H21       1.0  0.89463  0.30179  0.87829  1.0000
  H   H22       1.0  0.10538  0.69821  0.12170  1.0000
  H   H23       1.0  0.80657  0.05150  0.90321  1.0000
  H   H24       1.0  0.19341  0.94851  0.09679  1.0000
  H   H25       1.0  0.71287  0.86054  0.92608  1.0000
  H   H26       1.0  0.28712  0.13947  0.07392  1.0000
  H   H27       1.0  0.63031  0.61422  0.96030  1.0000
  H   H28       1.0  0.36970  0.38577  0.03971  1.0000
  H   H29       1.0  0.54873  0.51601  0.11305  1.0000
  H   H30       1.0  0.45127  0.48400  0.88696  1.0000
  H   H31       1.0  0.57459  0.67312  0.21993  1.0000
  H   H32       1.0  0.42540  0.32691  0.78008  1.0000
  C   C1        1.0  0.80918  0.72908  0.35865  1.0000
  C   C2        1.0  0.19080  0.27092  0.64135  1.0000
  C   C3        1.0  0.86727  0.65614  0.43084  1.0000
  C   C4        1.0  0.13272  0.34385  0.56915  1.0000
  C   C5        1.0  0.86024  0.72785  0.50034  1.0000
  C   C6        1.0  0.13976  0.27214  0.49965  1.0000
  C   C7        1.0  0.80036  0.87020  0.49447  1.0000
  C   C8        1.0  0.19964  0.12978  0.50553  1.0000
  C   C9        1.0  0.74437  0.93732  0.41989  1.0000
  C   C10       1.0  0.25562  0.06267  0.58011  1.0000
  C   C11       1.0  0.68335  0.08995  0.40991  1.0000
  C   C12       1.0  0.31664  0.91003  0.59010  1.0000
  C   C13       1.0  0.68678  0.17582  0.47301  1.0000
  C   C14       1.0  0.31321  0.82416  0.52700  1.0000
  C   C15       1.0  0.63010  0.31840  0.45927  1.0000
  C   C16       1.0  0.36990  0.68158  0.54074  1.0000
  C   C17       1.0  0.56627  0.37190  0.38423  1.0000
  C   C18       1.0  0.43373  0.62809  0.61579  1.0000
  C   C19       1.0  0.56620  0.28064  0.32425  1.0000
  C   C20       1.0  0.43379  0.71936  0.67576  1.0000
  C   C21       1.0  0.80415  0.25849  0.08834  1.0000
  C   C22       1.0  0.19587  0.74152  0.91166  1.0000
  C   C23       1.0  0.85230  0.32696  0.00872  1.0000
  C   C24       1.0  0.14772  0.67305  0.99127  1.0000
  C   C25       1.0  0.85337  0.25155  0.94115  1.0000
  C   C26       1.0  0.14664  0.74846  0.05884  1.0000
  C   C27       1.0  0.80337  0.11136  0.95554  1.0000
  C   C28       1.0  0.19662  0.88865  0.04445  1.0000
  C   C29       1.0  0.75369  0.04903  0.03714  1.0000
  C   C30       1.0  0.24629  0.95098  0.96285  1.0000
  C   C31       1.0  0.69852  0.89962  0.05508  1.0000
  C   C32       1.0  0.30147  0.10039  0.94492  1.0000
  C   C33       1.0  0.68606  0.81740  0.99109  1.0000
  C   C34       1.0  0.31393  0.18261  0.00891  1.0000
  C   C35       1.0  0.63583  0.67751  0.01080  1.0000
  C   C36       1.0  0.36417  0.32249  0.98921  1.0000
  C   C37       1.0  0.59448  0.62299  0.09385  1.0000
  C   C38       1.0  0.40552  0.37702  0.90616  1.0000
  C   C39       1.0  0.60771  0.71106  0.15418  1.0000
  C   C40       1.0  0.39229  0.28896  0.84582  1.0000
  S   S1        1.0  0.19262  0.02025  0.26376  1.0000
  S   S2        1.0  0.80737  0.97974  0.73624  1.0000
  S   S3        1.0  0.11864  0.42108  0.23708  1.0000
  S   S4        1.0  0.88137  0.57892  0.76292  1.0000
  N   N1        1.0  0.74627  0.86510  0.35381  1.0000
  N   N2        1.0  0.25371  0.13490  0.64619  1.0000
  N   N3        1.0  0.62564  0.14433  0.33666  1.0000
  N   N4        1.0  0.37436  0.85568  0.66335  1.0000
  N   N5        1.0  0.75653  0.12293  0.10208  1.0000
  N   N6        1.0  0.24347  0.87708  0.89792  1.0000
  N   N7        1.0  0.66032  0.84487  0.13562  1.0000
  N   N8        1.0  0.33967  0.15515  0.86438  1.0000
  O   O1        1.0  0.04034  0.97910  0.22206  1.0000
  O   O2        1.0  0.95965  0.02089  0.77795  1.0000
  O   O3        1.0  0.35587  0.06545  0.20382  1.0000
  O   O4        1.0  0.64413  0.93455  0.79618  1.0000
  O   O5        1.0  0.23999  0.92703  0.33605  1.0000
  O   O6        1.0  0.76001  0.07297  0.66396  1.0000
  O   O7        1.0  0.14609  0.45817  0.31791  1.0000
  O   O8        1.0  0.85392  0.54183  0.68209  1.0000
  O   O9        1.0  0.29323  0.39732  0.18215  1.0000
  O   O10       1.0  0.70679  0.60267  0.81785  1.0000
  O   O11       1.0  0.96602  0.49998  0.19743  1.0000
  O   O12       1.0  0.03399  0.50001  0.80257  1.0000
  O   O13       1.0  0.00880  0.26485  0.25552  1.0000
  O   O14       1.0  0.99121  0.73515  0.74449  1.0000
  O   O15       1.0  0.10862  0.15959  0.31210  1.0000
  O   O16       1.0  0.89138  0.84041  0.68790  1.0000
