data_image0
_chemical_formula_structural       Ag4H64C56N8O16
_chemical_formula_sum              "Ag4 H64 C56 N8 O16"
_cell_length_a       10.5821
_cell_length_b       11.3778
_cell_length_c       12.789
_cell_angle_alpha    90
_cell_angle_beta     113.144
_cell_angle_gamma    90

_space_group_name_H-M_alt    "P 1"
_space_group_IT_number       1

loop_
  _space_group_symop_operation_xyz
  'x, y, z'

loop_
  _atom_site_type_symbol
  _atom_site_label
  _atom_site_symmetry_multiplicity
  _atom_site_fract_x
  _atom_site_fract_y
  _atom_site_fract_z
  _atom_site_occupancy
  Ag  Ag1       1.0  0.93669  0.06549  0.55754  1.0000
  Ag  Ag2       1.0  0.06267  0.56575  0.94191  1.0000
  Ag  Ag3       1.0  0.06330  0.93451  0.44242  1.0000
  Ag  Ag4       1.0  0.93732  0.43423  0.05808  1.0000
  H   H1        1.0  0.67590  0.03162  0.58271  1.0000
  H   H2        1.0  0.32430  0.53145  0.91723  1.0000
  H   H3        1.0  0.32413  0.96841  0.41728  1.0000
  H   H4        1.0  0.67569  0.46857  0.08280  1.0000
  H   H5        1.0  0.53492  0.12942  0.52278  1.0000
  H   H6        1.0  0.46509  0.62936  0.97730  1.0000
  H   H7        1.0  0.46511  0.87062  0.47720  1.0000
  H   H8        1.0  0.53490  0.37066  0.02273  1.0000
  H   H9        1.0  0.53518  0.02277  0.62512  1.0000
  H   H10       1.0  0.46504  0.52292  0.87484  1.0000
  H   H11       1.0  0.46484  0.97724  0.37484  1.0000
  H   H12       1.0  0.53497  0.47708  0.12521  1.0000
  H   H13       1.0  0.47685  0.26181  0.85306  1.0000
  H   H14       1.0  0.52286  0.76236  0.64697  1.0000
  H   H15       1.0  0.52320  0.73827  0.14695  1.0000
  H   H16       1.0  0.47709  0.23766  0.35302  1.0000
  H   H17       1.0  0.64558  0.20216  0.91367  1.0000
  H   H18       1.0  0.35444  0.70217  0.58642  1.0000
  H   H19       1.0  0.35446  0.79789  0.08631  1.0000
  H   H20       1.0  0.64553  0.29782  0.41359  1.0000
  H   H21       1.0  0.50497  0.11452  0.82099  1.0000
  H   H22       1.0  0.49538  0.61503  0.67925  1.0000
  H   H23       1.0  0.49503  0.88554  0.17903  1.0000
  H   H24       1.0  0.50463  0.38499  0.32074  1.0000
  H   H25       1.0  0.85030  0.05716  0.76933  1.0000
  H   H26       1.0  0.14955  0.55742  0.73080  1.0000
  H   H27       1.0  0.14966  0.94281  0.23066  1.0000
  H   H28       1.0  0.85048  0.44255  0.26923  1.0000
  H   H29       1.0  0.72528  0.03179  0.82713  1.0000
  H   H30       1.0  0.27450  0.53203  0.67291  1.0000
  H   H31       1.0  0.27465  0.96821  0.17285  1.0000
  H   H32       1.0  0.72555  0.46796  0.32713  1.0000
  H   H33       1.0  0.83364  0.15855  0.86972  1.0000
  H   H34       1.0  0.16624  0.65891  0.63047  1.0000
  H   H35       1.0  0.16635  0.84142  0.13029  1.0000
  H   H36       1.0  0.83377  0.34106  0.36955  1.0000
  H   H37       1.0  0.37879  0.33681  0.66140  1.0000
  H   H38       1.0  0.62072  0.83744  0.83867  1.0000
  H   H39       1.0  0.62114  0.66313  0.33857  1.0000
  H   H40       1.0  0.37933  0.16249  0.16133  1.0000
  H   H41       1.0  0.37257  0.18997  0.61082  1.0000
  H   H42       1.0  0.62720  0.69049  0.88912  1.0000
  H   H43       1.0  0.62744  0.80996  0.38920  1.0000
  H   H44       1.0  0.37279  0.30943  0.11085  1.0000
  H   H45       1.0  0.44882  0.30319  0.55908  1.0000
  H   H46       1.0  0.55075  0.80343  0.94099  1.0000
  H   H47       1.0  0.55109  0.69678  0.44087  1.0000
  H   H48       1.0  0.44932  0.19652  0.05902  1.0000
  H   H49       1.0  0.76143  0.57879  0.81098  1.0000
  H   H50       1.0  0.23836  0.07863  0.68908  1.0000
  H   H51       1.0  0.23857  0.42123  0.18901  1.0000
  H   H52       1.0  0.76166  0.92136  0.31094  1.0000
  H   H53       1.0  0.84266  0.40188  0.54588  1.0000
  H   H54       1.0  0.15723  0.90189  0.95427  1.0000
  H   H55       1.0  0.15731  0.59813  0.45409  1.0000
  H   H56       1.0  0.84281  0.09810  0.04575  1.0000
  H   H57       1.0  0.83913  0.76762  0.75735  1.0000
  H   H58       1.0  0.16096  0.26755  0.74276  1.0000
  H   H59       1.0  0.16086  0.23239  0.24263  1.0000
  H   H60       1.0  0.83900  0.73243  0.25722  1.0000
  H   H61       1.0  0.91544  0.59165  0.49122  1.0000
  H   H62       1.0  0.08453  0.09170  0.00894  1.0000
  H   H63       1.0  0.08453  0.40837  0.50876  1.0000
  H   H64       1.0  0.91547  0.90829  0.99108  1.0000
  C   C1        1.0  0.73587  0.36870  0.70299  1.0000
  C   C2        1.0  0.26378  0.86850  0.79705  1.0000
  C   C3        1.0  0.26413  0.63132  0.29699  1.0000
  C   C4        1.0  0.73628  0.13149  0.20297  1.0000
  C   C5        1.0  0.59939  0.08342  0.60065  1.0000
  C   C6        1.0  0.40076  0.58341  0.89936  1.0000
  C   C7        1.0  0.40063  0.91660  0.39933  1.0000
  C   C8        1.0  0.59924  0.41660  0.10067  1.0000
  C   C9        1.0  0.57254  0.24510  0.73341  1.0000
  C   C10       1.0  0.42713  0.74540  0.76657  1.0000
  C   C11       1.0  0.42744  0.75491  0.26656  1.0000
  C   C12       1.0  0.57289  0.25459  0.23345  1.0000
  C   C13       1.0  0.67083  0.16710  0.69874  1.0000
  C   C14       1.0  0.32918  0.66723  0.80149  1.0000
  C   C15       1.0  0.32917  0.83292  0.30125  1.0000
  C   C16       1.0  0.67082  0.33277  0.19852  1.0000
  C   C17       1.0  0.54979  0.20305  0.83751  1.0000
  C   C18       1.0  0.45018  0.70340  0.66259  1.0000
  C   C19       1.0  0.45024  0.79700  0.16249  1.0000
  C   C20       1.0  0.54981  0.29661  0.33741  1.0000
  C   C21       1.0  0.77713  0.10027  0.79828  1.0000
  C   C22       1.0  0.22272  0.60051  0.70182  1.0000
  C   C23       1.0  0.22285  0.89972  0.20172  1.0000
  C   C24       1.0  0.77730  0.39947  0.29820  1.0000
  C   C25       1.0  0.43481  0.27022  0.63452  1.0000
  C   C26       1.0  0.56488  0.77070  0.86554  1.0000
  C   C27       1.0  0.56515  0.72974  0.36546  1.0000
  C   C28       1.0  0.43516  0.22926  0.13447  1.0000
  C   C29       1.0  0.92144  0.80477  0.58220  1.0000
  C   C30       1.0  0.07870  0.30485  0.91794  1.0000
  C   C31       1.0  0.07854  0.19524  0.41778  1.0000
  C   C32       1.0  0.92128  0.69513  0.08206  1.0000
  C   C33       1.0  0.79647  0.58141  0.74181  1.0000
  C   C34       1.0  0.20341  0.08131  0.75831  1.0000
  C   C35       1.0  0.20353  0.41861  0.25818  1.0000
  C   C36       1.0  0.79661  0.91868  0.24172  1.0000
  C   C37       1.0  0.79354  0.47723  0.68052  1.0000
  C   C38       1.0  0.20617  0.97714  0.81955  1.0000
  C   C39       1.0  0.20646  0.52279  0.31947  1.0000
  C   C40       1.0  0.79386  0.02285  0.18047  1.0000
  C   C41       1.0  0.83971  0.48197  0.59092  1.0000
  C   C42       1.0  0.16011  0.98196  0.90919  1.0000
  C   C43       1.0  0.16028  0.51805  0.40907  1.0000
  C   C44       1.0  0.83993  0.01803  0.09084  1.0000
  C   C45       1.0  0.87896  0.69189  0.61898  1.0000
  C   C46       1.0  0.12115  0.19192  0.88119  1.0000
  C   C47       1.0  0.12103  0.30813  0.38100  1.0000
  C   C48       1.0  0.87884  0.80806  0.11882  1.0000
  C   C49       1.0  0.83797  0.68739  0.71050  1.0000
  C   C50       1.0  0.16212  0.18735  0.78967  1.0000
  C   C51       1.0  0.16202  0.31263  0.28948  1.0000
  C   C52       1.0  0.83787  0.81264  0.21034  1.0000
  C   C53       1.0  0.88082  0.58792  0.56088  1.0000
  C   C54       1.0  0.11914  0.08797  0.93927  1.0000
  C   C55       1.0  0.11916  0.41210  0.43909  1.0000
  C   C56       1.0  0.88087  0.91202  0.06076  1.0000
  N   N1        1.0  0.74703  0.26030  0.66249  1.0000
  N   N2        1.0  0.25335  0.76017  0.83809  1.0000
  N   N3        1.0  0.25301  0.73971  0.33753  1.0000
  N   N4        1.0  0.74666  0.23983  0.16189  1.0000
  N   N5        1.0  0.64929  0.36051  0.75851  1.0000
  N   N6        1.0  0.35012  0.86048  0.74143  1.0000
  N   N7        1.0  0.35064  0.63952  0.24142  1.0000
  N   N8        1.0  0.64994  0.13952  0.25866  1.0000
  O   O1        1.0  0.61714  0.44295  0.81172  1.0000
  O   O2        1.0  0.38160  0.94288  0.68764  1.0000
  O   O3        1.0  0.38269  0.55712  0.18811  1.0000
  O   O4        1.0  0.61857  0.05719  0.31251  1.0000
  O   O5        1.0  0.81881  0.23456  0.60459  1.0000
  O   O6        1.0  0.18364  0.73445  0.89787  1.0000
  O   O7        1.0  0.18129  0.76544  0.39549  1.0000
  O   O8        1.0  0.81630  0.26553  0.10210  1.0000
  O   O9        1.0  0.99372  0.79459  0.52298  1.0000
  O   O10       1.0  0.00600  0.29464  0.97682  1.0000
  O   O11       1.0  0.00627  0.20542  0.47700  1.0000
  O   O12       1.0  0.99396  0.70534  0.02317  1.0000
  O   O13       1.0  0.88101  0.89984  0.61202  1.0000
  O   O14       1.0  0.11945  0.39995  0.88846  1.0000
  O   O15       1.0  0.11897  0.10018  0.38795  1.0000
  O   O16       1.0  0.88053  0.60002  0.11156  1.0000
