data_image0
_chemical_formula_structural       Cd2H18C14N2O14
_chemical_formula_sum              "Cd2 H18 C14 N2 O14"
_cell_length_a       7.28855
_cell_length_b       8.30554
_cell_length_c       10.0105
_cell_angle_alpha    108.768
_cell_angle_beta     104.869
_cell_angle_gamma    104.794

_space_group_name_H-M_alt    "P 1"
_space_group_IT_number       1

loop_
  _space_group_symop_operation_xyz
  'x, y, z'

loop_
  _atom_site_type_symbol
  _atom_site_label
  _atom_site_symmetry_multiplicity
  _atom_site_fract_x
  _atom_site_fract_y
  _atom_site_fract_z
  _atom_site_occupancy
  Cd  Cd1       1.0  0.06773  0.10747  0.62529  1.0000
  Cd  Cd2       1.0  0.94290  0.48217  0.37495  1.0000
  H   H1        1.0  0.22661  0.81568  0.95207  1.0000
  H   H2        1.0  0.77468  0.86359  0.04809  1.0000
  H   H3        1.0  0.44628  0.55691  0.23635  1.0000
  H   H4        1.0  0.70803  0.31991  0.76344  1.0000
  H   H5        1.0  0.32991  0.27259  0.00160  1.0000
  H   H6        1.0  0.82748  0.27060  0.99824  1.0000
  H   H7        1.0  0.38282  0.06427  0.49358  1.0000
  H   H8        1.0  0.38919  0.57042  0.50632  1.0000
  H   H9        1.0  0.43228  0.28187  0.58699  1.0000
  H   H10       1.0  0.34568  0.69471  0.41294  1.0000
  H   H11       1.0  0.64731  0.97838  0.54280  1.0000
  H   H12       1.0  0.60429  0.43521  0.45695  1.0000
  H   H13       1.0  0.72504  0.93059  0.68504  1.0000
  H   H14       1.0  0.54034  0.24542  0.31468  1.0000
  H   H15       1.0  0.37659  0.01398  0.76010  1.0000
  H   H16       1.0  0.11684  0.25378  0.23944  1.0000
  H   H17       1.0  0.18034  0.86126  0.74334  1.0000
  H   H18       1.0  0.93774  0.11802  0.25676  1.0000
  C   C1        1.0  0.08157  0.50987  0.68310  1.0000
  C   C2        1.0  0.89995  0.82704  0.31722  1.0000
  C   C3        1.0  0.18673  0.53125  0.84185  1.0000
  C   C4        1.0  0.84541  0.68948  0.15827  1.0000
  C   C5        1.0  0.24949  0.69707  0.96651  1.0000
  C   C6        1.0  0.78293  0.73048  0.03358  1.0000
  C   C7        1.0  0.34098  0.70983  0.11235  1.0000
  C   C8        1.0  0.72779  0.59713  0.88765  1.0000
  C   C9        1.0  0.37288  0.55609  0.12661  1.0000
  C   C10       1.0  0.74511  0.42902  0.87329  1.0000
  C   C11       1.0  0.30821  0.39572  0.99585  1.0000
  C   C12       1.0  0.81174  0.39958  0.00409  1.0000
  C   C13       1.0  0.39987  0.88851  0.24702  1.0000
  C   C14       1.0  0.65200  0.64125  0.75301  1.0000
  N   N1        1.0  0.21493  0.38265  0.85649  1.0000
  N   N2        1.0  0.85872  0.52615  0.14355  1.0000
  O   O1        1.0  0.02771  0.35629  0.57204  1.0000
  O   O2        1.0  0.95730  0.78445  0.42821  1.0000
  O   O3        1.0  0.04934  0.64499  0.66326  1.0000
  O   O4        1.0  0.88798  0.98218  0.33733  1.0000
  O   O5        1.0  0.42595  0.88386  0.37793  1.0000
  O   O6        1.0  0.54711  0.50582  0.62218  1.0000
  O   O7        1.0  0.41236  0.02779  0.22052  1.0000
  O   O8        1.0  0.69121  0.80700  0.77944  1.0000
  O   O9        1.0  0.36261  0.15567  0.57575  1.0000
  O   O10       1.0  0.28711  0.57974  0.42415  1.0000
  O   O11       1.0  0.75568  0.02626  0.64413  1.0000
  O   O12       1.0  0.61185  0.38197  0.35564  1.0000
  O   O13       1.0  0.25379  0.99733  0.78454  1.0000
  O   O14       1.0  0.96982  0.21294  0.21547  1.0000
