data_image0
_chemical_formula_structural       Co2H20C8O16
_chemical_formula_sum              "Co2 H20 C8 O16"
_cell_length_a       5.2681
_cell_length_b       6.96552
_cell_length_c       12.4688
_cell_angle_alpha    90.4204
_cell_angle_beta     91.1112
_cell_angle_gamma    67.776

_space_group_name_H-M_alt    "P 1"
_space_group_IT_number       1

loop_
  _space_group_symop_operation_xyz
  'x, y, z'

loop_
  _atom_site_type_symbol
  _atom_site_label
  _atom_site_symmetry_multiplicity
  _atom_site_fract_x
  _atom_site_fract_y
  _atom_site_fract_z
  _atom_site_occupancy
  Co  Co1       1.0  0.02247  0.95531  0.24999  1.0000
  Co  Co2       1.0  0.97774  0.04438  0.75003  1.0000
  H   H1        1.0  0.31270  0.39728  0.44505  1.0000
  H   H2        1.0  0.29046  0.39697  0.05474  1.0000
  H   H3        1.0  0.68069  0.60121  0.55372  1.0000
  H   H4        1.0  0.71781  0.60128  0.94647  1.0000
  H   H5        1.0  0.59061  0.90242  0.15136  1.0000
  H   H6        1.0  0.50717  0.90211  0.34880  1.0000
  H   H7        1.0  0.41139  0.09950  0.84781  1.0000
  H   H8        1.0  0.48877  0.09993  0.65214  1.0000
  H   H9        1.0  0.70954  0.06089  0.09310  1.0000
  H   H10       1.0  0.22964  0.06126  0.40683  1.0000
  H   H11       1.0  0.29558  0.93922  0.90603  1.0000
  H   H12       1.0  0.76488  0.93935  0.59397  1.0000
  H   H13       1.0  0.44516  0.59089  0.19008  1.0000
  H   H14       1.0  0.96290  0.59154  0.31011  1.0000
  H   H15       1.0  0.55841  0.40953  0.81093  1.0000
  H   H16       1.0  0.03222  0.40967  0.68901  1.0000
  H   H17       1.0  0.31884  0.72142  0.08380  1.0000
  H   H18       1.0  0.95945  0.72190  0.41637  1.0000
  H   H19       1.0  0.68655  0.27817  0.91673  1.0000
  H   H20       1.0  0.03530  0.27840  0.58321  1.0000
  C   C1        1.0  0.75436  0.27525  0.41920  1.0000
  C   C2        1.0  0.97090  0.27475  0.08060  1.0000
  C   C3        1.0  0.23940  0.72452  0.57992  1.0000
  C   C4        1.0  0.03607  0.72445  0.92014  1.0000
  C   C5        1.0  0.49943  0.42170  0.46693  1.0000
  C   C6        1.0  0.07915  0.42144  0.03293  1.0000
  C   C7        1.0  0.49348  0.57726  0.53207  1.0000
  C   C8        1.0  0.92912  0.57726  0.96800  1.0000
  O   O1        1.0  0.72343  0.17196  0.33840  1.0000
  O   O2        1.0  0.10554  0.17116  0.16126  1.0000
  O   O3        1.0  0.27217  0.82821  0.66022  1.0000
  O   O4        1.0  0.89936  0.82830  0.83992  1.0000
  O   O5        1.0  0.98851  0.26078  0.45828  1.0000
  O   O6        1.0  0.75112  0.26027  0.04163  1.0000
  O   O7        1.0  0.00446  0.73936  0.54153  1.0000
  O   O8        1.0  0.25618  0.73929  0.95853  1.0000
  O   O9        1.0  0.75699  0.92658  0.13355  1.0000
  O   O10       1.0  0.31635  0.92685  0.36649  1.0000
  O   O11       1.0  0.24619  0.07332  0.86525  1.0000
  O   O12       1.0  0.68027  0.07345  0.63474  1.0000
  O   O13       1.0  0.36462  0.73222  0.16289  1.0000
  O   O14       1.0  0.90255  0.73286  0.33730  1.0000
  O   O15       1.0  0.63841  0.26799  0.83786  1.0000
  O   O16       1.0  0.09365  0.26811  0.66210  1.0000
