data_image0
_chemical_formula_structural       Er4H32C24N4O28
_chemical_formula_sum              "Er4 H32 C24 N4 O28"
_cell_length_a       6.55833
_cell_length_b       6.75065
_cell_length_c       19.4051
_cell_angle_alpha    93.3441
_cell_angle_beta     90
_cell_angle_gamma    89.9999

_space_group_name_H-M_alt    "P 1"
_space_group_IT_number       1

loop_
  _space_group_symop_operation_xyz
  'x, y, z'

loop_
  _atom_site_type_symbol
  _atom_site_label
  _atom_site_symmetry_multiplicity
  _atom_site_fract_x
  _atom_site_fract_y
  _atom_site_fract_z
  _atom_site_occupancy
  Er  Er1       1.0  0.75683  0.76660  0.89789  1.0000
  Er  Er2       1.0  0.74317  0.26657  0.39790  1.0000
  Er  Er3       1.0  0.24316  0.23341  0.10211  1.0000
  Er  Er4       1.0  0.25684  0.73342  0.60210  1.0000
  H   H1        1.0  0.70536  0.95483  0.03291  1.0000
  H   H2        1.0  0.79466  0.45484  0.53291  1.0000
  H   H3        1.0  0.29464  0.04518  0.96709  1.0000
  H   H4        1.0  0.20536  0.54515  0.46709  1.0000
  H   H5        1.0  0.92067  0.85107  0.03768  1.0000
  H   H6        1.0  0.57934  0.35109  0.53768  1.0000
  H   H7        1.0  0.07932  0.14893  0.96232  1.0000
  H   H8        1.0  0.42068  0.64891  0.46232  1.0000
  H   H9        1.0  0.68130  0.27178  0.79363  1.0000
  H   H10       1.0  0.81872  0.77175  0.29364  1.0000
  H   H11       1.0  0.31869  0.72822  0.20637  1.0000
  H   H12       1.0  0.18129  0.22824  0.70636  1.0000
  H   H13       1.0  0.48137  0.18868  0.84426  1.0000
  H   H14       1.0  0.01865  0.68865  0.34427  1.0000
  H   H15       1.0  0.51863  0.81133  0.15574  1.0000
  H   H16       1.0  0.98135  0.31134  0.65573  1.0000
  H   H17       1.0  0.32371  0.49584  0.74899  1.0000
  H   H18       1.0  0.17629  0.99583  0.24899  1.0000
  H   H19       1.0  0.67628  0.50417  0.25101  1.0000
  H   H20       1.0  0.82372  0.00417  0.75101  1.0000
  H   H21       1.0  0.59115  0.49200  0.73536  1.0000
  H   H22       1.0  0.90885  0.99198  0.23536  1.0000
  H   H23       1.0  0.40884  0.50801  0.26465  1.0000
  H   H24       1.0  0.09116  0.00801  0.76464  1.0000
  H   H25       1.0  0.33168  0.41717  0.92493  1.0000
  H   H26       1.0  0.16835  0.91713  0.42493  1.0000
  H   H27       1.0  0.66831  0.58285  0.07507  1.0000
  H   H28       1.0  0.83167  0.08286  0.57507  1.0000
  H   H29       1.0  0.18621  0.46576  0.85092  1.0000
  H   H30       1.0  0.31380  0.96574  0.35093  1.0000
  H   H31       1.0  0.81378  0.53424  0.14908  1.0000
  H   H32       1.0  0.68621  0.03425  0.64907  1.0000
  C   C1        1.0  0.59746  0.30509  0.84190  1.0000
  C   C2        1.0  0.90255  0.80505  0.34191  1.0000
  C   C3        1.0  0.40253  0.69492  0.15810  1.0000
  C   C4        1.0  0.09746  0.19494  0.65809  1.0000
  C   C5        1.0  0.75254  0.28799  0.89949  1.0000
  C   C6        1.0  0.74747  0.78796  0.39950  1.0000
  C   C7        1.0  0.24745  0.71202  0.10051  1.0000
  C   C8        1.0  0.25254  0.21203  0.60050  1.0000
  C   C9        1.0  0.46988  0.55552  0.76891  1.0000
  C   C10       1.0  0.03012  0.05550  0.26891  1.0000
  C   C11       1.0  0.53011  0.44450  0.23110  1.0000
  C   C12       1.0  0.96989  0.94450  0.73109  1.0000
  C   C13       1.0  0.47693  0.77786  0.76042  1.0000
  C   C14       1.0  0.02307  0.27783  0.26042  1.0000
  C   C15       1.0  0.52307  0.22215  0.23958  1.0000
  C   C16       1.0  0.97693  0.72217  0.73958  1.0000
  C   C17       1.0  0.31903  0.51609  0.88189  1.0000
  C   C18       1.0  0.18098  0.01606  0.38189  1.0000
  C   C19       1.0  0.68096  0.48392  0.11811  1.0000
  C   C20       1.0  0.81903  0.98393  0.61810  1.0000
  C   C21       1.0  0.27740  0.72088  0.91526  1.0000
  C   C22       1.0  0.22262  0.22084  0.41527  1.0000
  C   C23       1.0  0.72259  0.27913  0.08474  1.0000
  C   C24       1.0  0.77739  0.77914  0.58473  1.0000
  N   N1        1.0  0.50910  0.50498  0.84052  1.0000
  N   N2        1.0  0.99091  0.00495  0.34053  1.0000
  N   N3        1.0  0.49089  0.49503  0.15948  1.0000
  N   N4        1.0  0.00910  0.99504  0.65947  1.0000
  O   O1        1.0  0.81013  0.44687  0.93197  1.0000
  O   O2        1.0  0.68988  0.94684  0.43198  1.0000
  O   O3        1.0  0.18987  0.55314  0.06803  1.0000
  O   O4        1.0  0.31013  0.05315  0.56802  1.0000
  O   O5        1.0  0.82431  0.11644  0.90981  1.0000
  O   O6        1.0  0.67570  0.61641  0.40982  1.0000
  O   O7        1.0  0.17569  0.88357  0.09019  1.0000
  O   O8        1.0  0.32430  0.38358  0.59018  1.0000
  O   O9        1.0  0.55639  0.88621  0.80869  1.0000
  O   O10       1.0  0.94360  0.38618  0.30871  1.0000
  O   O11       1.0  0.44361  0.11381  0.19130  1.0000
  O   O12       1.0  0.05641  0.61381  0.69129  1.0000
  O   O13       1.0  0.41138  0.84330  0.70455  1.0000
  O   O14       1.0  0.08860  0.34328  0.20456  1.0000
  O   O15       1.0  0.58861  0.15671  0.29545  1.0000
  O   O16       1.0  0.91139  0.65672  0.79544  1.0000
  O   O17       1.0  0.09772  0.78569  0.91919  1.0000
  O   O18       1.0  0.40229  0.28566  0.41920  1.0000
  O   O19       1.0  0.90227  0.21432  0.08080  1.0000
  O   O20       1.0  0.59772  0.71433  0.58080  1.0000
  O   O21       1.0  0.42961  0.81936  0.94076  1.0000
  O   O22       1.0  0.07041  0.31934  0.44077  1.0000
  O   O23       1.0  0.57038  0.18065  0.05924  1.0000
  O   O24       1.0  0.92960  0.68065  0.55923  1.0000
  O   O25       1.0  0.78213  0.83271  0.01793  1.0000
  O   O26       1.0  0.71788  0.33272  0.51794  1.0000
  O   O27       1.0  0.21786  0.16729  0.98207  1.0000
  O   O28       1.0  0.28213  0.66727  0.48206  1.0000
