data_image0
_chemical_formula_structural       Cu2H26C36N6O8
_chemical_formula_sum              "Cu2 H26 C36 N6 O8"
_cell_length_a       7.96528
_cell_length_b       9.92717
_cell_length_c       10.5241
_cell_angle_alpha    105.575
_cell_angle_beta     94.5596
_cell_angle_gamma    97.824

_space_group_name_H-M_alt    "P 1"
_space_group_IT_number       1

loop_
  _space_group_symop_operation_xyz
  'x, y, z'

loop_
  _atom_site_type_symbol
  _atom_site_label
  _atom_site_symmetry_multiplicity
  _atom_site_fract_x
  _atom_site_fract_y
  _atom_site_fract_z
  _atom_site_occupancy
  Cu  Cu1       1.0  0.58441  0.89657  0.73568  1.0000
  Cu  Cu2       1.0  0.41558  0.10342  0.26430  1.0000
  H   H1        1.0  0.10886  0.95966  0.86539  1.0000
  H   H2        1.0  0.89114  0.04033  0.13463  1.0000
  H   H3        1.0  0.56620  0.61825  0.57645  1.0000
  H   H4        1.0  0.43382  0.38176  0.42353  1.0000
  H   H5        1.0  0.74537  0.42272  0.54204  1.0000
  H   H6        1.0  0.25463  0.57728  0.45798  1.0000
  H   H7        1.0  0.05132  0.48719  0.65118  1.0000
  H   H8        1.0  0.94866  0.51277  0.34886  1.0000
  H   H9        1.0  0.16334  0.73418  0.78404  1.0000
  H   H10       1.0  0.83666  0.26581  0.21600  1.0000
  H   H11       1.0  0.15617  0.18794  0.94641  1.0000
  H   H12       1.0  0.84382  0.81207  0.05358  1.0000
  H   H13       1.0  0.06809  0.42017  0.94691  1.0000
  H   H14       1.0  0.93189  0.57983  0.05304  1.0000
  H   H15       1.0  0.77343  0.42015  0.83376  1.0000
  H   H16       1.0  0.22654  0.57985  0.16622  1.0000
  H   H17       1.0  0.58701  0.18586  0.72931  1.0000
  H   H18       1.0  0.41298  0.81412  0.27070  1.0000
  H   H19       1.0  0.03846  0.74758  0.43365  1.0000
  H   H20       1.0  0.96152  0.25242  0.56636  1.0000
  H   H21       1.0  0.23307  0.18192  0.64396  1.0000
  H   H22       1.0  0.76693  0.81809  0.35603  1.0000
  H   H23       1.0  0.63322  0.73579  0.14981  1.0000
  H   H24       1.0  0.36677  0.26423  0.85022  1.0000
  H   H25       1.0  0.38070  0.48198  0.76911  1.0000
  H   H26       1.0  0.61934  0.51804  0.23090  1.0000
  C   C1        1.0  0.69919  0.63675  0.61959  1.0000
  C   C2        1.0  0.30083  0.36327  0.38041  1.0000
  C   C3        1.0  0.79859  0.53079  0.60082  1.0000
  C   C4        1.0  0.20143  0.46922  0.39919  1.0000
  C   C5        1.0  0.96766  0.56680  0.66320  1.0000
  C   C6        1.0  0.03234  0.43319  0.33681  1.0000
  C   C7        1.0  0.03054  0.70408  0.73878  1.0000
  C   C8        1.0  0.96946  0.29593  0.26124  1.0000
  C   C9        1.0  0.92086  0.80595  0.75265  1.0000
  C   C10       1.0  0.07915  0.19404  0.24736  1.0000
  C   C11       1.0  0.92047  0.06760  0.83429  1.0000
  C   C12       1.0  0.07953  0.93240  0.16571  1.0000
  C   C13       1.0  0.03105  0.19441  0.89994  1.0000
  C   C14       1.0  0.96896  0.80560  0.10005  1.0000
  C   C15       1.0  0.98004  0.32199  0.90011  1.0000
  C   C16       1.0  0.01995  0.67800  0.09987  1.0000
  C   C17       1.0  0.81895  0.32251  0.83708  1.0000
  C   C18       1.0  0.18103  0.67747  0.16290  1.0000
  C   C19       1.0  0.71438  0.19359  0.77850  1.0000
  C   C20       1.0  0.28558  0.80639  0.22149  1.0000
  C   C21       1.0  0.31203  0.91474  0.59009  1.0000
  C   C22       1.0  0.68797  0.08527  0.40991  1.0000
  C   C23       1.0  0.15162  0.95990  0.54381  1.0000
  C   C24       1.0  0.84837  0.04009  0.45618  1.0000
  C   C25       1.0  0.02004  0.85789  0.46227  1.0000
  C   C26       1.0  0.97995  0.14211  0.53773  1.0000
  C   C27       1.0  0.13031  0.10259  0.58121  1.0000
  C   C28       1.0  0.86968  0.89742  0.41878  1.0000
  C   C29       1.0  0.52914  0.75104  0.90614  1.0000
  C   C30       1.0  0.47088  0.24897  0.09387  1.0000
  C   C31       1.0  0.50819  0.62168  0.95521  1.0000
  C   C32       1.0  0.49181  0.37834  0.04480  1.0000
  C   C33       1.0  0.57632  0.63149  0.08504  1.0000
  C   C34       1.0  0.42369  0.36852  0.91498  1.0000
  C   C35       1.0  0.43143  0.48891  0.87042  1.0000
  C   C36       1.0  0.56858  0.51110  0.12959  1.0000
  N   N1        1.0  0.75796  0.77126  0.69514  1.0000
  N   N2        1.0  0.24205  0.22873  0.30485  1.0000
  N   N3        1.0  0.76194  0.06799  0.77847  1.0000
  N   N4        1.0  0.23804  0.93201  0.22151  1.0000
  N   N5        1.0  0.98341  0.94290  0.82767  1.0000
  N   N6        1.0  0.01659  0.05708  0.17234  1.0000
  O   O1        1.0  0.38988  0.99206  0.70514  1.0000
  O   O2        1.0  0.61012  0.00793  0.29485  1.0000
  O   O3        1.0  0.36395  0.80780  0.52134  1.0000
  O   O4        1.0  0.63605  0.19220  0.47865  1.0000
  O   O5        1.0  0.44415  0.74041  0.79243  1.0000
  O   O6        1.0  0.55586  0.25958  0.20758  1.0000
  O   O7        1.0  0.63372  0.85921  0.97029  1.0000
  O   O8        1.0  0.36631  0.14079  0.02970  1.0000
