data_image0
_chemical_formula_structural       Sn2H50C60N2O8
_chemical_formula_sum              "Sn2 H50 C60 N2 O8"
_cell_length_a       9.75025
_cell_length_b       11.2977
_cell_length_c       12.0571
_cell_angle_alpha    73.1377
_cell_angle_beta     87.0804
_cell_angle_gamma    79.8165

_space_group_name_H-M_alt    "P 1"
_space_group_IT_number       1

loop_
  _space_group_symop_operation_xyz
  'x, y, z'

loop_
  _atom_site_type_symbol
  _atom_site_label
  _atom_site_symmetry_multiplicity
  _atom_site_fract_x
  _atom_site_fract_y
  _atom_site_fract_z
  _atom_site_occupancy
  Sn  Sn1       1.0  0.12089  0.21601  0.36489  1.0000
  Sn  Sn2       1.0  0.87911  0.78399  0.63511  1.0000
  H   H1        1.0  0.00648  0.11523  0.61779  1.0000
  H   H2        1.0  0.99352  0.88477  0.38221  1.0000
  H   H3        1.0  0.10224  0.00634  0.81310  1.0000
  H   H4        1.0  0.89776  0.99366  0.18690  1.0000
  H   H5        1.0  0.36006  0.95428  0.84456  1.0000
  H   H6        1.0  0.63994  0.04572  0.15544  1.0000
  H   H7        1.0  0.51890  0.00351  0.67632  1.0000
  H   H8        1.0  0.48110  0.99649  0.32368  1.0000
  H   H9        1.0  0.42367  0.10900  0.47931  1.0000
  H   H10       1.0  0.57633  0.89100  0.52069  1.0000
  H   H11       1.0  0.03436  0.23890  0.10623  1.0000
  H   H12       1.0  0.96564  0.76110  0.89377  1.0000
  H   H13       1.0  0.09435  0.11014  0.96930  1.0000
  H   H14       1.0  0.90565  0.88986  0.03071  1.0000
  H   H15       1.0  0.23436  0.89504  0.03785  1.0000
  H   H16       1.0  0.76564  0.10496  0.96215  1.0000
  H   H17       1.0  0.31343  0.81073  0.24322  1.0000
  H   H18       1.0  0.68658  0.18927  0.75678  1.0000
  H   H19       1.0  0.26112  0.94164  0.37718  1.0000
  H   H20       1.0  0.73887  0.05835  0.62282  1.0000
  H   H21       1.0  0.04322  0.42901  0.12365  1.0000
  H   H22       1.0  0.95678  0.57099  0.87635  1.0000
  H   H23       1.0  0.00327  0.66052  0.05932  1.0000
  H   H24       1.0  0.99673  0.33948  0.94068  1.0000
  H   H25       1.0  0.02650  0.78093  0.19884  1.0000
  H   H26       1.0  0.97350  0.21907  0.80116  1.0000
  H   H27       1.0  0.09012  0.66800  0.40380  1.0000
  H   H28       1.0  0.90987  0.33200  0.59620  1.0000
  H   H29       1.0  0.12793  0.43593  0.46977  1.0000
  H   H30       1.0  0.87207  0.56407  0.53023  1.0000
  H   H31       1.0  0.68386  0.30302  0.50431  1.0000
  H   H32       1.0  0.31614  0.69698  0.49569  1.0000
  H   H33       1.0  0.45983  0.32041  0.44411  1.0000
  H   H34       1.0  0.54017  0.67959  0.55589  1.0000
  H   H35       1.0  0.33073  0.25778  0.10008  1.0000
  H   H36       1.0  0.66927  0.74222  0.89992  1.0000
  H   H37       1.0  0.28147  0.29047  0.89350  1.0000
  H   H38       1.0  0.71853  0.70953  0.10650  1.0000
  H   H39       1.0  0.67646  0.41280  0.79854  1.0000
  H   H40       1.0  0.32354  0.58720  0.20146  1.0000
  H   H41       1.0  0.72282  0.38758  0.00574  1.0000
  H   H42       1.0  0.27719  0.61242  0.99426  1.0000
  H   H43       1.0  0.30467  0.41860  0.57096  1.0000
  H   H44       1.0  0.69533  0.58140  0.42904  1.0000
  H   H45       1.0  0.22942  0.44021  0.70453  1.0000
  H   H46       1.0  0.77058  0.55980  0.29547  1.0000
  H   H47       1.0  0.27602  0.28713  0.68853  1.0000
  H   H48       1.0  0.72397  0.71287  0.31147  1.0000
  H   H49       1.0  0.66399  0.32538  0.19347  1.0000
  H   H50       1.0  0.33601  0.67462  0.80653  1.0000
  C   C1        1.0  0.20804  0.12317  0.53432  1.0000
  C   C2        1.0  0.79196  0.87683  0.46568  1.0000
  C   C3        1.0  0.11899  0.09248  0.62963  1.0000
  C   C4        1.0  0.88101  0.90752  0.37037  1.0000
  C   C5        1.0  0.17332  0.03141  0.74063  1.0000
  C   C6        1.0  0.82668  0.96859  0.25937  1.0000
  C   C7        1.0  0.31719  0.00100  0.75799  1.0000
  C   C8        1.0  0.68281  0.99900  0.24201  1.0000
  C   C9        1.0  0.40659  0.02915  0.66331  1.0000
  C   C10       1.0  0.59341  0.97085  0.33669  1.0000
  C   C11       1.0  0.35238  0.08903  0.55218  1.0000
  C   C12       1.0  0.64762  0.91097  0.44781  1.0000
  C   C13       1.0  0.14774  0.10135  0.24965  1.0000
  C   C14       1.0  0.85226  0.89865  0.75035  1.0000
  C   C15       1.0  0.09963  0.14681  0.13505  1.0000
  C   C16       1.0  0.90037  0.85319  0.86495  1.0000
  C   C17       1.0  0.13151  0.07365  0.05856  1.0000
  C   C18       1.0  0.86849  0.92636  0.94144  1.0000
  C   C19       1.0  0.20988  0.95315  0.09681  1.0000
  C   C20       1.0  0.79012  0.04685  0.90320  1.0000
  C   C21       1.0  0.25534  0.90572  0.21176  1.0000
  C   C22       1.0  0.74466  0.09428  0.78824  1.0000
  C   C23       1.0  0.22508  0.97998  0.28749  1.0000
  C   C24       1.0  0.77492  0.02001  0.71252  1.0000
  C   C25       1.0  0.08925  0.41593  0.30151  1.0000
  C   C26       1.0  0.91075  0.58407  0.69849  1.0000
  C   C27       1.0  0.05409  0.48023  0.18579  1.0000
  C   C28       1.0  0.94591  0.51977  0.81421  1.0000
  C   C29       1.0  0.03113  0.61118  0.14928  1.0000
  C   C30       1.0  0.96887  0.38882  0.85072  1.0000
  C   C31       1.0  0.04368  0.67886  0.22745  1.0000
  C   C32       1.0  0.95632  0.32114  0.77255  1.0000
  C   C33       1.0  0.07951  0.61558  0.34259  1.0000
  C   C34       1.0  0.92049  0.38442  0.65741  1.0000
  C   C35       1.0  0.10171  0.48455  0.37928  1.0000
  C   C36       1.0  0.89829  0.51545  0.62072  1.0000
  C   C37       1.0  0.80838  0.26599  0.35927  1.0000
  C   C38       1.0  0.19162  0.73401  0.64073  1.0000
  C   C39       1.0  0.67332  0.29184  0.41837  1.0000
  C   C40       1.0  0.32668  0.70816  0.58163  1.0000
  C   C41       1.0  0.54167  0.30240  0.38298  1.0000
  C   C42       1.0  0.45833  0.69760  0.61702  1.0000
  C   C43       1.0  0.48425  0.28764  0.27718  1.0000
  C   C44       1.0  0.51575  0.71236  0.72282  1.0000
  C   C45       1.0  0.52928  0.32162  0.06657  1.0000
  C   C46       1.0  0.47072  0.67838  0.93343  1.0000
  C   C47       1.0  0.40494  0.29346  0.03412  1.0000
  C   C48       1.0  0.59506  0.70653  0.96588  1.0000
  C   C49       1.0  0.37861  0.31206  0.91742  1.0000
  C   C50       1.0  0.62139  0.68793  0.08258  1.0000
  C   C51       1.0  0.47555  0.35463  0.83141  1.0000
  C   C52       1.0  0.52445  0.64537  0.16859  1.0000
  C   C53       1.0  0.60111  0.37954  0.86512  1.0000
  C   C54       1.0  0.39889  0.62046  0.13488  1.0000
  C   C55       1.0  0.62732  0.36433  0.98050  1.0000
  C   C56       1.0  0.37268  0.63567  0.01950  1.0000
  C   C57       1.0  0.45216  0.37045  0.70701  1.0000
  C   C58       1.0  0.54784  0.62955  0.29299  1.0000
  C   C59       1.0  0.30631  0.38070  0.66545  1.0000
  C   C60       1.0  0.69369  0.61930  0.33455  1.0000
  N   N1        1.0  0.56298  0.31309  0.17976  1.0000
  N   N2        1.0  0.43702  0.68691  0.82024  1.0000
  O   O1        1.0  0.91095  0.21251  0.43191  1.0000
  O   O2        1.0  0.08905  0.78749  0.56809  1.0000
  O   O3        1.0  0.82304  0.29792  0.25119  1.0000
  O   O4        1.0  0.17696  0.70208  0.74881  1.0000
  O   O5        1.0  0.36612  0.25714  0.28049  1.0000
  O   O6        1.0  0.63389  0.74286  0.71951  1.0000
  O   O7        1.0  0.55178  0.37400  0.63872  1.0000
  O   O8        1.0  0.44822  0.62600  0.36128  1.0000
