data_image0
_chemical_formula_structural       Ba2P6H30C12O26
_chemical_formula_sum              "Ba2 P6 H30 C12 O26"
_cell_length_a       7.25905
_cell_length_b       11.1227
_cell_length_c       11.1733
_cell_angle_alpha    65.7422
_cell_angle_beta     73.2999
_cell_angle_gamma    73.2072

_space_group_name_H-M_alt    "P 1"
_space_group_IT_number       1

loop_
  _space_group_symop_operation_xyz
  'x, y, z'

loop_
  _atom_site_type_symbol
  _atom_site_label
  _atom_site_symmetry_multiplicity
  _atom_site_fract_x
  _atom_site_fract_y
  _atom_site_fract_z
  _atom_site_occupancy
  Ba  Ba1       1.0  0.85514  0.14150  0.23122  1.0000
  Ba  Ba2       1.0  0.14486  0.85850  0.76878  1.0000
  P   P1        1.0  0.40944  0.46982  0.20579  1.0000
  P   P2        1.0  0.59056  0.53018  0.79421  1.0000
  P   P3        1.0  0.02040  0.78212  0.51553  1.0000
  P   P4        1.0  0.97960  0.21788  0.48447  1.0000
  P   P5        1.0  0.35015  0.23652  0.75176  1.0000
  P   P6        1.0  0.64985  0.76348  0.24824  1.0000
  H   H1        1.0  0.18669  0.35601  0.23354  1.0000
  H   H2        1.0  0.81330  0.64399  0.76646  1.0000
  H   H3        1.0  0.16050  0.68945  0.29350  1.0000
  H   H4        1.0  0.83950  0.31055  0.70651  1.0000
  H   H5        1.0  0.52420  0.65847  0.11343  1.0000
  H   H6        1.0  0.47580  0.34153  0.88657  1.0000
  H   H7        1.0  0.15437  0.52003  0.71780  1.0000
  H   H8        1.0  0.84563  0.47997  0.28220  1.0000
  H   H9        1.0  0.30151  0.85137  0.42085  1.0000
  H   H10       1.0  0.69849  0.14863  0.57915  1.0000
  H   H11       1.0  0.45684  0.28271  0.46970  1.0000
  H   H12       1.0  0.54316  0.71730  0.53030  1.0000
  H   H13       1.0  0.13096  0.16525  0.70824  1.0000
  H   H14       1.0  0.86904  0.83476  0.29176  1.0000
  H   H15       1.0  0.77913  0.05730  0.97908  1.0000
  H   H16       1.0  0.22087  0.94270  0.02092  1.0000
  H   H17       1.0  0.72766  0.21139  0.96186  1.0000
  H   H18       1.0  0.27234  0.78861  0.03814  1.0000
  H   H19       1.0  0.48523  0.00008  0.31828  1.0000
  H   H20       1.0  0.51477  0.99992  0.68172  1.0000
  H   H21       1.0  0.35661  0.13098  0.34212  1.0000
  H   H22       1.0  0.64339  0.86902  0.65788  1.0000
  H   H23       1.0  0.90986  0.43064  0.97178  1.0000
  H   H24       1.0  0.09014  0.56936  0.02822  1.0000
  H   H25       1.0  0.11509  0.33325  0.96041  1.0000
  H   H26       1.0  0.88491  0.66675  0.03959  1.0000
  H   H27       1.0  0.30422  0.11634  0.03611  1.0000
  H   H28       1.0  0.69578  0.88366  0.96389  1.0000
  H   H29       1.0  0.33740  0.98280  0.16454  1.0000
  H   H30       1.0  0.66260  0.01720  0.83546  1.0000
  C   C1        1.0  0.31679  0.48483  0.36804  1.0000
  C   C2        1.0  0.68321  0.51517  0.63197  1.0000
  C   C3        1.0  0.20174  0.60500  0.38158  1.0000
  C   C4        1.0  0.79827  0.39500  0.61842  1.0000
  C   C5        1.0  0.14359  0.61845  0.50706  1.0000
  C   C6        1.0  0.85641  0.38155  0.49295  1.0000
  C   C7        1.0  0.19685  0.50940  0.62025  1.0000
  C   C8        1.0  0.80315  0.49060  0.37975  1.0000
  C   C9        1.0  0.30665  0.38725  0.60775  1.0000
  C   C10       1.0  0.69335  0.61275  0.39225  1.0000
  C   C11       1.0  0.36812  0.37616  0.48122  1.0000
  C   C12       1.0  0.63188  0.62385  0.51878  1.0000
  O   O1        1.0  0.59752  0.36986  0.20896  1.0000
  O   O2        1.0  0.40248  0.63014  0.79104  1.0000
  O   O3        1.0  0.24039  0.43938  0.16555  1.0000
  O   O4        1.0  0.75961  0.56062  0.83445  1.0000
  O   O5        1.0  0.42266  0.61610  0.10177  1.0000
  O   O6        1.0  0.57734  0.38390  0.89823  1.0000
  O   O7        1.0  0.92035  0.86417  0.39660  1.0000
  O   O8        1.0  0.07965  0.13583  0.60340  1.0000
  O   O9        1.0  0.19504  0.85057  0.50359  1.0000
  O   O10       1.0  0.80496  0.14943  0.49641  1.0000
  O   O11       1.0  0.89632  0.76996  0.65440  1.0000
  O   O12       1.0  0.10368  0.23004  0.34560  1.0000
  O   O13       1.0  0.34533  0.26891  0.87331  1.0000
  O   O14       1.0  0.65466  0.73109  0.12669  1.0000
  O   O15       1.0  0.16455  0.17228  0.78837  1.0000
  O   O16       1.0  0.83545  0.82772  0.21163  1.0000
  O   O17       1.0  0.53875  0.14386  0.71156  1.0000
  O   O18       1.0  0.46125  0.85614  0.28844  1.0000
  O   O19       1.0  0.76824  0.12038  0.02355  1.0000
  O   O20       1.0  0.23177  0.87962  0.97645  1.0000
  O   O21       1.0  0.49234  0.08021  0.33225  1.0000
  O   O22       1.0  0.50766  0.91980  0.66774  1.0000
  O   O23       1.0  0.99434  0.35175  0.02392  1.0000
  O   O24       1.0  0.00566  0.64825  0.97608  1.0000
  O   O25       1.0  0.24062  0.04418  0.10768  1.0000
  O   O26       1.0  0.75938  0.95582  0.89232  1.0000
