data_image0
_chemical_formula_structural       Na2P2H16C24N4O16
_chemical_formula_sum              "Na2 P2 H16 C24 N4 O16"
_cell_length_a       7.0511
_cell_length_b       9.75234
_cell_length_c       11.2713
_cell_angle_alpha    104.629
_cell_angle_beta     107.077
_cell_angle_gamma    104.741

_space_group_name_H-M_alt    "P 1"
_space_group_IT_number       1

loop_
  _space_group_symop_operation_xyz
  'x, y, z'

loop_
  _atom_site_type_symbol
  _atom_site_label
  _atom_site_symmetry_multiplicity
  _atom_site_fract_x
  _atom_site_fract_y
  _atom_site_fract_z
  _atom_site_occupancy
  Na  Na1       1.0  0.75673  0.41031  0.38923  1.0000
  Na  Na2       1.0  0.24318  0.58965  0.61075  1.0000
  P   P1        1.0  0.19405  0.36861  0.29383  1.0000
  P   P2        1.0  0.80593  0.63135  0.70614  1.0000
  H   H1        1.0  0.15473  0.57384  0.00464  1.0000
  H   H2        1.0  0.84523  0.42624  0.99536  1.0000
  H   H3        1.0  0.31626  0.84659  0.04252  1.0000
  H   H4        1.0  0.68374  0.15334  0.95744  1.0000
  H   H5        1.0  0.59702  0.93846  0.46226  1.0000
  H   H6        1.0  0.40304  0.06151  0.53776  1.0000
  H   H7        1.0  0.43931  0.66611  0.42617  1.0000
  H   H8        1.0  0.56062  0.33392  0.57384  1.0000
  H   H9        1.0  0.79350  0.94833  0.99164  1.0000
  H   H10       1.0  0.20648  0.05167  0.00838  1.0000
  H   H11       1.0  0.69298  0.69618  0.01711  1.0000
  H   H12       1.0  0.30709  0.30383  0.98293  1.0000
  H   H13       1.0  0.06381  0.90747  0.43655  1.0000
  H   H14       1.0  0.93620  0.09254  0.56342  1.0000
  H   H15       1.0  0.16546  0.16167  0.41284  1.0000
  H   H16       1.0  0.83451  0.83833  0.58714  1.0000
  C   C1        1.0  0.28171  0.60317  0.21232  1.0000
  C   C2        1.0  0.71833  0.39680  0.78764  1.0000
  C   C3        1.0  0.24828  0.65465  0.10470  1.0000
  C   C4        1.0  0.75172  0.34535  0.89528  1.0000
  C   C5        1.0  0.33865  0.80667  0.12557  1.0000
  C   C6        1.0  0.66130  0.19334  0.87440  1.0000
  C   C7        1.0  0.46311  0.90758  0.25543  1.0000
  C   C8        1.0  0.53686  0.09242  0.74457  1.0000
  C   C9        1.0  0.49826  0.85734  0.36299  1.0000
  C   C10       1.0  0.50168  0.14266  0.63701  1.0000
  C   C11       1.0  0.40853  0.70509  0.34234  1.0000
  C   C12       1.0  0.59147  0.29490  0.65764  1.0000
  C   C13       1.0  0.98715  0.06967  0.19986  1.0000
  C   C14       1.0  0.01292  0.93034  0.80015  1.0000
  C   C15       1.0  0.85527  0.93847  0.08829  1.0000
  C   C16       1.0  0.14478  0.06153  0.91173  1.0000
  C   C17       1.0  0.79835  0.79822  0.10214  1.0000
  C   C18       1.0  0.20163  0.20177  0.89790  1.0000
  C   C19       1.0  0.87400  0.79069  0.22892  1.0000
  C   C20       1.0  0.12605  0.20930  0.77110  1.0000
  C   C21       1.0  0.00773  0.91977  0.34042  1.0000
  C   C22       1.0  0.99233  0.08020  0.65958  1.0000
  C   C23       1.0  0.06506  0.05989  0.32639  1.0000
  C   C24       1.0  0.93492  0.94009  0.67362  1.0000
  N   N1        1.0  0.56302  0.06597  0.27930  1.0000
  N   N2        1.0  0.43681  0.93406  0.72071  1.0000
  N   N3        1.0  0.80461  0.64850  0.24838  1.0000
  N   N4        1.0  0.19531  0.35153  0.75164  1.0000
  O   O1        1.0  0.53348  0.11165  0.18396  1.0000
  O   O2        1.0  0.46655  0.88838  0.81603  1.0000
  O   O3        1.0  0.67903  0.15275  0.39623  1.0000
  O   O4        1.0  0.32100  0.84728  0.60376  1.0000
  O   O5        1.0  0.70202  0.52934  0.15005  1.0000
  O   O6        1.0  0.29807  0.47067  0.84998  1.0000
  O   O7        1.0  0.84814  0.65176  0.36519  1.0000
  O   O8        1.0  0.15186  0.34823  0.63482  1.0000
  O   O9        1.0  0.18614  0.45159  0.18190  1.0000
  O   O10       1.0  0.81395  0.54839  0.81808  1.0000
  O   O11       1.0  0.02946  0.20333  0.17782  1.0000
  O   O12       1.0  0.97058  0.79669  0.82222  1.0000
  O   O13       1.0  0.40801  0.36130  0.35220  1.0000
  O   O14       1.0  0.59200  0.63874  0.64777  1.0000
  O   O15       1.0  0.08682  0.42848  0.38042  1.0000
  O   O16       1.0  0.91316  0.57148  0.61959  1.0000
