data_image0
_chemical_formula_structural       Mg4H56C24O44
_chemical_formula_sum              "Mg4 H56 C24 O44"
_cell_length_a       5.79444
_cell_length_b       10.4289
_cell_length_c       17.9763
_cell_angle_alpha    90
_cell_angle_beta     90
_cell_angle_gamma    90

_space_group_name_H-M_alt    "P 1"
_space_group_IT_number       1

loop_
  _space_group_symop_operation_xyz
  'x, y, z'

loop_
  _atom_site_type_symbol
  _atom_site_label
  _atom_site_symmetry_multiplicity
  _atom_site_fract_x
  _atom_site_fract_y
  _atom_site_fract_z
  _atom_site_occupancy
  Mg  Mg1       1.0  0.33935  0.67580  0.14723  1.0000
  Mg  Mg2       1.0  0.16065  0.32420  0.64722  1.0000
  Mg  Mg3       1.0  0.66064  0.17580  0.35278  1.0000
  Mg  Mg4       1.0  0.83935  0.82420  0.85277  1.0000
  H   H1        1.0  0.20653  0.59282  0.28494  1.0000
  H   H2        1.0  0.29347  0.40718  0.78494  1.0000
  H   H3        1.0  0.79347  0.09283  0.21506  1.0000
  H   H4        1.0  0.70653  0.90718  0.71506  1.0000
  H   H5        1.0  0.36639  0.71510  0.29346  1.0000
  H   H6        1.0  0.13361  0.28490  0.79346  1.0000
  H   H7        1.0  0.63361  0.21510  0.20654  1.0000
  H   H8        1.0  0.86639  0.78490  0.70654  1.0000
  H   H9        1.0  0.79908  0.69053  0.15513  1.0000
  H   H10       1.0  0.70092  0.30947  0.65513  1.0000
  H   H11       1.0  0.20092  0.19053  0.34487  1.0000
  H   H12       1.0  0.29907  0.80947  0.84487  1.0000
  H   H13       1.0  0.75152  0.54293  0.15117  1.0000
  H   H14       1.0  0.74848  0.45707  0.65117  1.0000
  H   H15       1.0  0.24848  0.04293  0.34883  1.0000
  H   H16       1.0  0.25152  0.95707  0.84883  1.0000
  H   H17       1.0  0.50065  0.63420  0.00780  1.0000
  H   H18       1.0  0.99935  0.36580  0.50780  1.0000
  H   H19       1.0  0.49935  0.13420  0.49220  1.0000
  H   H20       1.0  0.00065  0.86580  0.99220  1.0000
  H   H21       1.0  0.40721  0.77639  0.01387  1.0000
  H   H22       1.0  0.09279  0.22361  0.51387  1.0000
  H   H23       1.0  0.59279  0.27639  0.48613  1.0000
  H   H24       1.0  0.90721  0.72361  0.98613  1.0000
  H   H25       1.0  0.59186  0.90632  0.15763  1.0000
  H   H26       1.0  0.90815  0.09368  0.65763  1.0000
  H   H27       1.0  0.40814  0.40632  0.34237  1.0000
  H   H28       1.0  0.09185  0.59368  0.84237  1.0000
  H   H29       1.0  0.29074  0.02167  0.97281  1.0000
  H   H30       1.0  0.20926  0.97833  0.47281  1.0000
  H   H31       1.0  0.70926  0.52166  0.52719  1.0000
  H   H32       1.0  0.79075  0.47834  0.02719  1.0000
  H   H33       1.0  0.05938  0.23482  0.97928  1.0000
  H   H34       1.0  0.44061  0.76518  0.47928  1.0000
  H   H35       1.0  0.94061  0.73482  0.52072  1.0000
  H   H36       1.0  0.55939  0.26518  0.02072  1.0000
  H   H37       1.0  0.47713  0.37257  0.14235  1.0000
  H   H38       1.0  0.02287  0.62744  0.64234  1.0000
  H   H39       1.0  0.52287  0.87256  0.35766  1.0000
  H   H40       1.0  0.97713  0.12744  0.85766  1.0000
  H   H41       1.0  0.26163  0.02728  0.20116  1.0000
  H   H42       1.0  0.23837  0.97272  0.70116  1.0000
  H   H43       1.0  0.73838  0.52727  0.29884  1.0000
  H   H44       1.0  0.76163  0.47272  0.79884  1.0000
  H   H45       1.0  0.47089  0.07752  0.08074  1.0000
  H   H46       1.0  0.02911  0.92249  0.58074  1.0000
  H   H47       1.0  0.52911  0.57751  0.41926  1.0000
  H   H48       1.0  0.97089  0.42248  0.91926  1.0000
  H   H49       1.0  0.95711  0.15126  0.08201  1.0000
  H   H50       1.0  0.54289  0.84874  0.58201  1.0000
  H   H51       1.0  0.04289  0.65126  0.41799  1.0000
  H   H52       1.0  0.45711  0.34874  0.91799  1.0000
  H   H53       1.0  0.14310  0.22829  0.19640  1.0000
  H   H54       1.0  0.35690  0.77172  0.69640  1.0000
  H   H55       1.0  0.85690  0.72828  0.30359  1.0000
  H   H56       1.0  0.64310  0.27172  0.80359  1.0000
  C   C1        1.0  0.02349  0.89644  0.14993  1.0000
  C   C2        1.0  0.47652  0.10356  0.64993  1.0000
  C   C3        1.0  0.97653  0.39644  0.35007  1.0000
  C   C4        1.0  0.52349  0.60356  0.85007  1.0000
  C   C5        1.0  0.25626  0.96528  0.15147  1.0000
  C   C6        1.0  0.24375  0.03472  0.65147  1.0000
  C   C7        1.0  0.74375  0.46527  0.34853  1.0000
  C   C8        1.0  0.75625  0.53472  0.84853  1.0000
  C   C9        1.0  0.28769  0.04889  0.08175  1.0000
  C   C10       1.0  0.21231  0.95111  0.58175  1.0000
  C   C11       1.0  0.71232  0.54889  0.41825  1.0000
  C   C12       1.0  0.78768  0.45111  0.91825  1.0000
  C   C13       1.0  0.14224  0.17313  0.07950  1.0000
  C   C14       1.0  0.35776  0.82687  0.57950  1.0000
  C   C15       1.0  0.85777  0.67313  0.42049  1.0000
  C   C16       1.0  0.64223  0.32687  0.92050  1.0000
  C   C17       1.0  0.20599  0.26524  0.14259  1.0000
  C   C18       1.0  0.29401  0.73476  0.64259  1.0000
  C   C19       1.0  0.79401  0.76524  0.35741  1.0000
  C   C20       1.0  0.70599  0.23476  0.85741  1.0000
  C   C21       1.0  0.09893  0.39940  0.13175  1.0000
  C   C22       1.0  0.40107  0.60060  0.63175  1.0000
  C   C23       1.0  0.90107  0.89940  0.36825  1.0000
  C   C24       1.0  0.59893  0.10060  0.86825  1.0000
  O   O1        1.0  0.25899  0.67094  0.25852  1.0000
  O   O2        1.0  0.24100  0.32906  0.75852  1.0000
  O   O3        1.0  0.74100  0.17094  0.24148  1.0000
  O   O4        1.0  0.75899  0.82906  0.74148  1.0000
  O   O5        1.0  0.67805  0.62529  0.16732  1.0000
  O   O6        1.0  0.82196  0.37471  0.66732  1.0000
  O   O7        1.0  0.32196  0.12529  0.33268  1.0000
  O   O8        1.0  0.17804  0.87471  0.83268  1.0000
  O   O9        1.0  0.38194  0.68870  0.03149  1.0000
  O   O10       1.0  0.11806  0.31130  0.53149  1.0000
  O   O11       1.0  0.61806  0.18870  0.46851  1.0000
  O   O12       1.0  0.88194  0.81130  0.96851  1.0000
  O   O13       1.0  0.02492  0.77753  0.13474  1.0000
  O   O14       1.0  0.47508  0.22247  0.63474  1.0000
  O   O15       1.0  0.97508  0.27753  0.36526  1.0000
  O   O16       1.0  0.52492  0.72247  0.86526  1.0000
  O   O17       1.0  0.84348  0.96214  0.16229  1.0000
  O   O18       1.0  0.65653  0.03786  0.66229  1.0000
  O   O19       1.0  0.15654  0.46213  0.33771  1.0000
  O   O20       1.0  0.34347  0.53786  0.83771  1.0000
  O   O21       1.0  0.43015  0.86892  0.15633  1.0000
  O   O22       1.0  0.06985  0.13108  0.65633  1.0000
  O   O23       1.0  0.56985  0.36892  0.34367  1.0000
  O   O24       1.0  0.93014  0.63107  0.84367  1.0000
  O   O25       1.0  0.24325  0.97127  0.01694  1.0000
  O   O26       1.0  0.25675  0.02874  0.51694  1.0000
  O   O27       1.0  0.75675  0.47126  0.48306  1.0000
  O   O28       1.0  0.74325  0.52873  0.98306  1.0000
  O   O29       1.0  0.19749  0.23490  0.01064  1.0000
  O   O30       1.0  0.30251  0.76510  0.51064  1.0000
  O   O31       1.0  0.80251  0.73490  0.48936  1.0000
  O   O32       1.0  0.69749  0.26510  0.98936  1.0000
  O   O33       1.0  0.45231  0.27881  0.14406  1.0000
  O   O34       1.0  0.04769  0.72120  0.64406  1.0000
  O   O35       1.0  0.54769  0.77880  0.35594  1.0000
  O   O36       1.0  0.95231  0.22120  0.85594  1.0000
  O   O37       1.0  0.24431  0.49080  0.13470  1.0000
  O   O38       1.0  0.25569  0.50920  0.63470  1.0000
  O   O39       1.0  0.75570  0.99080  0.36530  1.0000
  O   O40       1.0  0.74431  0.00920  0.86530  1.0000
  O   O41       1.0  0.88401  0.40983  0.12243  1.0000
  O   O42       1.0  0.61599  0.59017  0.62243  1.0000
  O   O43       1.0  0.11600  0.90982  0.37757  1.0000
  O   O44       1.0  0.38400  0.09017  0.87757  1.0000
