data_image0
_chemical_formula_structural       Li2P4H34C10N2O16
_chemical_formula_sum              "Li2 P4 H34 C10 N2 O16"
_cell_length_a       5.92937
_cell_length_b       9.43583
_cell_length_c       10.8745
_cell_angle_alpha    73.9233
_cell_angle_beta     75.5492
_cell_angle_gamma    84.4733

_space_group_name_H-M_alt    "P 1"
_space_group_IT_number       1

loop_
  _space_group_symop_operation_xyz
  'x, y, z'

loop_
  _atom_site_type_symbol
  _atom_site_label
  _atom_site_symmetry_multiplicity
  _atom_site_fract_x
  _atom_site_fract_y
  _atom_site_fract_z
  _atom_site_occupancy
  Li  Li1       1.0  0.67090  0.94460  0.16730  1.0000
  Li  Li2       1.0  0.32911  0.05539  0.83270  1.0000
  P   P1        1.0  0.61008  0.30478  0.09621  1.0000
  P   P2        1.0  0.38993  0.69522  0.90379  1.0000
  P   P3        1.0  0.83276  0.65609  0.35685  1.0000
  P   P4        1.0  0.16724  0.34391  0.64315  1.0000
  H   H1        1.0  0.72835  0.52806  0.98207  1.0000
  H   H2        1.0  0.27165  0.47195  0.01793  1.0000
  H   H3        1.0  0.16743  0.55360  0.40549  1.0000
  H   H4        1.0  0.83257  0.44640  0.59451  1.0000
  H   H5        1.0  0.73906  0.81125  0.98639  1.0000
  H   H6        1.0  0.26094  0.18875  0.01360  1.0000
  H   H7        1.0  0.99117  0.87022  0.96287  1.0000
  H   H8        1.0  0.00883  0.12978  0.03713  1.0000
  H   H9        1.0  0.26724  0.96850  0.12007  1.0000
  H   H10       1.0  0.73277  0.03149  0.87993  1.0000
  H   H11       1.0  0.25299  0.82065  0.23586  1.0000
  H   H12       1.0  0.74701  0.17935  0.76415  1.0000
  H   H13       1.0  0.55661  0.41544  0.40512  1.0000
  H   H14       1.0  0.44339  0.58456  0.59488  1.0000
  H   H15       1.0  0.37304  0.45359  0.22947  1.0000
  H   H16       1.0  0.62695  0.54641  0.77053  1.0000
  H   H17       1.0  0.40637  0.26948  0.32166  1.0000
  H   H18       1.0  0.59363  0.73052  0.67833  1.0000
  H   H19       1.0  0.59006  0.63370  0.21600  1.0000
  H   H20       1.0  0.40994  0.36631  0.78400  1.0000
  H   H21       1.0  0.87882  0.57032  0.15775  1.0000
  H   H22       1.0  0.12118  0.42969  0.84225  1.0000
  H   H23       1.0  0.97901  0.36548  0.36991  1.0000
  H   H24       1.0  0.02099  0.63453  0.63008  1.0000
  H   H25       1.0  0.96422  0.29931  0.23420  1.0000
  H   H26       1.0  0.03578  0.70069  0.76579  1.0000
  H   H27       1.0  0.69842  0.10038  0.38871  1.0000
  H   H28       1.0  0.30158  0.89962  0.61129  1.0000
  H   H29       1.0  0.69612  0.17619  0.52168  1.0000
  H   H30       1.0  0.30389  0.82382  0.47831  1.0000
  H   H31       1.0  0.12324  0.05002  0.35412  1.0000
  H   H32       1.0  0.87677  0.94998  0.64588  1.0000
  H   H33       1.0  0.13628  0.13703  0.47807  1.0000
  H   H34       1.0  0.86373  0.86298  0.52193  1.0000
  C   C1        1.0  0.50038  0.36266  0.24846  1.0000
  C   C2        1.0  0.49962  0.63734  0.75153  1.0000
  C   C3        1.0  0.73982  0.56866  0.24617  1.0000
  C   C4        1.0  0.26018  0.43134  0.75383  1.0000
  C   C5        1.0  0.86819  0.30999  0.33170  1.0000
  C   C6        1.0  0.13181  0.69001  0.66829  1.0000
  C   C7        1.0  0.80197  0.16146  0.42694  1.0000
  C   C8        1.0  0.19803  0.83854  0.57306  1.0000
  C   C9        1.0  0.02504  0.07252  0.44749  1.0000
  C   C10       1.0  0.97497  0.92748  0.55251  1.0000
  N   N1        1.0  0.66380  0.41332  0.31227  1.0000
  N   N2        1.0  0.33620  0.58668  0.68772  1.0000
  O   O1        1.0  0.79669  0.42106  0.00353  1.0000
  O   O2        1.0  0.20330  0.57895  0.99647  1.0000
  O   O3        1.0  0.38901  0.32011  0.04459  1.0000
  O   O4        1.0  0.61098  0.67989  0.95541  1.0000
  O   O5        1.0  0.72888  0.15463  0.12241  1.0000
  O   O6        1.0  0.27111  0.84538  0.87759  1.0000
  O   O7        1.0  0.72578  0.56758  0.49752  1.0000
  O   O8        1.0  0.27422  0.43241  0.50248  1.0000
  O   O9        1.0  0.11069  0.63345  0.33260  1.0000
  O   O10       1.0  0.88932  0.36655  0.66741  1.0000
  O   O11       1.0  0.77207  0.81712  0.31603  1.0000
  O   O12       1.0  0.22793  0.18288  0.68397  1.0000
  O   O13       1.0  0.82373  0.88955  0.00081  1.0000
  O   O14       1.0  0.17627  0.11045  0.99919  1.0000
  O   O15       1.0  0.34943  0.90568  0.18630  1.0000
  O   O16       1.0  0.65056  0.09432  0.81371  1.0000
