data_image0
_chemical_formula_structural       Ag4H32C36N28O12
_chemical_formula_sum              "Ag4 H32 C36 N28 O12"
_cell_length_a       7.11071
_cell_length_b       9.68403
_cell_length_c       17.333
_cell_angle_alpha    90
_cell_angle_beta     90
_cell_angle_gamma    96.2197

_space_group_name_H-M_alt    "P 1"
_space_group_IT_number       1

loop_
  _space_group_symop_operation_xyz
  'x, y, z'

loop_
  _atom_site_type_symbol
  _atom_site_label
  _atom_site_symmetry_multiplicity
  _atom_site_fract_x
  _atom_site_fract_y
  _atom_site_fract_z
  _atom_site_occupancy
  Ag  Ag1       1.0  0.84572  0.38102  0.71136  1.0000
  Ag  Ag2       1.0  0.15429  0.11898  0.21136  1.0000
  Ag  Ag3       1.0  0.15429  0.61898  0.28864  1.0000
  Ag  Ag4       1.0  0.84572  0.88102  0.78864  1.0000
  H   H1        1.0  0.89699  0.53995  0.88470  1.0000
  H   H2        1.0  0.10301  0.96005  0.38471  1.0000
  H   H3        1.0  0.10301  0.46005  0.11530  1.0000
  H   H4        1.0  0.89699  0.03996  0.61530  1.0000
  H   H5        1.0  0.25032  0.26772  0.78135  1.0000
  H   H6        1.0  0.74968  0.23228  0.28135  1.0000
  H   H7        1.0  0.74968  0.73228  0.21865  1.0000
  H   H8        1.0  0.25032  0.76772  0.71865  1.0000
  H   H9        1.0  0.49376  0.40548  0.95998  1.0000
  H   H10       1.0  0.50625  0.09452  0.45998  1.0000
  H   H11       1.0  0.50625  0.59452  0.04002  1.0000
  H   H12       1.0  0.49375  0.90547  0.54002  1.0000
  H   H13       1.0  0.49969  0.27639  0.88601  1.0000
  H   H14       1.0  0.50031  0.22361  0.38601  1.0000
  H   H15       1.0  0.50031  0.72361  0.11399  1.0000
  H   H16       1.0  0.49969  0.77639  0.61399  1.0000
  H   H17       1.0  0.35630  0.03233  0.85090  1.0000
  H   H18       1.0  0.64370  0.46767  0.35090  1.0000
  H   H19       1.0  0.64369  0.96767  0.14910  1.0000
  H   H20       1.0  0.35630  0.53232  0.64910  1.0000
  H   H21       1.0  0.25933  0.77832  0.86907  1.0000
  H   H22       1.0  0.74068  0.72168  0.36907  1.0000
  H   H23       1.0  0.74068  0.22168  0.13093  1.0000
  H   H24       1.0  0.25933  0.27832  0.63093  1.0000
  H   H25       1.0  0.14191  0.68457  0.99364  1.0000
  H   H26       1.0  0.85808  0.81543  0.49364  1.0000
  H   H27       1.0  0.85809  0.31543  0.00636  1.0000
  H   H28       1.0  0.14191  0.18457  0.50636  1.0000
  H   H29       1.0  0.12641  0.83937  0.10970  1.0000
  H   H30       1.0  0.87358  0.66063  0.60970  1.0000
  H   H31       1.0  0.87359  0.16063  0.89030  1.0000
  H   H32       1.0  0.12641  0.33937  0.39030  1.0000
  C   C1        1.0  0.01078  0.47557  0.87520  1.0000
  C   C2        1.0  0.98922  0.02443  0.37520  1.0000
  C   C3        1.0  0.98922  0.52443  0.12480  1.0000
  C   C4        1.0  0.01078  0.97557  0.62480  1.0000
  C   C5        1.0  0.18417  0.33652  0.82050  1.0000
  C   C6        1.0  0.81584  0.16348  0.32050  1.0000
  C   C7        1.0  0.81584  0.66348  0.17950  1.0000
  C   C8        1.0  0.18416  0.83652  0.67950  1.0000
  C   C9        1.0  0.41130  0.32026  0.92971  1.0000
  C   C10       1.0  0.58871  0.17974  0.42971  1.0000
  C   C11       1.0  0.58870  0.67974  0.07029  1.0000
  C   C12       1.0  0.41129  0.82026  0.57029  1.0000
  C   C13       1.0  0.29827  0.07471  0.97166  1.0000
  C   C14       1.0  0.70174  0.42529  0.47166  1.0000
  C   C15       1.0  0.70174  0.92528  0.02834  1.0000
  C   C16       1.0  0.29826  0.57471  0.52834  1.0000
  C   C17       1.0  0.30697  0.99041  0.90638  1.0000
  C   C18       1.0  0.69303  0.50960  0.40638  1.0000
  C   C19       1.0  0.69303  0.00959  0.09362  1.0000
  C   C20       1.0  0.30697  0.49040  0.59362  1.0000
  C   C21       1.0  0.24964  0.85012  0.91701  1.0000
  C   C22       1.0  0.75036  0.64988  0.41701  1.0000
  C   C23       1.0  0.75036  0.14988  0.08299  1.0000
  C   C24       1.0  0.24964  0.35012  0.58299  1.0000
  C   C25       1.0  0.18373  0.79582  0.98924  1.0000
  C   C26       1.0  0.81627  0.70418  0.48924  1.0000
  C   C27       1.0  0.81628  0.20418  0.01076  1.0000
  C   C28       1.0  0.18373  0.29582  0.51076  1.0000
  C   C29       1.0  0.17321  0.87992  0.05351  1.0000
  C   C30       1.0  0.82678  0.62009  0.55351  1.0000
  C   C31       1.0  0.82679  0.12008  0.94649  1.0000
  C   C32       1.0  0.17321  0.37992  0.44649  1.0000
  C   C33       1.0  0.23280  0.02174  0.04364  1.0000
  C   C34       1.0  0.76720  0.47826  0.54364  1.0000
  C   C35       1.0  0.76721  0.97826  0.95637  1.0000
  C   C36       1.0  0.23279  0.52174  0.45636  1.0000
  N   N1        1.0  0.02926  0.40039  0.80911  1.0000
  N   N2        1.0  0.97075  0.09960  0.30911  1.0000
  N   N3        1.0  0.97075  0.59961  0.19090  1.0000
  N   N4        1.0  0.02926  0.90040  0.69089  1.0000
  N   N5        1.0  0.14477  0.46027  0.92673  1.0000
  N   N6        1.0  0.85523  0.03973  0.42673  1.0000
  N   N7        1.0  0.85523  0.53973  0.07327  1.0000
  N   N8        1.0  0.14477  0.96027  0.57327  1.0000
  N   N9        1.0  0.25273  0.37179  0.89093  1.0000
  N   N10       1.0  0.74727  0.12821  0.39093  1.0000
  N   N11       1.0  0.74727  0.62821  0.10907  1.0000
  N   N12       1.0  0.25273  0.87180  0.60907  1.0000
  N   N13       1.0  0.34579  0.21363  0.98518  1.0000
  N   N14       1.0  0.65421  0.28637  0.48518  1.0000
  N   N15       1.0  0.65421  0.78637  0.01482  1.0000
  N   N16       1.0  0.34579  0.71363  0.51482  1.0000
  N   N17       1.0  0.31048  0.24667  0.05926  1.0000
  N   N18       1.0  0.68952  0.25333  0.55926  1.0000
  N   N19       1.0  0.68952  0.75333  0.94074  1.0000
  N   N20       1.0  0.31048  0.74667  0.44074  1.0000
  N   N21       1.0  0.24397  0.13189  0.09454  1.0000
  N   N22       1.0  0.75602  0.36811  0.59454  1.0000
  N   N23       1.0  0.75603  0.86810  0.90546  1.0000
  N   N24       1.0  0.24397  0.63189  0.40546  1.0000
  N   N25       1.0  0.54496  0.59478  0.76819  1.0000
  N   N26       1.0  0.45504  0.90522  0.26819  1.0000
  N   N27       1.0  0.45503  0.40522  0.23181  1.0000
  N   N28       1.0  0.54497  0.09478  0.73181  1.0000
  O   O1        1.0  0.60829  0.49407  0.80272  1.0000
  O   O2        1.0  0.39170  0.00593  0.30272  1.0000
  O   O3        1.0  0.39169  0.50593  0.19728  1.0000
  O   O4        1.0  0.60831  0.99407  0.69728  1.0000
  O   O5        1.0  0.37888  0.62428  0.78192  1.0000
  O   O6        1.0  0.62111  0.87572  0.28193  1.0000
  O   O7        1.0  0.62110  0.37571  0.21807  1.0000
  O   O8        1.0  0.37890  0.12428  0.71807  1.0000
  O   O9        1.0  0.64775  0.66503  0.71854  1.0000
  O   O10       1.0  0.35226  0.83497  0.21854  1.0000
  O   O11       1.0  0.35225  0.33497  0.28146  1.0000
  O   O12       1.0  0.64775  0.16503  0.78146  1.0000
