data_image0
_chemical_formula_structural       Ga2H6C8O10
_chemical_formula_sum              "Ga2 H6 C8 O10"
_cell_length_a       6.83965
_cell_length_b       8.99602
_cell_length_c       8.99603
_cell_angle_alpha    79.0918
_cell_angle_beta     75.2526
_cell_angle_gamma    75.2525

_space_group_name_H-M_alt    "P 1"
_space_group_IT_number       1

loop_
  _space_group_symop_operation_xyz
  'x, y, z'

loop_
  _atom_site_type_symbol
  _atom_site_label
  _atom_site_symmetry_multiplicity
  _atom_site_fract_x
  _atom_site_fract_y
  _atom_site_fract_z
  _atom_site_occupancy
  Ga  Ga1       1.0  0.50000  0.50000  0.50000  1.0000
  Ga  Ga2       1.0  1.00000  0.50000  0.50000  1.0000
  H   H1        1.0  0.74998  0.66155  0.33850  1.0000
  H   H2        1.0  0.24999  0.33851  0.66156  1.0000
  H   H3        1.0  0.22631  0.01279  0.48084  1.0000
  H   H4        1.0  0.27367  0.51917  0.98721  1.0000
  H   H5        1.0  0.77367  0.98719  0.51917  1.0000
  H   H6        1.0  0.72632  0.48084  0.01279  1.0000
  C   C1        1.0  0.14806  0.78666  0.49603  1.0000
  C   C2        1.0  0.35195  0.50398  0.21337  1.0000
  C   C3        1.0  0.85194  0.21336  0.50397  1.0000
  C   C4        1.0  0.64803  0.49603  0.78666  1.0000
  C   C5        1.0  0.09710  0.95771  0.49382  1.0000
  C   C6        1.0  0.40292  0.50619  0.04229  1.0000
  C   C7        1.0  0.90292  0.04228  0.50619  1.0000
  C   C8        1.0  0.59709  0.49382  0.95769  1.0000
  O   O1        1.0  0.34099  0.72335  0.47435  1.0000
  O   O2        1.0  0.15904  0.52563  0.27665  1.0000
  O   O3        1.0  0.65904  0.27663  0.52565  1.0000
  O   O4        1.0  0.84099  0.47436  0.72333  1.0000
  O   O5        1.0  0.99774  0.71974  0.51777  1.0000
  O   O6        1.0  0.50226  0.48223  0.28024  1.0000
  O   O7        1.0  0.00225  0.28023  0.48223  1.0000
  O   O8        1.0  0.49773  0.51777  0.71973  1.0000
  O   O9        1.0  0.75000  0.57694  0.42305  1.0000
  O   O10       1.0  0.25001  0.42304  0.57694  1.0000
