data_image0
_chemical_formula_structural       CdH16C14N10O6
_chemical_formula_sum              "Cd1 H16 C14 N10 O6"
_cell_length_a       8.54547
_cell_length_b       8.54546
_cell_length_c       8.72237
_cell_angle_alpha    62.5483
_cell_angle_beta     62.5481
_cell_angle_gamma    67.314

_space_group_name_H-M_alt    "P 1"
_space_group_IT_number       1

loop_
  _space_group_symop_operation_xyz
  'x, y, z'

loop_
  _atom_site_type_symbol
  _atom_site_label
  _atom_site_symmetry_multiplicity
  _atom_site_fract_x
  _atom_site_fract_y
  _atom_site_fract_z
  _atom_site_occupancy
  Cd  Cd1       1.0  0.50000  0.50000  0.00000  1.0000
  H   H1        1.0  0.97900  0.25553  0.41721  1.0000
  H   H2        1.0  0.74448  0.02100  0.58279  1.0000
  H   H3        1.0  0.02100  0.74447  0.58279  1.0000
  H   H4        1.0  0.25553  0.97900  0.41721  1.0000
  H   H5        1.0  0.26598  0.26598  0.64188  1.0000
  H   H6        1.0  0.73402  0.73403  0.35812  1.0000
  H   H7        1.0  0.27787  0.27787  0.42519  1.0000
  H   H8        1.0  0.72213  0.72213  0.57481  1.0000
  H   H9        1.0  0.61826  0.36581  0.62802  1.0000
  H   H10       1.0  0.63419  0.38174  0.37198  1.0000
  H   H11       1.0  0.38174  0.63419  0.37198  1.0000
  H   H12       1.0  0.36581  0.61826  0.62802  1.0000
  H   H13       1.0  0.96089  0.33038  0.87326  1.0000
  H   H14       1.0  0.66963  0.03911  0.12674  1.0000
  H   H15       1.0  0.03911  0.66963  0.12674  1.0000
  H   H16       1.0  0.33037  0.96090  0.87326  1.0000
  C   C1        1.0  0.91908  0.28827  0.54164  1.0000
  C   C2        1.0  0.71173  0.08092  0.45836  1.0000
  C   C3        1.0  0.08092  0.71173  0.45836  1.0000
  C   C4        1.0  0.28827  0.91908  0.54164  1.0000
  C   C5        1.0  0.21946  0.21946  0.57513  1.0000
  C   C6        1.0  0.78054  0.78054  0.42487  1.0000
  C   C7        1.0  0.74372  0.34536  0.64374  1.0000
  C   C8        1.0  0.65464  0.25628  0.35626  1.0000
  C   C9        1.0  0.25628  0.65464  0.35626  1.0000
  C   C10       1.0  0.34536  0.74372  0.64374  1.0000
  C   C11       1.0  0.91218  0.32870  0.77909  1.0000
  C   C12       1.0  0.67131  0.08782  0.22091  1.0000
  C   C13       1.0  0.08782  0.67131  0.22091  1.0000
  C   C14       1.0  0.32869  0.91218  0.77909  1.0000
  N   N1        1.0  0.02398  0.27809  0.62980  1.0000
  N   N2        1.0  0.72192  0.97602  0.37020  1.0000
  N   N3        1.0  0.97602  0.72191  0.37020  1.0000
  N   N4        1.0  0.27808  0.02398  0.62980  1.0000
  N   N5        1.0  0.74136  0.37133  0.78992  1.0000
  N   N6        1.0  0.62867  0.25864  0.21008  1.0000
  N   N7        1.0  0.25864  0.62867  0.21008  1.0000
  N   N8        1.0  0.37133  0.74136  0.78992  1.0000
  N   N9        1.0  0.25815  0.25815  0.00969  1.0000
  N   N10       1.0  0.74185  0.74185  0.99031  1.0000
  O   O1        1.0  0.29696  0.29696  0.11262  1.0000
  O   O2        1.0  0.70304  0.70304  0.88738  1.0000
  O   O3        1.0  0.32595  0.32595  0.83606  1.0000
  O   O4        1.0  0.67405  0.67405  0.16394  1.0000
  O   O5        1.0  0.15299  0.15299  0.08424  1.0000
  O   O6        1.0  0.84701  0.84701  0.91576  1.0000
