data_image0
_chemical_formula_structural       H24Pb3C24Br6N4O4
_chemical_formula_sum              "H24 Pb3 C24 Br6 N4 O4"
_cell_length_a       8.00933
_cell_length_b       10.1172
_cell_length_c       11.2893
_cell_angle_alpha    107.235
_cell_angle_beta     97.8291
_cell_angle_gamma    98.007

_space_group_name_H-M_alt    "P 1"
_space_group_IT_number       1

loop_
  _space_group_symop_operation_xyz
  'x, y, z'

loop_
  _atom_site_type_symbol
  _atom_site_label
  _atom_site_symmetry_multiplicity
  _atom_site_fract_x
  _atom_site_fract_y
  _atom_site_fract_z
  _atom_site_occupancy
  H   H1        1.0  0.61995  0.59461  0.42743  1.0000
  H   H2        1.0  0.37997  0.40536  0.57258  1.0000
  H   H3        1.0  0.64068  0.34212  0.34365  1.0000
  H   H4        1.0  0.35932  0.65791  0.65634  1.0000
  H   H5        1.0  0.31848  0.32226  0.99624  1.0000
  H   H6        1.0  0.68143  0.67772  0.00377  1.0000
  H   H7        1.0  0.19081  0.42858  0.90185  1.0000
  H   H8        1.0  0.80923  0.57141  0.09820  1.0000
  H   H9        1.0  0.02045  0.82033  0.92375  1.0000
  H   H10       1.0  0.97956  0.17964  0.07625  1.0000
  H   H11       1.0  0.18461  0.91865  0.14427  1.0000
  H   H12       1.0  0.81523  0.08130  0.85577  1.0000
  H   H13       1.0  0.56565  0.99732  0.10225  1.0000
  H   H14       1.0  0.43446  0.00268  0.89779  1.0000
  H   H15       1.0  0.53262  0.10336  0.25387  1.0000
  H   H16       1.0  0.46743  0.89664  0.74614  1.0000
  H   H17       1.0  0.71696  0.15403  0.19229  1.0000
  H   H18       1.0  0.28311  0.84598  0.80773  1.0000
  H   H19       1.0  0.87499  0.54651  0.61392  1.0000
  H   H20       1.0  0.12501  0.45356  0.38603  1.0000
  H   H21       1.0  0.02336  0.70921  0.69385  1.0000
  H   H22       1.0  0.97663  0.29083  0.30612  1.0000
  H   H23       1.0  0.83161  0.66839  0.75268  1.0000
  H   H24       1.0  0.16841  0.33163  0.24732  1.0000
  Pb  Pb1       1.0  0.47042  0.84930  0.35278  1.0000
  Pb  Pb2       1.0  0.52948  0.15071  0.64724  1.0000
  Pb  Pb3       1.0  0.99994  0.99996  0.49998  1.0000
  C   C1        1.0  0.55376  0.53020  0.33225  1.0000
  C   C2        1.0  0.44622  0.46983  0.66778  1.0000
  C   C3        1.0  0.56648  0.38959  0.28470  1.0000
  C   C4        1.0  0.43357  0.61045  0.71529  1.0000
  C   C5        1.0  0.48029  0.31394  0.16101  1.0000
  C   C6        1.0  0.51970  0.68606  0.83898  1.0000
  C   C7        1.0  0.38464  0.38234  0.09229  1.0000
  C   C8        1.0  0.61534  0.61763  0.90771  1.0000
  C   C9        1.0  0.37803  0.52359  0.14734  1.0000
  C   C10       1.0  0.62205  0.47644  0.85264  1.0000
  C   C11       1.0  0.27809  0.60082  0.07925  1.0000
  C   C12       1.0  0.72198  0.39921  0.92073  1.0000
  C   C13       1.0  0.18978  0.53742  0.95571  1.0000
  C   C14       1.0  0.81023  0.46256  0.04427  1.0000
  C   C15       1.0  0.09722  0.61556  0.89575  1.0000
  C   C16       1.0  0.90280  0.38443  0.10423  1.0000
  C   C17       1.0  0.09241  0.75532  0.96405  1.0000
  C   C18       1.0  0.90767  0.24468  0.03593  1.0000
  C   C19       1.0  0.18430  0.81048  0.08718  1.0000
  C   C20       1.0  0.81561  0.18949  0.91285  1.0000
  C   C21       1.0  0.58070  0.10413  0.16742  1.0000
  C   C22       1.0  0.41937  0.89588  0.83259  1.0000
  C   C23       1.0  0.93233  0.62443  0.70594  1.0000
  C   C24       1.0  0.06769  0.37560  0.29404  1.0000
  Br  Br1       1.0  0.72025  0.86198  0.60496  1.0000
  Br  Br2       1.0  0.27967  0.13787  0.39510  1.0000
  Br  Br3       1.0  0.20077  0.76373  0.48526  1.0000
  Br  Br4       1.0  0.79933  0.23633  0.51465  1.0000
  Br  Br5       1.0  0.20457  0.15075  0.76383  1.0000
  Br  Br6       1.0  0.79520  0.84920  0.23620  1.0000
  N   N1        1.0  0.46284  0.59617  0.26680  1.0000
  N   N2        1.0  0.53717  0.40385  0.73319  1.0000
  N   N3        1.0  0.27645  0.73729  0.14342  1.0000
  N   N4        1.0  0.72353  0.26270  0.85660  1.0000
  O   O1        1.0  0.48178  0.17780  0.10082  1.0000
  O   O2        1.0  0.51830  0.82221  0.89918  1.0000
  O   O3        1.0  0.01947  0.54747  0.77558  1.0000
  O   O4        1.0  0.98061  0.45255  0.22438  1.0000
