data_image0
_chemical_formula_structural       Cd2H44C22N12O18
_chemical_formula_sum              "Cd2 H44 C22 N12 O18"
_cell_length_a       8.99218
_cell_length_b       9.61978
_cell_length_c       12.3033
_cell_angle_alpha    76.4941
_cell_angle_beta     73.6286
_cell_angle_gamma    63.1676

_space_group_name_H-M_alt    "P 1"
_space_group_IT_number       1

loop_
  _space_group_symop_operation_xyz
  'x, y, z'

loop_
  _atom_site_type_symbol
  _atom_site_label
  _atom_site_symmetry_multiplicity
  _atom_site_fract_x
  _atom_site_fract_y
  _atom_site_fract_z
  _atom_site_occupancy
  Cd  Cd1       1.0  0.32891  0.21924  0.03203  1.0000
  Cd  Cd2       1.0  0.67109  0.78076  0.96797  1.0000
  H   H1        1.0  0.28714  0.51031  0.89065  1.0000
  H   H2        1.0  0.71286  0.48969  0.10935  1.0000
  H   H3        1.0  0.15397  0.45961  0.87012  1.0000
  H   H4        1.0  0.84603  0.54039  0.12987  1.0000
  H   H5        1.0  0.13665  0.03448  0.11763  1.0000
  H   H6        1.0  0.86335  0.96552  0.88236  1.0000
  H   H7        1.0  0.53250  0.69246  0.23820  1.0000
  H   H8        1.0  0.46750  0.30755  0.76180  1.0000
  H   H9        1.0  0.12518  0.78810  0.05695  1.0000
  H   H10       1.0  0.87482  0.21190  0.94305  1.0000
  H   H11       1.0  0.62152  0.93024  0.17406  1.0000
  H   H12       1.0  0.37848  0.06976  0.82594  1.0000
  H   H13       1.0  0.07148  0.65630  0.34935  1.0000
  H   H14       1.0  0.92852  0.34371  0.65065  1.0000
  H   H15       1.0  0.22853  0.61437  0.22321  1.0000
  H   H16       1.0  0.77147  0.38563  0.77679  1.0000
  H   H17       1.0  0.45604  0.45275  0.30578  1.0000
  H   H18       1.0  0.54396  0.54725  0.69422  1.0000
  H   H19       1.0  0.33381  0.46631  0.44803  1.0000
  H   H20       1.0  0.66619  0.53369  0.55197  1.0000
  H   H21       1.0  0.51595  0.51015  0.40850  1.0000
  H   H22       1.0  0.48405  0.48985  0.59150  1.0000
  H   H23       1.0  0.31763  0.76459  0.49110  1.0000
  H   H24       1.0  0.68237  0.23541  0.50890  1.0000
  H   H25       1.0  0.12522  0.74245  0.51133  1.0000
  H   H26       1.0  0.87478  0.25755  0.48867  1.0000
  H   H27       1.0  0.15235  0.90922  0.42286  1.0000
  H   H28       1.0  0.84765  0.09079  0.57714  1.0000
  H   H29       1.0  0.86385  0.08551  0.25094  1.0000
  H   H30       1.0  0.13615  0.91449  0.74906  1.0000
  H   H31       1.0  0.91205  0.96186  0.37907  1.0000
  H   H32       1.0  0.08795  0.03814  0.62093  1.0000
  H   H33       1.0  0.57278  0.17830  0.28999  1.0000
  H   H34       1.0  0.42722  0.82170  0.71001  1.0000
  H   H35       1.0  0.57596  0.08510  0.43285  1.0000
  H   H36       1.0  0.42404  0.91490  0.56715  1.0000
  H   H37       1.0  0.46374  0.05460  0.34895  1.0000
  H   H38       1.0  0.53626  0.94540  0.65105  1.0000
  H   H39       1.0  0.61839  0.77546  0.40290  1.0000
  H   H40       1.0  0.38161  0.22454  0.59710  1.0000
  H   H41       1.0  0.76390  0.78326  0.47141  1.0000
  H   H42       1.0  0.23610  0.21675  0.52859  1.0000
  H   H43       1.0  0.83914  0.67207  0.35417  1.0000
  H   H44       1.0  0.16086  0.32793  0.64583  1.0000
  C   C1        1.0  0.33974  0.88516  0.18537  1.0000
  C   C2        1.0  0.66026  0.11484  0.81463  1.0000
  C   C3        1.0  0.29489  0.69097  0.34491  1.0000
  C   C4        1.0  0.70511  0.30904  0.65508  1.0000
  C   C5        1.0  0.16129  0.69734  0.28663  1.0000
  C   C6        1.0  0.83871  0.30266  0.71337  1.0000
  C   C7        1.0  0.06352  0.85908  0.22380  1.0000
  C   C8        1.0  0.93648  0.14092  0.77620  1.0000
  C   C9        1.0  0.40730  0.51918  0.37886  1.0000
  C   C10       1.0  0.59270  0.48082  0.62114  1.0000
  C   C11       1.0  0.21663  0.78258  0.44884  1.0000
  C   C12       1.0  0.78337  0.21742  0.55116  1.0000
  C   C13       1.0  0.87279  0.86091  0.10781  1.0000
  C   C14       1.0  0.12721  0.13909  0.89219  1.0000
  C   C15       1.0  0.74015  0.92825  0.30565  1.0000
  C   C16       1.0  0.25985  0.07175  0.69435  1.0000
  C   C17       1.0  0.89423  0.96486  0.29394  1.0000
  C   C18       1.0  0.10577  0.03514  0.70606  1.0000
  C   C19       1.0  0.57846  0.07018  0.34652  1.0000
  C   C20       1.0  0.42154  0.92982  0.65348  1.0000
  C   C21       1.0  0.74241  0.78042  0.38846  1.0000
  C   C22       1.0  0.25759  0.21958  0.61154  1.0000
  N   N1        1.0  0.17246  0.94598  0.18372  1.0000
  N   N2        1.0  0.82754  0.05402  0.81628  1.0000
  N   N3        1.0  0.40414  0.75907  0.26033  1.0000
  N   N4        1.0  0.59585  0.24093  0.73967  1.0000
  N   N5        1.0  0.02632  0.83804  0.12176  1.0000
  N   N6        1.0  0.97368  0.16196  0.87824  1.0000
  N   N7        1.0  0.73539  0.90998  0.19157  1.0000
  N   N8        1.0  0.26461  0.09002  0.80843  1.0000
  N   N9        1.0  0.08844  0.35794  0.23375  1.0000
  N   N10       1.0  0.91157  0.64205  0.76625  1.0000
  N   N11       1.0  0.57973  0.32674  0.07704  1.0000
  N   N12       1.0  0.42027  0.67326  0.92296  1.0000
  O   O1        1.0  0.43714  0.94903  0.11844  1.0000
  O   O2        1.0  0.56286  0.05096  0.88155  1.0000
  O   O3        1.0  0.86479  0.83493  0.01246  1.0000
  O   O4        1.0  0.13521  0.16507  0.98754  1.0000
  O   O5        1.0  0.22414  0.23056  0.23328  1.0000
  O   O6        1.0  0.77586  0.76943  0.76673  1.0000
  O   O7        1.0  0.05755  0.43500  0.13589  1.0000
  O   O8        1.0  0.94245  0.56499  0.86411  1.0000
  O   O9        1.0  0.99116  0.40485  0.32450  1.0000
  O   O10       1.0  0.00884  0.59515  0.67550  1.0000
  O   O11       1.0  0.58482  0.21984  0.02824  1.0000
  O   O12       1.0  0.41518  0.78016  0.97176  1.0000
  O   O13       1.0  0.44116  0.42910  0.11864  1.0000
  O   O14       1.0  0.55884  0.57090  0.88136  1.0000
  O   O15       1.0  0.72195  0.32174  0.08060  1.0000
  O   O16       1.0  0.27805  0.67826  0.91940  1.0000
  O   O17       1.0  0.27524  0.41738  0.87740  1.0000
  O   O18       1.0  0.72476  0.58262  0.12259  1.0000
