data_image0
_chemical_formula_structural       Ag4H24C24S2N2O18
_chemical_formula_sum              "Ag4 H24 C24 S2 N2 O18"
_cell_length_a       6.32474
_cell_length_b       10.8029
_cell_length_c       12.2864
_cell_angle_alpha    91.5325
_cell_angle_beta     89.9798
_cell_angle_gamma    106.969

_space_group_name_H-M_alt    "P 1"
_space_group_IT_number       1

loop_
  _space_group_symop_operation_xyz
  'x, y, z'

loop_
  _atom_site_type_symbol
  _atom_site_label
  _atom_site_symmetry_multiplicity
  _atom_site_fract_x
  _atom_site_fract_y
  _atom_site_fract_z
  _atom_site_occupancy
  Ag  Ag1       1.0  0.46912  0.82348  0.52469  1.0000
  Ag  Ag2       1.0  0.64620  0.17643  0.47552  1.0000
  Ag  Ag3       1.0  0.39176  0.71190  0.72889  1.0000
  Ag  Ag4       1.0  0.67972  0.28800  0.27138  1.0000
  H   H1        1.0  0.09729  0.08079  0.53549  1.0000
  H   H2        1.0  0.01456  0.91893  0.46423  1.0000
  H   H3        1.0  0.05941  0.05409  0.33022  1.0000
  H   H4        1.0  0.00457  0.94583  0.66949  1.0000
  H   H5        1.0  0.27328  0.46910  0.30661  1.0000
  H   H6        1.0  0.80442  0.53081  0.69334  1.0000
  H   H7        1.0  0.23783  0.80784  0.27747  1.0000
  H   H8        1.0  0.42961  0.19249  0.72261  1.0000
  H   H9        1.0  0.71128  0.82505  0.21056  1.0000
  H   H10       1.0  0.88554  0.17483  0.78950  1.0000
  H   H11       1.0  0.52688  0.70467  0.28999  1.0000
  H   H12       1.0  0.82157  0.29533  0.71009  1.0000
  H   H13       1.0  0.58842  0.65359  0.07399  1.0000
  H   H14       1.0  0.93373  0.34635  0.92610  1.0000
  H   H15       1.0  0.53484  0.83871  0.99391  1.0000
  H   H16       1.0  0.69493  0.16152  0.00627  1.0000
  H   H17       1.0  0.25836  0.74048  0.98284  1.0000
  H   H18       1.0  0.51673  0.25995  0.01713  1.0000
  H   H19       1.0  0.24613  0.93427  0.09945  1.0000
  H   H20       1.0  0.31143  0.06599  0.90067  1.0000
  H   H21       1.0  0.27431  0.39106  0.66130  1.0000
  H   H22       1.0  0.88244  0.60862  0.33857  1.0000
  H   H23       1.0  0.30187  0.49880  0.11751  1.0000
  H   H24       1.0  0.80222  0.50134  0.88252  1.0000
  C   C1        1.0  0.32136  0.52970  0.52135  1.0000
  C   C2        1.0  0.79151  0.47009  0.47879  1.0000
  C   C3        1.0  0.25455  0.39842  0.46907  1.0000
  C   C4        1.0  0.85579  0.60145  0.53088  1.0000
  C   C5        1.0  0.20633  0.28684  0.53369  1.0000
  C   C6        1.0  0.91865  0.71292  0.46614  1.0000
  C   C7        1.0  0.13444  0.16355  0.48305  1.0000
  C   C8        1.0  0.96962  0.83621  0.51671  1.0000
  C   C9        1.0  0.11462  0.14952  0.37022  1.0000
  C   C10       1.0  0.96432  0.85035  0.62957  1.0000
  C   C11       1.0  0.16788  0.25954  0.30628  1.0000
  C   C12       1.0  0.90815  0.74041  0.69361  1.0000
  C   C13       1.0  0.23573  0.38292  0.35580  1.0000
  C   C14       1.0  0.85274  0.61700  0.64414  1.0000
  C   C15       1.0  0.49959  0.98723  0.28245  1.0000
  C   C16       1.0  0.51170  0.01287  0.71767  1.0000
  C   C17       1.0  0.38754  0.85433  0.22969  1.0000
  C   C18       1.0  0.53268  0.14586  0.77039  1.0000
  C   C19       1.0  0.53860  0.76586  0.21947  1.0000
  C   C20       1.0  0.77208  0.23414  0.78058  1.0000
  C   C21       1.0  0.45816  0.68654  0.11362  1.0000
  C   C22       1.0  0.77070  0.31356  0.88642  1.0000
  C   C23       1.0  0.39138  0.78448  0.04284  1.0000
  C   C24       1.0  0.60594  0.21580  0.95721  1.0000
  S   S1        1.0  0.14978  0.24606  0.16096  1.0000
  S   S2        1.0  0.90383  0.75400  0.83894  1.0000
  N   N1        1.0  0.32427  0.86692  0.11903  1.0000
  N   N2        1.0  0.45671  0.13336  0.88106  1.0000
  O   O1        1.0  0.12509  0.11135  0.12902  1.0000
  O   O2        1.0  0.01329  0.88878  0.87069  1.0000
  O   O3        1.0  0.36064  0.33893  0.12565  1.0000
  O   O4        1.0  0.02223  0.66124  0.87427  1.0000
  O   O5        1.0  0.96024  0.29160  0.13026  1.0000
  O   O6        1.0  0.66891  0.70838  0.86975  1.0000
  O   O7        1.0  0.22705  0.29424  0.64266  1.0000
  O   O8        1.0  0.93194  0.70541  0.35719  1.0000
  O   O9        1.0  0.32375  0.53466  0.62659  1.0000
  O   O10       1.0  0.78865  0.46501  0.37355  1.0000
  O   O11       1.0  0.36942  0.62692  0.46059  1.0000
  O   O12       1.0  0.74277  0.37297  0.53966  1.0000
  O   O13       1.0  0.53623  0.98950  0.38498  1.0000
  O   O14       1.0  0.54518  0.01048  0.61503  1.0000
  O   O15       1.0  0.26706  0.58094  0.13237  1.0000
  O   O16       1.0  0.68537  0.41931  0.86761  1.0000
  O   O17       1.0  0.54600  0.08223  0.22068  1.0000
  O   O18       1.0  0.46387  0.91794  0.77950  1.0000
