data_image0
_chemical_formula_structural       Cu4H64C40N8O16
_chemical_formula_sum              "Cu4 H64 C40 N8 O16"
_cell_length_a       7.15877
_cell_length_b       8.51081
_cell_length_c       21.8508
_cell_angle_alpha    78.7745
_cell_angle_beta     80.7305
_cell_angle_gamma    65.152

_space_group_name_H-M_alt    "P 1"
_space_group_IT_number       1

loop_
  _space_group_symop_operation_xyz
  'x, y, z'

loop_
  _atom_site_type_symbol
  _atom_site_label
  _atom_site_symmetry_multiplicity
  _atom_site_fract_x
  _atom_site_fract_y
  _atom_site_fract_z
  _atom_site_occupancy
  Cu  Cu1       1.0  0.88174  0.90267  0.91072  1.0000
  Cu  Cu2       1.0  0.69526  0.59717  0.58909  1.0000
  Cu  Cu3       1.0  0.11827  0.09734  0.08929  1.0000
  Cu  Cu4       1.0  0.30476  0.40282  0.41090  1.0000
  H   H1        1.0  0.54854  0.87809  0.96223  1.0000
  H   H2        1.0  0.38837  0.62205  0.53752  1.0000
  H   H3        1.0  0.45147  0.12192  0.03777  1.0000
  H   H4        1.0  0.61164  0.37796  0.46248  1.0000
  H   H5        1.0  0.65699  0.83593  0.02336  1.0000
  H   H6        1.0  0.51580  0.66400  0.47659  1.0000
  H   H7        1.0  0.34302  0.16407  0.97664  1.0000
  H   H8        1.0  0.48421  0.33600  0.52341  1.0000
  H   H9        1.0  0.09741  0.11301  0.84448  1.0000
  H   H10       1.0  0.05465  0.38816  0.65494  1.0000
  H   H11       1.0  0.90261  0.88699  0.15552  1.0000
  H   H12       1.0  0.94537  0.61181  0.34506  1.0000
  H   H13       1.0  0.90075  0.25092  0.74954  1.0000
  H   H14       1.0  0.09927  0.74907  0.25046  1.0000
  H   H15       1.0  0.59480  0.25012  0.75012  1.0000
  H   H16       1.0  0.40521  0.74988  0.24988  1.0000
  H   H17       1.0  0.74401  0.45116  0.99633  1.0000
  H   H18       1.0  0.19185  0.04893  0.50362  1.0000
  H   H19       1.0  0.25599  0.54884  0.00367  1.0000
  H   H20       1.0  0.80813  0.95108  0.49637  1.0000
  H   H21       1.0  0.57672  0.34205  0.02347  1.0000
  H   H22       1.0  0.94272  0.15775  0.47616  1.0000
  H   H23       1.0  0.42330  0.65793  0.97654  1.0000
  H   H24       1.0  0.05726  0.84228  0.52383  1.0000
  H   H25       1.0  0.61708  0.35009  0.13383  1.0000
  H   H26       1.0  0.10130  0.14966  0.36595  1.0000
  H   H27       1.0  0.38291  0.64990  0.86617  1.0000
  H   H28       1.0  0.89869  0.85035  0.63404  1.0000
  H   H29       1.0  0.53202  0.56094  0.08970  1.0000
  H   H30       1.0  0.18313  0.93892  0.41014  1.0000
  H   H31       1.0  0.46796  0.43905  0.91030  1.0000
  H   H32       1.0  0.81684  0.06110  0.58985  1.0000
  H   H33       1.0  0.91426  0.51841  0.06886  1.0000
  H   H34       1.0  0.50166  0.98186  0.43146  1.0000
  H   H35       1.0  0.08572  0.48160  0.93114  1.0000
  H   H36       1.0  0.49833  0.01814  0.56854  1.0000
  H   H37       1.0  0.78919  0.56216  0.14426  1.0000
  H   H38       1.0  0.49563  0.93762  0.35604  1.0000
  H   H39       1.0  0.21079  0.43784  0.85574  1.0000
  H   H40       1.0  0.50435  0.06239  0.64396  1.0000
  H   H41       1.0  0.88543  0.35118  0.23378  1.0000
  H   H42       1.0  0.46995  0.14821  0.26644  1.0000
  H   H43       1.0  0.11456  0.64881  0.76623  1.0000
  H   H44       1.0  0.53004  0.85179  0.73355  1.0000
  H   H45       1.0  0.81626  0.20538  0.20246  1.0000
  H   H46       1.0  0.22388  0.29415  0.29746  1.0000
  H   H47       1.0  0.18374  0.79461  0.79754  1.0000
  H   H48       1.0  0.77612  0.70586  0.70254  1.0000
  H   H49       1.0  0.07054  0.13226  0.22481  1.0000
  H   H50       1.0  0.42714  0.36727  0.27532  1.0000
  H   H51       1.0  0.92946  0.86774  0.77519  1.0000
  H   H52       1.0  0.57287  0.63273  0.72468  1.0000
  H   H53       1.0  0.30826  0.24471  0.16799  1.0000
  H   H54       1.0  0.72062  0.25511  0.33236  1.0000
  H   H55       1.0  0.69173  0.75530  0.83201  1.0000
  H   H56       1.0  0.27939  0.74488  0.66764  1.0000
  H   H57       1.0  0.24501  0.39241  0.09699  1.0000
  H   H58       1.0  0.73472  0.10743  0.40337  1.0000
  H   H59       1.0  0.75498  0.60759  0.90302  1.0000
  H   H60       1.0  0.26529  0.89255  0.59662  1.0000
  H   H61       1.0  0.13071  0.46760  0.17084  1.0000
  H   H62       1.0  0.76852  0.03223  0.32951  1.0000
  H   H63       1.0  0.86927  0.53241  0.82916  1.0000
  H   H64       1.0  0.23147  0.96776  0.67049  1.0000
  C   C1        1.0  0.48225  0.07950  0.85861  1.0000
  C   C2        1.0  0.42050  0.42058  0.64120  1.0000
  C   C3        1.0  0.51776  0.92051  0.14139  1.0000
  C   C4        1.0  0.57951  0.57941  0.35880  1.0000
  C   C5        1.0  0.36054  0.16910  0.80247  1.0000
  C   C6        1.0  0.33196  0.33167  0.69731  1.0000
  C   C7        1.0  0.63947  0.83090  0.19753  1.0000
  C   C8        1.0  0.66806  0.66832  0.30269  1.0000
  C   C9        1.0  0.16293  0.17211  0.80258  1.0000
  C   C10       1.0  0.13734  0.32910  0.69695  1.0000
  C   C11       1.0  0.83709  0.82788  0.19742  1.0000
  C   C12       1.0  0.86268  0.67088  0.30305  1.0000
  C   C13       1.0  0.05308  0.25075  0.74969  1.0000
  C   C14       1.0  0.94694  0.74923  0.25031  1.0000
  C   C15       1.0  0.44286  0.25032  0.74997  1.0000
  C   C16       1.0  0.55715  0.74967  0.25003  1.0000
  C   C17       1.0  0.91009  0.08667  0.99603  1.0000
  C   C18       1.0  0.99286  0.41333  0.50388  1.0000
  C   C19       1.0  0.08992  0.91333  0.00397  1.0000
  C   C20       1.0  0.00715  0.58667  0.49611  1.0000
  C   C21       1.0  0.71207  0.35740  0.03454  1.0000
  C   C22       1.0  0.10430  0.14259  0.46531  1.0000
  C   C23       1.0  0.28793  0.64259  0.96547  1.0000
  C   C24       1.0  0.89568  0.85742  0.53468  1.0000
  C   C25       1.0  0.66488  0.43389  0.09534  1.0000
  C   C26       1.0  0.19442  0.06601  0.40457  1.0000
  C   C27       1.0  0.33511  0.56611  0.90466  1.0000
  C   C28       1.0  0.80556  0.93401  0.59543  1.0000
  C   C29       1.0  0.84414  0.46488  0.11165  1.0000
  C   C30       1.0  0.42077  0.03510  0.38855  1.0000
  C   C31       1.0  0.15584  0.53511  0.88835  1.0000
  C   C32       1.0  0.57921  0.96490  0.61144  1.0000
  C   C33       1.0  0.94158  0.24560  0.20434  1.0000
  C   C34       1.0  0.39117  0.25398  0.29578  1.0000
  C   C35       1.0  0.05841  0.75439  0.79567  1.0000
  C   C36       1.0  0.60883  0.74602  0.70422  1.0000
  C   C37       1.0  0.18505  0.35605  0.14440  1.0000
  C   C38       1.0  0.68529  0.14382  0.35593  1.0000
  C   C39       1.0  0.81493  0.64396  0.85561  1.0000
  C   C40       1.0  0.31471  0.85617  0.64406  1.0000
  N   N1        1.0  0.88729  0.18913  0.03692  1.0000
  N   N2        1.0  0.11336  0.31095  0.46304  1.0000
  N   N3        1.0  0.11272  0.81087  0.96308  1.0000
  N   N4        1.0  0.88664  0.68905  0.53695  1.0000
  N   N5        1.0  0.01271  0.30675  0.14059  1.0000
  N   N6        1.0  0.45995  0.19318  0.35962  1.0000
  N   N7        1.0  0.98727  0.69325  0.85942  1.0000
  N   N8        1.0  0.54005  0.80681  0.64037  1.0000
  O   O1        1.0  0.67743  0.04089  0.84856  1.0000
  O   O2        1.0  0.56731  0.45899  0.65131  1.0000
  O   O3        1.0  0.32259  0.95911  0.15145  1.0000
  O   O4        1.0  0.43270  0.54101  0.34869  1.0000
  O   O5        1.0  0.38739  0.04548  0.90999  1.0000
  O   O6        1.0  0.34293  0.45416  0.58970  1.0000
  O   O7        1.0  0.61263  0.95453  0.09001  1.0000
  O   O8        1.0  0.65707  0.54585  0.41030  1.0000
  O   O9        1.0  0.79535  0.12000  0.95172  1.0000
  O   O10       1.0  0.86739  0.37997  0.54801  1.0000
  O   O11       1.0  0.20467  0.87999  0.04828  1.0000
  O   O12       1.0  0.13261  0.62004  0.45199  1.0000
  O   O13       1.0  0.67075  0.79083  0.98384  1.0000
  O   O14       1.0  0.44520  0.70906  0.51610  1.0000
  O   O15       1.0  0.32925  0.20917  0.01616  1.0000
  O   O16       1.0  0.55480  0.29095  0.48390  1.0000
