data_image0
_chemical_formula_structural       Cu2H32C20N4O8
_chemical_formula_sum              "Cu2 H32 C20 N4 O8"
_cell_length_a       7.26336
_cell_length_b       8.03961
_cell_length_c       11.2564
_cell_angle_alpha    91.7143
_cell_angle_beta     109.824
_cell_angle_gamma    108.997

_space_group_name_H-M_alt    "P 1"
_space_group_IT_number       1

loop_
  _space_group_symop_operation_xyz
  'x, y, z'

loop_
  _atom_site_type_symbol
  _atom_site_label
  _atom_site_symmetry_multiplicity
  _atom_site_fract_x
  _atom_site_fract_y
  _atom_site_fract_z
  _atom_site_occupancy
  Cu  Cu1       1.0  0.46689  0.68833  0.18283  1.0000
  Cu  Cu2       1.0  0.53312  0.31167  0.81717  1.0000
  H   H1        1.0  0.12939  0.64470  0.94824  1.0000
  H   H2        1.0  0.87062  0.35530  0.05176  1.0000
  H   H3        1.0  0.09175  0.66248  0.07467  1.0000
  H   H4        1.0  0.90824  0.33753  0.92533  1.0000
  H   H5        1.0  0.26443  0.04434  0.00171  1.0000
  H   H6        1.0  0.73559  0.95569  0.99829  1.0000
  H   H7        1.0  0.07909  0.14981  0.94764  1.0000
  H   H8        1.0  0.92091  0.85019  0.05235  1.0000
  H   H9        1.0  0.97936  0.87125  0.80646  1.0000
  H   H10       1.0  0.02066  0.12873  0.19356  1.0000
  H   H11       1.0  0.02866  0.05118  0.72108  1.0000
  H   H12       1.0  0.97132  0.94879  0.27891  1.0000
  H   H13       1.0  0.18205  0.79801  0.70432  1.0000
  H   H14       1.0  0.81797  0.20198  0.29569  1.0000
  H   H15       1.0  0.36531  0.89934  0.86012  1.0000
  H   H16       1.0  0.63472  0.10068  0.13990  1.0000
  H   H17       1.0  0.15441  0.11058  0.57798  1.0000
  H   H18       1.0  0.84558  0.88940  0.42203  1.0000
  H   H19       1.0  0.38335  0.14852  0.54212  1.0000
  H   H20       1.0  0.61663  0.85147  0.45788  1.0000
  H   H21       1.0  0.20671  0.92411  0.52484  1.0000
  H   H22       1.0  0.79326  0.07587  0.47517  1.0000
  H   H23       1.0  0.50033  0.84845  0.66597  1.0000
  H   H24       1.0  0.49967  0.15156  0.33404  1.0000
  H   H25       1.0  0.66254  0.07211  0.66867  1.0000
  H   H26       1.0  0.33747  0.92790  0.33133  1.0000
  H   H27       1.0  0.66721  0.99128  0.81526  1.0000
  H   H28       1.0  0.33280  0.00875  0.18474  1.0000
  H   H29       1.0  0.76551  0.54271  0.29292  1.0000
  H   H30       1.0  0.23448  0.45730  0.70707  1.0000
  H   H31       1.0  0.35834  0.51171  0.52455  1.0000
  H   H32       1.0  0.64166  0.48828  0.47546  1.0000
  C   C1        1.0  0.42058  0.41865  0.00808  1.0000
  C   C2        1.0  0.57941  0.58135  0.99190  1.0000
  C   C3        1.0  0.19975  0.11533  0.92547  1.0000
  C   C4        1.0  0.80026  0.88467  0.07452  1.0000
  C   C5        1.0  0.10389  0.98866  0.79970  1.0000
  C   C6        1.0  0.89611  0.01133  0.20030  1.0000
  C   C7        1.0  0.26233  0.92484  0.77114  1.0000
  C   C8        1.0  0.73769  0.07516  0.22887  1.0000
  C   C9        1.0  0.27796  0.05890  0.58186  1.0000
  C   C10       1.0  0.72203  0.94109  0.41814  1.0000
  C   C11       1.0  0.56793  0.98669  0.71641  1.0000
  C   C12       1.0  0.43208  0.01332  0.28359  1.0000
  C   C13       1.0  0.13718  0.56564  0.28610  1.0000
  C   C14       1.0  0.86282  0.43437  0.71390  1.0000
  C   C15       1.0  0.06902  0.53161  0.39788  1.0000
  C   C16       1.0  0.93098  0.46839  0.60212  1.0000
  C   C17       1.0  0.86720  0.52486  0.38455  1.0000
  C   C18       1.0  0.13282  0.47515  0.61546  1.0000
  C   C19       1.0  0.20170  0.50671  0.51410  1.0000
  C   C20       1.0  0.79832  0.49330  0.48590  1.0000
  N   N1        1.0  0.36275  0.27735  0.92361  1.0000
  N   N2        1.0  0.63723  0.72264  0.07637  1.0000
  N   N3        1.0  0.39899  0.05163  0.71545  1.0000
  N   N4        1.0  0.60102  0.94837  0.28456  1.0000
  O   O1        1.0  0.35506  0.42975  0.09943  1.0000
  O   O2        1.0  0.64491  0.57024  0.90055  1.0000
  O   O3        1.0  0.33511  0.61478  0.31101  1.0000
  O   O4        1.0  0.66488  0.38521  0.68898  1.0000
  O   O5        1.0  0.99742  0.54927  0.17779  1.0000
  O   O6        1.0  0.00257  0.45075  0.82221  1.0000
  O   O7        1.0  0.17758  0.72993  0.02675  1.0000
  O   O8        1.0  0.82242  0.27007  0.97325  1.0000
