data_image0
_chemical_formula_structural       Li4H54C30S2N18
_chemical_formula_sum              "Li4 H54 C30 S2 N18"
_cell_length_a       10.0674
_cell_length_b       10.2997
_cell_length_c       12.4108
_cell_angle_alpha    78.4326
_cell_angle_beta     67.3327
_cell_angle_gamma    83.0157

_space_group_name_H-M_alt    "P 1"
_space_group_IT_number       1

loop_
  _space_group_symop_operation_xyz
  'x, y, z'

loop_
  _atom_site_type_symbol
  _atom_site_label
  _atom_site_symmetry_multiplicity
  _atom_site_fract_x
  _atom_site_fract_y
  _atom_site_fract_z
  _atom_site_occupancy
  Li  Li1       1.0  0.30214  0.48069  0.61727  1.0000
  Li  Li2       1.0  0.69786  0.51931  0.38273  1.0000
  Li  Li3       1.0  0.46400  0.67556  0.51654  1.0000
  Li  Li4       1.0  0.53600  0.32444  0.48346  1.0000
  H   H1        1.0  0.24654  0.25974  0.83457  1.0000
  H   H2        1.0  0.75346  0.74027  0.16542  1.0000
  H   H3        1.0  0.43261  0.87391  0.62830  1.0000
  H   H4        1.0  0.56739  0.12608  0.37170  1.0000
  H   H5        1.0  0.39808  0.91479  0.50738  1.0000
  H   H6        1.0  0.60192  0.08521  0.49261  1.0000
  H   H7        1.0  0.30479  0.54876  0.82805  1.0000
  H   H8        1.0  0.69520  0.45124  0.17195  1.0000
  H   H9        1.0  0.45078  0.65491  0.78216  1.0000
  H   H10       1.0  0.54921  0.34509  0.21784  1.0000
  H   H11       1.0  0.53049  0.47789  0.90767  1.0000
  H   H12       1.0  0.46951  0.52211  0.09233  1.0000
  H   H13       1.0  0.44878  0.35371  0.87377  1.0000
  H   H14       1.0  0.55122  0.64629  0.12623  1.0000
  H   H15       1.0  0.66695  0.22192  0.75707  1.0000
  H   H16       1.0  0.33305  0.77809  0.24293  1.0000
  H   H17       1.0  0.81542  0.30892  0.75042  1.0000
  H   H18       1.0  0.18458  0.69109  0.24958  1.0000
  H   H19       1.0  0.88671  0.38279  0.53848  1.0000
  H   H20       1.0  0.11329  0.61722  0.46152  1.0000
  H   H21       1.0  0.81217  0.23085  0.54908  1.0000
  H   H22       1.0  0.18783  0.76916  0.45092  1.0000
  H   H23       1.0  0.94270  0.54225  0.68076  1.0000
  H   H24       1.0  0.05730  0.45775  0.31924  1.0000
  H   H25       1.0  0.97775  0.67201  0.73958  1.0000
  H   H26       1.0  0.02225  0.32799  0.26041  1.0000
  H   H27       1.0  0.84553  0.56823  0.94372  1.0000
  H   H28       1.0  0.15447  0.43177  0.05629  1.0000
  H   H29       1.0  0.75057  0.50418  0.87060  1.0000
  H   H30       1.0  0.24943  0.49582  0.12940  1.0000
  H   H31       1.0  0.80643  0.23358  0.04099  1.0000
  H   H32       1.0  0.19358  0.76642  0.95900  1.0000
  H   H33       1.0  0.89570  0.34745  0.07915  1.0000
  H   H34       1.0  0.10431  0.65255  0.92084  1.0000
  H   H35       1.0  0.07825  0.16552  0.04988  1.0000
  H   H36       1.0  0.92176  0.83448  0.95011  1.0000
  H   H37       1.0  0.03246  0.11882  0.93791  1.0000
  H   H38       1.0  0.96754  0.88118  0.06208  1.0000
  H   H39       1.0  0.26867  0.29554  0.43028  1.0000
  H   H40       1.0  0.73132  0.70446  0.56973  1.0000
  H   H41       1.0  0.14130  0.38313  0.53765  1.0000
  H   H42       1.0  0.85870  0.61687  0.46236  1.0000
  H   H43       1.0  0.01662  0.18724  0.64950  1.0000
  H   H44       1.0  0.98338  0.81275  0.35051  1.0000
  H   H45       1.0  0.11599  0.11209  0.52212  1.0000
  H   H46       1.0  0.88400  0.88792  0.47789  1.0000
  H   H47       1.0  0.05496  0.96604  0.77240  1.0000
  H   H48       1.0  0.94504  0.03396  0.22760  1.0000
  H   H49       1.0  0.22522  0.95267  0.78955  1.0000
  H   H50       1.0  0.77478  0.04732  0.21045  1.0000
  H   H51       1.0  0.19718  0.75460  0.71794  1.0000
  H   H52       1.0  0.80282  0.24540  0.28205  1.0000
  H   H53       1.0  0.16367  0.85267  0.59643  1.0000
  H   H54       1.0  0.83632  0.14733  0.40357  1.0000
  C   C1        1.0  0.58780  0.45820  0.63764  1.0000
  C   C2        1.0  0.41220  0.54181  0.36236  1.0000
  C   C3        1.0  0.42167  0.55495  0.78089  1.0000
  C   C4        1.0  0.57832  0.44505  0.21910  1.0000
  C   C5        1.0  0.50684  0.44700  0.83736  1.0000
  C   C6        1.0  0.49316  0.55301  0.16264  1.0000
  C   C7        1.0  0.72990  0.31174  0.71541  1.0000
  C   C8        1.0  0.27010  0.68826  0.28459  1.0000
  C   C9        1.0  0.78639  0.32765  0.57882  1.0000
  C   C10       1.0  0.21361  0.67236  0.42118  1.0000
  C   C11       1.0  0.07074  0.39220  0.83581  1.0000
  C   C12       1.0  0.92926  0.60780  0.16418  1.0000
  C   C13       1.0  0.97056  0.56400  0.75292  1.0000
  C   C14       1.0  0.02944  0.43600  0.24708  1.0000
  C   C15       1.0  0.85640  0.50951  0.87491  1.0000
  C   C16       1.0  0.14360  0.49049  0.12509  1.0000
  C   C17       1.0  0.90312  0.29093  0.00984  1.0000
  C   C18       1.0  0.09689  0.70907  0.99016  1.0000
  C   C19       1.0  0.04398  0.20374  0.97510  1.0000
  C   C20       1.0  0.95603  0.79626  0.02490  1.0000
  C   C21       1.0  0.21202  0.29254  0.52650  1.0000
  C   C22       1.0  0.78798  0.70746  0.47351  1.0000
  C   C23       1.0  0.12626  0.16631  0.58636  1.0000
  C   C24       1.0  0.87374  0.83369  0.41365  1.0000
  C   C25       1.0  0.31512  0.16981  0.65008  1.0000
  C   C26       1.0  0.68489  0.83018  0.34992  1.0000
  C   C27       1.0  0.17318  0.96468  0.72437  1.0000
  C   C28       1.0  0.82682  0.03532  0.27563  1.0000
  C   C29       1.0  0.22300  0.84863  0.65530  1.0000
  C   C30       1.0  0.77700  0.15137  0.34470  1.0000
  S   S1        1.0  0.42471  0.11496  0.72888  1.0000
  S   S2        1.0  0.57529  0.88503  0.27112  1.0000
  N   N1        1.0  0.46458  0.53110  0.65824  1.0000
  N   N2        1.0  0.53541  0.46890  0.34176  1.0000
  N   N3        1.0  0.67061  0.40272  0.54411  1.0000
  N   N4        1.0  0.32939  0.59728  0.45589  1.0000
  N   N5        1.0  0.63558  0.43126  0.73290  1.0000
  N   N6        1.0  0.36442  0.56875  0.26710  1.0000
  N   N7        1.0  0.10909  0.49433  0.75126  1.0000
  N   N8        1.0  0.89091  0.50568  0.24874  1.0000
  N   N9        1.0  0.14657  0.29667  0.88484  1.0000
  N   N10       1.0  0.85343  0.70334  0.11515  1.0000
  N   N11       1.0  0.92384  0.37804  0.89701  1.0000
  N   N12       1.0  0.07616  0.62197  0.10299  1.0000
  N   N13       1.0  0.31801  0.28865  0.58328  1.0000
  N   N14       1.0  0.68199  0.71134  0.41673  1.0000
  N   N15       1.0  0.21380  0.09070  0.64957  1.0000
  N   N16       1.0  0.78620  0.90929  0.35043  1.0000
  N   N17       1.0  0.37772  0.84552  0.58296  1.0000
  N   N18       1.0  0.62228  0.15448  0.41704  1.0000
