data_image0
_chemical_formula_structural       Ag4H28C24N8O8
_chemical_formula_sum              "Ag4 H28 C24 N8 O8"
_cell_length_a       8.6214
_cell_length_b       8.62142
_cell_length_c       9.49938
_cell_angle_alpha    96.853
_cell_angle_beta     96.853
_cell_angle_gamma    99.951

_space_group_name_H-M_alt    "P 1"
_space_group_IT_number       1

loop_
  _space_group_symop_operation_xyz
  'x, y, z'

loop_
  _atom_site_type_symbol
  _atom_site_label
  _atom_site_symmetry_multiplicity
  _atom_site_fract_x
  _atom_site_fract_y
  _atom_site_fract_z
  _atom_site_occupancy
  Ag  Ag1       1.0  1.00000  0.00000  1.00000  1.0000
  Ag  Ag2       1.0  1.00000  1.00000  0.50000  1.0000
  Ag  Ag3       1.0  0.88311  0.11688  0.75000  1.0000
  Ag  Ag4       1.0  0.11689  0.88312  0.25000  1.0000
  H   H1        1.0  0.56517  0.89133  0.73755  1.0000
  H   H2        1.0  0.10868  0.43483  0.76245  1.0000
  H   H3        1.0  0.43483  0.10868  0.26245  1.0000
  H   H4        1.0  0.89132  0.56516  0.23755  1.0000
  H   H5        1.0  0.48625  0.25229  0.70353  1.0000
  H   H6        1.0  0.74772  0.51374  0.79646  1.0000
  H   H7        1.0  0.51374  0.74771  0.29647  1.0000
  H   H8        1.0  0.25228  0.48625  0.20353  1.0000
  H   H9        1.0  0.35139  0.12294  0.56344  1.0000
  H   H10       1.0  0.87707  0.64861  0.93656  1.0000
  H   H11       1.0  0.64861  0.87707  0.43656  1.0000
  H   H12       1.0  0.12293  0.35139  0.06344  1.0000
  H   H13       1.0  0.54814  0.08701  0.61326  1.0000
  H   H14       1.0  0.91300  0.45185  0.88674  1.0000
  H   H15       1.0  0.45185  0.91300  0.38674  1.0000
  H   H16       1.0  0.08700  0.54814  0.11326  1.0000
  H   H17       1.0  0.41351  0.56492  0.88689  1.0000
  H   H18       1.0  0.43508  0.58649  0.61311  1.0000
  H   H19       1.0  0.58650  0.43508  0.11311  1.0000
  H   H20       1.0  0.56492  0.41351  0.38689  1.0000
  H   H21       1.0  0.60377  0.68302  0.88096  1.0000
  H   H22       1.0  0.31699  0.39623  0.61903  1.0000
  H   H23       1.0  0.39623  0.31699  0.11903  1.0000
  H   H24       1.0  0.68301  0.60377  0.38096  1.0000
  H   H25       1.0  0.52009  0.68284  0.04384  1.0000
  H   H26       1.0  0.31716  0.47991  0.45616  1.0000
  H   H27       1.0  0.47991  0.31717  0.95616  1.0000
  H   H28       1.0  0.68283  0.52008  0.54384  1.0000
  C   C1        1.0  0.44651  0.12848  0.65281  1.0000
  C   C2        1.0  0.87153  0.55349  0.84719  1.0000
  C   C3        1.0  0.55349  0.87153  0.34719  1.0000
  C   C4        1.0  0.12847  0.44651  0.15281  1.0000
  C   C5        1.0  0.25777  0.05959  0.81882  1.0000
  C   C6        1.0  0.94041  0.74223  0.68118  1.0000
  C   C7        1.0  0.74223  0.94042  0.18118  1.0000
  C   C8        1.0  0.05959  0.25777  0.31882  1.0000
  C   C9        1.0  0.28627  0.85308  0.96375  1.0000
  C   C10       1.0  0.14692  0.71373  0.53625  1.0000
  C   C11       1.0  0.71373  0.14692  0.03625  1.0000
  C   C12       1.0  0.85308  0.28626  0.46375  1.0000
  C   C13       1.0  0.41636  0.81524  0.89169  1.0000
  C   C14       1.0  0.18476  0.58364  0.60831  1.0000
  C   C15       1.0  0.58364  0.18476  0.10831  1.0000
  C   C16       1.0  0.81524  0.41636  0.39168  1.0000
  C   C17       1.0  0.46401  0.90819  0.79262  1.0000
  C   C18       1.0  0.09182  0.53599  0.70738  1.0000
  C   C19       1.0  0.53598  0.09181  0.20738  1.0000
  C   C20       1.0  0.90819  0.46401  0.29262  1.0000
  C   C21       1.0  0.49327  0.67979  0.92760  1.0000
  C   C22       1.0  0.32021  0.50673  0.57240  1.0000
  C   C23       1.0  0.50673  0.32021  0.07240  1.0000
  C   C24       1.0  0.67979  0.49327  0.42759  1.0000
  N   N1        1.0  0.38952  0.02905  0.75691  1.0000
  N   N2        1.0  0.97096  0.61048  0.74309  1.0000
  N   N3        1.0  0.61047  0.97095  0.24309  1.0000
  N   N4        1.0  0.02904  0.38952  0.25691  1.0000
  N   N5        1.0  0.20997  0.96938  0.91965  1.0000
  N   N6        1.0  0.03063  0.79003  0.58036  1.0000
  N   N7        1.0  0.79003  0.03062  0.08036  1.0000
  N   N8        1.0  0.96938  0.20996  0.41964  1.0000
  O   O1        1.0  0.18835  0.16835  0.78063  1.0000
  O   O2        1.0  0.83166  0.81166  0.71938  1.0000
  O   O3        1.0  0.81165  0.83166  0.21938  1.0000
  O   O4        1.0  0.16835  0.18835  0.28063  1.0000
  O   O5        1.0  0.24363  0.78052  0.06579  1.0000
  O   O6        1.0  0.21948  0.75636  0.43421  1.0000
  O   O7        1.0  0.75637  0.21948  0.93421  1.0000
  O   O8        1.0  0.78052  0.24363  0.56579  1.0000
