data_image0
_chemical_formula_structural       Zn2H22C30I2N8O8
_chemical_formula_sum              "Zn2 H22 C30 I2 N8 O8"
_cell_length_a       9.40579
_cell_length_b       10.2027
_cell_length_c       11.1171
_cell_angle_alpha    75.8942
_cell_angle_beta     67.3722
_cell_angle_gamma    76.128

_space_group_name_H-M_alt    "P 1"
_space_group_IT_number       1

loop_
  _space_group_symop_operation_xyz
  'x, y, z'

loop_
  _atom_site_type_symbol
  _atom_site_label
  _atom_site_symmetry_multiplicity
  _atom_site_fract_x
  _atom_site_fract_y
  _atom_site_fract_z
  _atom_site_occupancy
  Zn  Zn1       1.0  0.93318  0.95996  0.70962  1.0000
  Zn  Zn2       1.0  0.06681  0.04004  0.29038  1.0000
  H   H1        1.0  0.60533  0.84759  0.82751  1.0000
  H   H2        1.0  0.39466  0.15242  0.17249  1.0000
  H   H3        1.0  0.78279  0.13727  0.50621  1.0000
  H   H4        1.0  0.21721  0.86274  0.49379  1.0000
  H   H5        1.0  0.49883  0.16826  0.52290  1.0000
  H   H6        1.0  0.50117  0.83173  0.47710  1.0000
  H   H7        1.0  0.19565  0.86232  0.05177  1.0000
  H   H8        1.0  0.80435  0.13768  0.94823  1.0000
  H   H9        1.0  0.10409  0.26945  0.06714  1.0000
  H   H10       1.0  0.89591  0.73055  0.93286  1.0000
  H   H11       1.0  0.21008  0.26801  0.81114  1.0000
  H   H12       1.0  0.78993  0.73199  0.18885  1.0000
  H   H13       1.0  0.30843  0.86474  0.78066  1.0000
  H   H14       1.0  0.69157  0.13526  0.21934  1.0000
  H   H15       1.0  0.25683  0.01954  0.68307  1.0000
  H   H16       1.0  0.74317  0.98045  0.31694  1.0000
  H   H17       1.0  0.91890  0.44659  0.74603  1.0000
  H   H18       1.0  0.08110  0.55341  0.25396  1.0000
  H   H19       1.0  0.26833  0.24075  0.43816  1.0000
  H   H20       1.0  0.73167  0.75925  0.56183  1.0000
  H   H21       1.0  0.30395  0.64518  0.46893  1.0000
  H   H22       1.0  0.69605  0.35482  0.53107  1.0000
  C   C1        1.0  0.60454  0.93026  0.74496  1.0000
  C   C2        1.0  0.39546  0.06974  0.25504  1.0000
  C   C3        1.0  0.48236  0.99567  0.69704  1.0000
  C   C4        1.0  0.51764  0.00433  0.30296  1.0000
  C   C5        1.0  0.54822  0.09375  0.59029  1.0000
  C   C6        1.0  0.45178  0.90624  0.40971  1.0000
  C   C7        1.0  0.18726  0.97081  0.01074  1.0000
  C   C8        1.0  0.81274  0.02919  0.98926  1.0000
  C   C9        1.0  0.23180  0.03820  0.87880  1.0000
  C   C10       1.0  0.76820  0.96180  0.12120  1.0000
  C   C11       1.0  0.19496  0.17757  0.88728  1.0000
  C   C12       1.0  0.80505  0.82242  0.11272  1.0000
  C   C13       1.0  0.31499  0.97476  0.75601  1.0000
  C   C14       1.0  0.68501  0.02524  0.24399  1.0000
  C   C15       1.0  0.10575  0.55778  0.61760  1.0000
  C   C16       1.0  0.89425  0.44222  0.38240  1.0000
  C   C17       1.0  0.02743  0.44531  0.66178  1.0000
  C   C18       1.0  0.97258  0.55468  0.33822  1.0000
  C   C19       1.0  0.08530  0.33190  0.59774  1.0000
  C   C20       1.0  0.91471  0.66809  0.40226  1.0000
  C   C21       1.0  0.22454  0.32928  0.48837  1.0000
  C   C22       1.0  0.77547  0.67073  0.51163  1.0000
  C   C23       1.0  0.30088  0.44283  0.44397  1.0000
  C   C24       1.0  0.69912  0.55718  0.55602  1.0000
  C   C25       1.0  0.24332  0.55743  0.50671  1.0000
  C   C26       1.0  0.75668  0.44257  0.49329  1.0000
  C   C27       1.0  0.03307  0.67618  0.69112  1.0000
  C   C28       1.0  0.96693  0.32382  0.30888  1.0000
  C   C29       1.0  0.99391  0.21564  0.64890  1.0000
  C   C30       1.0  0.00610  0.78435  0.35110  1.0000
  I   I1        1.0  0.50586  0.44392  0.27469  1.0000
  I   I2        1.0  0.49414  0.55609  0.72531  1.0000
  N   N1        1.0  0.73471  0.98502  0.67222  1.0000
  N   N2        1.0  0.26529  0.01499  0.32778  1.0000
  N   N3        1.0  0.69791  0.08471  0.57944  1.0000
  N   N4        1.0  0.30209  0.91529  0.42056  1.0000
  N   N5        1.0  0.12739  0.06297  0.09338  1.0000
  N   N6        1.0  0.87261  0.93703  0.90662  1.0000
  N   N7        1.0  0.13213  0.18789  0.01655  1.0000
  N   N8        1.0  0.86787  0.81211  0.98345  1.0000
  O   O1        1.0  0.07946  0.79363  0.63513  1.0000
  O   O2        1.0  0.92052  0.20637  0.36488  1.0000
  O   O3        1.0  0.92810  0.65721  0.80229  1.0000
  O   O4        1.0  0.07190  0.34278  0.19771  1.0000
  O   O5        1.0  0.06580  0.10102  0.60553  1.0000
  O   O6        1.0  0.93420  0.89898  0.39447  1.0000
  O   O7        1.0  0.85785  0.23145  0.72980  1.0000
  O   O8        1.0  0.14215  0.76855  0.27019  1.0000
