data_image0
_chemical_formula_structural       Li2H46C36N6
_chemical_formula_sum              "Li2 H46 C36 N6"
_cell_length_a       8.28537
_cell_length_b       10.1462
_cell_length_c       11.5782
_cell_angle_alpha    114.354
_cell_angle_beta     93.1497
_cell_angle_gamma    107.709

_space_group_name_H-M_alt    "P 1"
_space_group_IT_number       1

loop_
  _space_group_symop_operation_xyz
  'x, y, z'

loop_
  _atom_site_type_symbol
  _atom_site_label
  _atom_site_symmetry_multiplicity
  _atom_site_fract_x
  _atom_site_fract_y
  _atom_site_fract_z
  _atom_site_occupancy
  Li  Li1       1.0  0.15378  0.02185  0.49489  1.0000
  Li  Li2       1.0  0.84622  0.97815  0.50511  1.0000
  H   H1        1.0  0.84992  0.03384  0.87777  1.0000
  H   H2        1.0  0.15009  0.96615  0.12222  1.0000
  H   H3        1.0  0.63852  0.95830  0.00386  1.0000
  H   H4        1.0  0.36149  0.04170  0.99614  1.0000
  H   H5        1.0  0.32597  0.55611  0.65648  1.0000
  H   H6        1.0  0.67403  0.44389  0.34352  1.0000
  H   H7        1.0  0.53499  0.63179  0.52959  1.0000
  H   H8        1.0  0.46501  0.36820  0.47040  1.0000
  H   H9        1.0  0.36694  0.60790  0.93387  1.0000
  H   H10       1.0  0.63307  0.39209  0.06613  1.0000
  H   H11       1.0  0.35961  0.79664  0.01183  1.0000
  H   H12       1.0  0.64039  0.20335  0.98817  1.0000
  H   H13       1.0  0.20827  0.65312  0.86540  1.0000
  H   H14       1.0  0.79175  0.34688  0.13459  1.0000
  H   H15       1.0  0.06094  0.58720  0.47743  1.0000
  H   H16       1.0  0.93907  0.41279  0.52257  1.0000
  H   H17       1.0  0.16172  0.40184  0.30973  1.0000
  H   H18       1.0  0.83830  0.59817  0.69027  1.0000
  H   H19       1.0  0.12344  0.61939  0.06580  1.0000
  H   H20       1.0  0.87655  0.38061  0.93420  1.0000
  H   H21       1.0  0.01694  0.80217  0.23173  1.0000
  H   H22       1.0  0.98306  0.19783  0.76828  1.0000
  H   H23       1.0  0.21646  0.40512  0.98750  1.0000
  H   H24       1.0  0.78353  0.59487  0.01250  1.0000
  H   H25       1.0  0.34296  0.39643  0.11203  1.0000
  H   H26       1.0  0.65703  0.60357  0.88797  1.0000
  H   H27       1.0  0.12991  0.26306  0.04208  1.0000
  H   H28       1.0  0.87008  0.73693  0.95792  1.0000
  H   H29       1.0  0.82901  0.65401  0.52071  1.0000
  H   H30       1.0  0.17098  0.34598  0.47929  1.0000
  H   H31       1.0  0.57687  0.17676  0.55063  1.0000
  H   H32       1.0  0.42313  0.82324  0.44937  1.0000
  H   H33       1.0  0.62572  0.07477  0.63209  1.0000
  H   H34       1.0  0.37428  0.92523  0.36792  1.0000
  H   H35       1.0  0.29547  0.85798  0.61281  1.0000
  H   H36       1.0  0.70452  0.14202  0.38720  1.0000
  H   H37       1.0  0.20789  0.98547  0.72371  1.0000
  H   H38       1.0  0.79211  0.01453  0.27629  1.0000
  H   H39       1.0  0.43035  0.00758  0.76394  1.0000
  H   H40       1.0  0.56964  0.99243  0.23606  1.0000
  H   H41       1.0  0.29381  0.25242  0.76317  1.0000
  H   H42       1.0  0.70618  0.74758  0.23683  1.0000
  H   H43       1.0  0.44506  0.32331  0.67997  1.0000
  H   H44       1.0  0.55493  0.67669  0.32003  1.0000
  H   H45       1.0  0.51768  0.28047  0.80392  1.0000
  H   H46       1.0  0.48231  0.71953  0.19608  1.0000
  C   C1        1.0  0.71191  0.83560  0.69563  1.0000
  C   C2        1.0  0.28808  0.16440  0.30436  1.0000
  C   C3        1.0  0.73497  0.92851  0.82956  1.0000
  C   C4        1.0  0.26503  0.07149  0.17044  1.0000
  C   C5        1.0  0.61570  0.88577  0.89965  1.0000
  C   C6        1.0  0.38430  0.11424  0.10034  1.0000
  C   C7        1.0  0.46758  0.75040  0.83979  1.0000
  C   C8        1.0  0.53243  0.24960  0.16021  1.0000
  C   C9        1.0  0.44216  0.66029  0.70571  1.0000
  C   C10       1.0  0.55784  0.33971  0.29430  1.0000
  C   C11       1.0  0.56073  0.70148  0.63447  1.0000
  C   C12       1.0  0.43927  0.29851  0.36552  1.0000
  C   C13       1.0  0.34379  0.70032  0.91665  1.0000
  C   C14       1.0  0.65622  0.29969  0.08335  1.0000
  C   C15       1.0  0.02152  0.70282  0.36354  1.0000
  C   C16       1.0  0.97849  0.29718  0.63646  1.0000
  C   C17       1.0  0.06677  0.58992  0.38456  1.0000
  C   C18       1.0  0.93324  0.41008  0.61545  1.0000
  C   C19       1.0  0.12640  0.48748  0.29086  1.0000
  C   C20       1.0  0.87361  0.51253  0.70914  1.0000
  C   C21       1.0  0.14650  0.49432  0.17362  1.0000
  C   C22       1.0  0.85350  0.50569  0.82639  1.0000
  C   C23       1.0  0.10631  0.60963  0.15492  1.0000
  C   C24       1.0  0.89369  0.39037  0.84508  1.0000
  C   C25       1.0  0.04443  0.71126  0.24689  1.0000
  C   C26       1.0  0.95558  0.28875  0.75312  1.0000
  C   C27       1.0  0.21242  0.38466  0.07342  1.0000
  C   C28       1.0  0.78758  0.61534  0.92658  1.0000
  C   C29       1.0  0.87522  0.77540  0.53545  1.0000
  C   C30       1.0  0.12478  0.22459  0.46455  1.0000
  C   C31       1.0  0.52362  0.07251  0.56477  1.0000
  C   C32       1.0  0.47638  0.92750  0.43524  1.0000
  C   C33       1.0  0.32462  0.97817  0.68481  1.0000
  C   C34       1.0  0.67538  0.02184  0.31519  1.0000
  C   C35       1.0  0.40969  0.24359  0.72370  1.0000
  C   C36       1.0  0.59031  0.75641  0.27630  1.0000
  N   N1        1.0  0.96738  0.81291  0.45523  1.0000
  N   N2        1.0  0.03262  0.18710  0.54477  1.0000
  N   N3        1.0  0.83446  0.88191  0.62872  1.0000
  N   N4        1.0  0.16553  0.11809  0.37128  1.0000
  N   N5        1.0  0.37193  0.08349  0.62447  1.0000
  N   N6        1.0  0.62806  0.91650  0.37553  1.0000
