data_image0
_chemical_formula_structural       Na2Zn2H28C22N2O18
_chemical_formula_sum              "Na2 Zn2 H28 C22 N2 O18"
_cell_length_a       7.90421
_cell_length_b       8.48197
_cell_length_c       11.438
_cell_angle_alpha    98.9979
_cell_angle_beta     97.2855
_cell_angle_gamma    94.7969

_space_group_name_H-M_alt    "P 1"
_space_group_IT_number       1

loop_
  _space_group_symop_operation_xyz
  'x, y, z'

loop_
  _atom_site_type_symbol
  _atom_site_label
  _atom_site_symmetry_multiplicity
  _atom_site_fract_x
  _atom_site_fract_y
  _atom_site_fract_z
  _atom_site_occupancy
  Na  Na1       1.0  0.71409  0.47498  0.53659  1.0000
  Na  Na2       1.0  0.28590  0.52501  0.46341  1.0000
  Zn  Zn1       1.0  0.81843  0.12717  0.65487  1.0000
  Zn  Zn2       1.0  0.18158  0.87280  0.34513  1.0000
  H   H1        1.0  0.37525  0.20693  0.82123  1.0000
  H   H2        1.0  0.62476  0.79308  0.17877  1.0000
  H   H3        1.0  0.35828  0.15360  0.66386  1.0000
  H   H4        1.0  0.64171  0.84641  0.33616  1.0000
  H   H5        1.0  0.34954  0.90940  0.62746  1.0000
  H   H6        1.0  0.65044  0.09059  0.37254  1.0000
  H   H7        1.0  0.44746  0.79242  0.72451  1.0000
  H   H8        1.0  0.55255  0.20758  0.27550  1.0000
  H   H9        1.0  0.61183  0.27218  0.95173  1.0000
  H   H10       1.0  0.38818  0.72782  0.04826  1.0000
  H   H11       1.0  0.77472  0.24924  0.14301  1.0000
  H   H12       1.0  0.22529  0.75076  0.85699  1.0000
  H   H13       1.0  0.85041  0.76198  0.00880  1.0000
  H   H14       1.0  0.14961  0.23802  0.99119  1.0000
  H   H15       1.0  0.68022  0.77779  0.81636  1.0000
  H   H16       1.0  0.31981  0.22221  0.18363  1.0000
  H   H17       1.0  0.94827  0.16287  0.44759  1.0000
  H   H18       1.0  0.05172  0.83713  0.55241  1.0000
  H   H19       1.0  0.04317  0.29244  0.56174  1.0000
  H   H20       1.0  0.95681  0.70756  0.43825  1.0000
  H   H21       1.0  0.97048  0.71434  0.71996  1.0000
  H   H22       1.0  0.02951  0.28567  0.28004  1.0000
  H   H23       1.0  0.87100  0.55784  0.76010  1.0000
  H   H24       1.0  0.12900  0.44218  0.23990  1.0000
  H   H25       1.0  0.90208  0.49292  0.33236  1.0000
  H   H26       1.0  0.09790  0.50708  0.66764  1.0000
  H   H27       1.0  0.71343  0.55594  0.31472  1.0000
  H   H28       1.0  0.28656  0.44405  0.68528  1.0000
  C   C1        1.0  0.55922  0.33369  0.73862  1.0000
  C   C2        1.0  0.44078  0.66632  0.26138  1.0000
  C   C3        1.0  0.44980  0.17972  0.74699  1.0000
  C   C4        1.0  0.55020  0.82029  0.25301  1.0000
  C   C5        1.0  0.58288  0.83337  0.57985  1.0000
  C   C6        1.0  0.41711  0.16662  0.42016  1.0000
  C   C7        1.0  0.47365  0.89156  0.67580  1.0000
  C   C8        1.0  0.52633  0.10843  0.32420  1.0000
  C   C9        1.0  0.63308  0.02718  0.86747  1.0000
  C   C10       1.0  0.36692  0.97282  0.13253  1.0000
  C   C11       1.0  0.66281  0.15922  0.96205  1.0000
  C   C12       1.0  0.33720  0.84078  0.03795  1.0000
  C   C13       1.0  0.75579  0.14647  0.07072  1.0000
  C   C14       1.0  0.24424  0.85353  0.92929  1.0000
  C   C15       1.0  0.82519  0.00391  0.08932  1.0000
  C   C16       1.0  0.17482  0.99609  0.91066  1.0000
  C   C17       1.0  0.79647  0.87284  0.99501  1.0000
  C   C18       1.0  0.20355  0.12716  0.00498  1.0000
  C   C19       1.0  0.70181  0.88307  0.88643  1.0000
  C   C20       1.0  0.29820  0.11692  0.11357  1.0000
  C   C21       1.0  0.92874  0.99214  0.20397  1.0000
  C   C22       1.0  0.07126  0.00786  0.79604  1.0000
  N   N1        1.0  0.54098  0.03916  0.75725  1.0000
  N   N2        1.0  0.45902  0.96085  0.24275  1.0000
  O   O1        1.0  0.49380  0.46327  0.75704  1.0000
  O   O2        1.0  0.50619  0.53674  0.24296  1.0000
  O   O3        1.0  0.71160  0.32557  0.70988  1.0000
  O   O4        1.0  0.28841  0.67443  0.29011  1.0000
  O   O5        1.0  0.70490  0.92787  0.55571  1.0000
  O   O6        1.0  0.29511  0.07212  0.44431  1.0000
  O   O7        1.0  0.54137  0.69305  0.52411  1.0000
  O   O8        1.0  0.45863  0.30696  0.47589  1.0000
  O   O9        1.0  0.94844  0.10973  0.29089  1.0000
  O   O10       1.0  0.05156  0.89026  0.70911  1.0000
  O   O11       1.0  0.99663  0.86069  0.21152  1.0000
  O   O12       1.0  0.00336  0.13932  0.78847  1.0000
  O   O13       1.0  0.93165  0.22449  0.52585  1.0000
  O   O14       1.0  0.06833  0.77551  0.47415  1.0000
  O   O15       1.0  0.92772  0.59712  0.69786  1.0000
  O   O16       1.0  0.07228  0.40289  0.30214  1.0000
  O   O17       1.0  0.81868  0.55637  0.37313  1.0000
  O   O18       1.0  0.18131  0.44362  0.62687  1.0000
