data_image0
_chemical_formula_structural       Cu2H20C24O12
_chemical_formula_sum              "Cu2 H20 C24 O12"
_cell_length_a       6.5273
_cell_length_b       6.77434
_cell_length_c       12.5562
_cell_angle_alpha    91.5474
_cell_angle_beta     90.0004
_cell_angle_gamma    90.0001

_space_group_name_H-M_alt    "P 1"
_space_group_IT_number       1

loop_
  _space_group_symop_operation_xyz
  'x, y, z'

loop_
  _atom_site_type_symbol
  _atom_site_label
  _atom_site_symmetry_multiplicity
  _atom_site_fract_x
  _atom_site_fract_y
  _atom_site_fract_z
  _atom_site_occupancy
  Cu  Cu1       1.0  0.86969  0.69957  0.48412  1.0000
  Cu  Cu2       1.0  0.36969  0.30044  0.51588  1.0000
  H   H1        1.0  0.67148  0.86663  0.85463  1.0000
  H   H2        1.0  0.17145  0.13336  0.14536  1.0000
  H   H3        1.0  0.66875  0.92713  0.05034  1.0000
  H   H4        1.0  0.16876  0.07284  0.94964  1.0000
  H   H5        1.0  0.73149  0.15009  0.20599  1.0000
  H   H6        1.0  0.23152  0.84987  0.79400  1.0000
  H   H7        1.0  0.85638  0.49339  0.18110  1.0000
  H   H8        1.0  0.35640  0.50658  0.81891  1.0000
  H   H9        1.0  0.91244  0.61635  0.99848  1.0000
  H   H10       1.0  0.41245  0.38363  0.00153  1.0000
  H   H11       1.0  0.89817  0.55995  0.80205  1.0000
  H   H12       1.0  0.39816  0.44006  0.19796  1.0000
  H   H13       1.0  0.86983  0.99589  0.37125  1.0000
  H   H14       1.0  0.36984  0.00413  0.62875  1.0000
  H   H15       1.0  0.63207  0.96327  0.39717  1.0000
  H   H16       1.0  0.13208  0.03674  0.60283  1.0000
  H   H17       1.0  0.68986  0.46688  0.37030  1.0000
  H   H18       1.0  0.18987  0.53313  0.62970  1.0000
  H   H19       1.0  0.91277  0.37190  0.38349  1.0000
  H   H20       1.0  0.41278  0.62812  0.61651  1.0000
  C   C1        1.0  0.73448  0.94098  0.64952  1.0000
  C   C2        1.0  0.23447  0.05904  0.35047  1.0000
  C   C3        1.0  0.81930  0.36124  0.61683  1.0000
  C   C4        1.0  0.31929  0.63878  0.38318  1.0000
  C   C5        1.0  0.75472  0.08467  0.74181  1.0000
  C   C6        1.0  0.25471  0.91534  0.25818  1.0000
  C   C7        1.0  0.72184  0.01805  0.84319  1.0000
  C   C8        1.0  0.22183  0.98194  0.15680  1.0000
  C   C9        1.0  0.75372  0.14332  0.93412  1.0000
  C   C10       1.0  0.25370  0.85666  0.06588  1.0000
  C   C11       1.0  0.72086  0.07798  0.03907  1.0000
  C   C12       1.0  0.22085  0.92200  0.96093  1.0000
  C   C13       1.0  0.75622  0.20304  0.12577  1.0000
  C   C14       1.0  0.25624  0.79694  0.87423  1.0000
  C   C15       1.0  0.82746  0.39794  0.11142  1.0000
  C   C16       1.0  0.32746  0.60204  0.88858  1.0000
  C   C17       1.0  0.85893  0.46599  0.01013  1.0000
  C   C18       1.0  0.35893  0.53398  0.98988  1.0000
  C   C19       1.0  0.82351  0.34159  0.91935  1.0000
  C   C20       1.0  0.32350  0.65840  0.08066  1.0000
  C   C21       1.0  0.85267  0.40741  0.81425  1.0000
  C   C22       1.0  0.35266  0.59259  0.18576  1.0000
  C   C23       1.0  0.81812  0.28375  0.72686  1.0000
  C   C24       1.0  0.31811  0.71626  0.27314  1.0000
  O   O1        1.0  0.89988  0.90687  0.59597  1.0000
  O   O2        1.0  0.39988  0.09315  0.40403  1.0000
  O   O3        1.0  0.56763  0.85173  0.63139  1.0000
  O   O4        1.0  0.06764  0.14828  0.36861  1.0000
  O   O5        1.0  0.93194  0.51616  0.60078  1.0000
  O   O6        1.0  0.43195  0.48385  0.39922  1.0000
  O   O7        1.0  0.70900  0.27858  0.54715  1.0000
  O   O8        1.0  0.20900  0.72143  0.45285  1.0000
  O   O9        1.0  0.76126  0.89199  0.37874  1.0000
  O   O10       1.0  0.26127  0.10803  0.62126  1.0000
  O   O11       1.0  0.83994  0.49558  0.36729  1.0000
  O   O12       1.0  0.33995  0.50443  0.63271  1.0000
