data_image0
_chemical_formula_structural       Cd4H40C64S4N8O16
_chemical_formula_sum              "Cd4 H40 C64 S4 N8 O16"
_cell_length_a       9.66101
_cell_length_b       9.67381
_cell_length_c       19.3846
_cell_angle_alpha    90
_cell_angle_beta     90
_cell_angle_gamma    105.134

_space_group_name_H-M_alt    "P 1"
_space_group_IT_number       1

loop_
  _space_group_symop_operation_xyz
  'x, y, z'

loop_
  _atom_site_type_symbol
  _atom_site_label
  _atom_site_symmetry_multiplicity
  _atom_site_fract_x
  _atom_site_fract_y
  _atom_site_fract_z
  _atom_site_occupancy
  Cd  Cd1       1.0  0.89290  0.10707  0.55554  1.0000
  Cd  Cd2       1.0  0.60710  0.39293  0.05554  1.0000
  Cd  Cd3       1.0  0.10710  0.89293  0.44446  1.0000
  Cd  Cd4       1.0  0.39290  0.60707  0.94446  1.0000
  H   H1        1.0  0.75208  0.84309  0.65700  1.0000
  H   H2        1.0  0.74792  0.65691  0.15700  1.0000
  H   H3        1.0  0.84298  0.75191  0.34306  1.0000
  H   H4        1.0  0.65702  0.74809  0.84306  1.0000
  H   H5        1.0  0.24792  0.15691  0.34300  1.0000
  H   H6        1.0  0.25208  0.34309  0.84300  1.0000
  H   H7        1.0  0.15703  0.24809  0.65694  1.0000
  H   H8        1.0  0.34298  0.25191  0.15694  1.0000
  H   H9        1.0  0.54440  0.63034  0.66389  1.0000
  H   H10       1.0  0.95560  0.86966  0.16389  1.0000
  H   H11       1.0  0.63021  0.54428  0.33608  1.0000
  H   H12       1.0  0.86979  0.95572  0.83608  1.0000
  H   H13       1.0  0.45560  0.36966  0.33611  1.0000
  H   H14       1.0  0.04440  0.13034  0.83611  1.0000
  H   H15       1.0  0.36979  0.45572  0.66392  1.0000
  H   H16       1.0  0.13021  0.04428  0.16392  1.0000
  H   H17       1.0  0.42433  0.73952  0.45912  1.0000
  H   H18       1.0  0.07567  0.76048  0.95912  1.0000
  H   H19       1.0  0.73962  0.42445  0.54085  1.0000
  H   H20       1.0  0.76038  0.07555  0.04085  1.0000
  H   H21       1.0  0.57567  0.26048  0.54088  1.0000
  H   H22       1.0  0.92433  0.23952  0.04088  1.0000
  H   H23       1.0  0.26038  0.57555  0.45915  1.0000
  H   H24       1.0  0.23962  0.92445  0.95915  1.0000
  H   H25       1.0  0.63555  0.94715  0.46253  1.0000
  H   H26       1.0  0.86445  0.55285  0.96253  1.0000
  H   H27       1.0  0.94733  0.63566  0.53752  1.0000
  H   H28       1.0  0.55267  0.86434  0.03752  1.0000
  H   H29       1.0  0.36445  0.05285  0.53747  1.0000
  H   H30       1.0  0.13555  0.44715  0.03747  1.0000
  H   H31       1.0  0.05268  0.36434  0.46248  1.0000
  H   H32       1.0  0.44733  0.13566  0.96248  1.0000
  H   H33       1.0  0.51105  0.48896  0.78715  1.0000
  H   H34       1.0  0.98895  0.01104  0.28715  1.0000
  H   H35       1.0  0.48895  0.51104  0.21285  1.0000
  H   H36       1.0  0.01105  0.98896  0.71285  1.0000
  H   H37       1.0  0.59546  0.40455  0.66554  1.0000
  H   H38       1.0  0.90454  0.09545  0.16554  1.0000
  H   H39       1.0  0.40454  0.59545  0.33446  1.0000
  H   H40       1.0  0.09546  0.90455  0.83446  1.0000
  C   C1        1.0  0.67705  0.81413  0.61409  1.0000
  C   C2        1.0  0.82296  0.68587  0.11409  1.0000
  C   C3        1.0  0.81405  0.67693  0.38595  1.0000
  C   C4        1.0  0.68595  0.82307  0.88595  1.0000
  C   C5        1.0  0.32295  0.18587  0.38591  1.0000
  C   C6        1.0  0.17705  0.31413  0.88591  1.0000
  C   C7        1.0  0.18595  0.32307  0.61405  1.0000
  C   C8        1.0  0.31405  0.17693  0.11405  1.0000
  C   C9        1.0  0.56047  0.69434  0.61700  1.0000
  C   C10       1.0  0.93953  0.80566  0.11700  1.0000
  C   C11       1.0  0.69424  0.56036  0.38299  1.0000
  C   C12       1.0  0.80576  0.93964  0.88299  1.0000
  C   C13       1.0  0.43953  0.30566  0.38300  1.0000
  C   C14       1.0  0.06047  0.19434  0.88300  1.0000
  C   C15       1.0  0.30576  0.43964  0.61701  1.0000
  C   C16       1.0  0.19424  0.06036  0.11701  1.0000
  C   C17       1.0  0.46558  0.66050  0.56081  1.0000
  C   C18       1.0  0.03441  0.83950  0.06081  1.0000
  C   C19       1.0  0.66047  0.46557  0.43917  1.0000
  C   C20       1.0  0.83953  0.03443  0.93917  1.0000
  C   C21       1.0  0.53442  0.33950  0.43919  1.0000
  C   C22       1.0  0.96559  0.16050  0.93919  1.0000
  C   C23       1.0  0.33952  0.53443  0.56083  1.0000
  C   C24       1.0  0.16048  0.96557  0.06083  1.0000
  C   C25       1.0  0.49453  0.75378  0.50397  1.0000
  C   C26       1.0  0.00547  0.74622  0.00397  1.0000
  C   C27       1.0  0.75386  0.49459  0.49602  1.0000
  C   C28       1.0  0.74614  0.00541  0.99602  1.0000
  C   C29       1.0  0.50547  0.24622  0.49603  1.0000
  C   C30       1.0  0.99453  0.25378  0.99603  1.0000
  C   C31       1.0  0.24614  0.50541  0.50398  1.0000
  C   C32       1.0  0.25386  0.99459  0.00398  1.0000
  C   C33       1.0  0.61265  0.87165  0.50539  1.0000
  C   C34       1.0  0.88735  0.62835  0.00539  1.0000
  C   C35       1.0  0.87174  0.61270  0.49466  1.0000
  C   C36       1.0  0.62826  0.88730  0.99466  1.0000
  C   C37       1.0  0.38735  0.12835  0.49461  1.0000
  C   C38       1.0  0.11265  0.37165  0.99461  1.0000
  C   C39       1.0  0.12826  0.38730  0.50534  1.0000
  C   C40       1.0  0.37174  0.11270  0.00534  1.0000
  C   C41       1.0  0.62289  0.37714  0.90987  1.0000
  C   C42       1.0  0.87711  0.12286  0.40987  1.0000
  C   C43       1.0  0.37711  0.62286  0.09013  1.0000
  C   C44       1.0  0.12289  0.87714  0.59013  1.0000
  C   C45       1.0  0.63943  0.36057  0.83528  1.0000
  C   C46       1.0  0.86057  0.13943  0.33528  1.0000
  C   C47       1.0  0.36057  0.63943  0.16472  1.0000
  C   C48       1.0  0.13943  0.86057  0.66472  1.0000
  C   C49       1.0  0.58159  0.41843  0.78015  1.0000
  C   C50       1.0  0.91841  0.08157  0.28015  1.0000
  C   C51       1.0  0.41841  0.58157  0.21985  1.0000
  C   C52       1.0  0.08159  0.91843  0.71985  1.0000
  C   C53       1.0  0.62575  0.37426  0.71630  1.0000
  C   C54       1.0  0.87425  0.12574  0.21630  1.0000
  C   C55       1.0  0.37425  0.62574  0.28370  1.0000
  C   C56       1.0  0.12575  0.87426  0.78370  1.0000
  C   C57       1.0  0.71564  0.28436  0.72387  1.0000
  C   C58       1.0  0.78436  0.21564  0.22387  1.0000
  C   C59       1.0  0.28436  0.71564  0.27613  1.0000
  C   C60       1.0  0.21564  0.78436  0.77613  1.0000
  C   C61       1.0  0.78208  0.21791  0.66890  1.0000
  C   C62       1.0  0.71792  0.28209  0.16890  1.0000
  C   C63       1.0  0.21792  0.78209  0.33110  1.0000
  C   C64       1.0  0.28208  0.71791  0.83110  1.0000
  S   S1        1.0  0.74611  0.25388  0.80866  1.0000
  S   S2        1.0  0.75389  0.24612  0.30866  1.0000
  S   S3        1.0  0.25389  0.74612  0.19134  1.0000
  S   S4        1.0  0.24611  0.75388  0.69134  1.0000
  N   N1        1.0  0.70353  0.90178  0.55912  1.0000
  N   N2        1.0  0.79647  0.59822  0.05912  1.0000
  N   N3        1.0  0.90176  0.70351  0.44093  1.0000
  N   N4        1.0  0.59824  0.79649  0.94093  1.0000
  N   N5        1.0  0.29648  0.09822  0.44088  1.0000
  N   N6        1.0  0.20352  0.40178  0.94088  1.0000
  N   N7        1.0  0.09824  0.29649  0.55907  1.0000
  N   N8        1.0  0.40176  0.20351  0.05907  1.0000
  O   O1        1.0  0.68892  0.31111  0.94988  1.0000
  O   O2        1.0  0.81108  0.18889  0.44988  1.0000
  O   O3        1.0  0.31108  0.68889  0.05012  1.0000
  O   O4        1.0  0.18892  0.81111  0.55012  1.0000
  O   O5        1.0  0.54506  0.45498  0.93301  1.0000
  O   O6        1.0  0.95494  0.04502  0.43301  1.0000
  O   O7        1.0  0.45494  0.54502  0.06699  1.0000
  O   O8        1.0  0.04506  0.95498  0.56699  1.0000
  O   O9        1.0  0.86258  0.13743  0.68500  1.0000
  O   O10       1.0  0.63742  0.36257  0.18500  1.0000
  O   O11       1.0  0.13742  0.86257  0.31500  1.0000
  O   O12       1.0  0.36258  0.63743  0.81500  1.0000
  O   O13       1.0  0.75410  0.24586  0.60670  1.0000
  O   O14       1.0  0.74590  0.25414  0.10670  1.0000
  O   O15       1.0  0.24590  0.75414  0.39330  1.0000
  O   O16       1.0  0.25410  0.74586  0.89330  1.0000
