data_image0
_chemical_formula_structural       Ag2H20C20N6O6
_chemical_formula_sum              "Ag2 H20 C20 N6 O6"
_cell_length_a       5.8704
_cell_length_b       10.2089
_cell_length_c       10.2098
_cell_angle_alpha    87.2877
_cell_angle_beta     79.3288
_cell_angle_gamma    79.3282

_space_group_name_H-M_alt    "P 1"
_space_group_IT_number       1

loop_
  _space_group_symop_operation_xyz
  'x, y, z'

loop_
  _atom_site_type_symbol
  _atom_site_label
  _atom_site_symmetry_multiplicity
  _atom_site_fract_x
  _atom_site_fract_y
  _atom_site_fract_z
  _atom_site_occupancy
  Ag  Ag1       1.0  0.25002  0.12279  0.87722  1.0000
  Ag  Ag2       1.0  0.74995  0.87722  0.12278  1.0000
  H   H1        1.0  0.08448  0.00458  0.65470  1.0000
  H   H2        1.0  0.41557  0.34530  0.99540  1.0000
  H   H3        1.0  0.91553  0.99540  0.34530  1.0000
  H   H4        1.0  0.58444  0.65468  0.00459  1.0000
  H   H5        1.0  0.23657  0.83422  0.47437  1.0000
  H   H6        1.0  0.26349  0.52565  0.16576  1.0000
  H   H7        1.0  0.76342  0.16577  0.52564  1.0000
  H   H8        1.0  0.73655  0.47434  0.83423  1.0000
  H   H9        1.0  0.65317  0.71277  0.45238  1.0000
  H   H10       1.0  0.84691  0.54762  0.28720  1.0000
  H   H11       1.0  0.34683  0.28723  0.54762  1.0000
  H   H12       1.0  0.15313  0.45238  0.71279  1.0000
  H   H13       1.0  0.89494  0.75736  0.61968  1.0000
  H   H14       1.0  0.60511  0.38032  0.24263  1.0000
  H   H15       1.0  0.10504  0.24264  0.38032  1.0000
  H   H16       1.0  0.39487  0.61969  0.75738  1.0000
  H   H17       1.0  0.71174  0.92632  0.79697  1.0000
  H   H18       1.0  0.78832  0.20300  0.07368  1.0000
  H   H19       1.0  0.28824  0.07368  0.20303  1.0000
  H   H20       1.0  0.21167  0.79700  0.92632  1.0000
  C   C1        1.0  0.26137  0.94544  0.64373  1.0000
  C   C2        1.0  0.23867  0.35628  0.05456  1.0000
  C   C3        1.0  0.73861  0.05456  0.35627  1.0000
  C   C4        1.0  0.76134  0.64371  0.94544  1.0000
  C   C5        1.0  0.34834  0.85238  0.54324  1.0000
  C   C6        1.0  0.15167  0.45680  0.14762  1.0000
  C   C7        1.0  0.65165  0.14762  0.45676  1.0000
  C   C8        1.0  0.84831  0.54322  0.85239  1.0000
  C   C9        1.0  0.57940  0.78348  0.53241  1.0000
  C   C10       1.0  0.92063  0.46760  0.21651  1.0000
  C   C11       1.0  0.42061  0.21652  0.46758  1.0000
  C   C12       1.0  0.07936  0.53241  0.78349  1.0000
  C   C13       1.0  0.71388  0.80879  0.62443  1.0000
  C   C14       1.0  0.78619  0.37559  0.19121  1.0000
  C   C15       1.0  0.28612  0.19122  0.37556  1.0000
  C   C16       1.0  0.21383  0.62444  0.80879  1.0000
  C   C17       1.0  0.61392  0.90220  0.72334  1.0000
  C   C18       1.0  0.88615  0.27665  0.09781  1.0000
  C   C19       1.0  0.38609  0.09780  0.27667  1.0000
  C   C20       1.0  0.11385  0.72335  0.90221  1.0000
  N   N1        1.0  0.39133  0.97028  0.73267  1.0000
  N   N2        1.0  0.10874  0.26731  0.02972  1.0000
  N   N3        1.0  0.60866  0.02972  0.26733  1.0000
  N   N4        1.0  0.89129  0.73267  0.97027  1.0000
  N   N5        1.0  0.75000  0.23211  0.76789  1.0000
  N   N6        1.0  0.25000  0.76789  0.23211  1.0000
  O   O1        1.0  0.93894  0.24083  0.68692  1.0000
  O   O2        1.0  0.56105  0.31308  0.75916  1.0000
  O   O3        1.0  0.06106  0.75916  0.31308  1.0000
  O   O4        1.0  0.43895  0.68691  0.24084  1.0000
  O   O5        1.0  0.75001  0.14156  0.85845  1.0000
  O   O6        1.0  0.24999  0.85844  0.14155  1.0000
