data_image0
_chemical_formula_structural       Ag4H16C8S4O12
_chemical_formula_sum              "Ag4 H16 C8 S4 O12"
_cell_length_a       4.84699
_cell_length_b       10.2296
_cell_length_c       9.70001
_cell_angle_alpha    107.272
_cell_angle_beta     89.9993
_cell_angle_gamma    90.0008

_space_group_name_H-M_alt    "P 1"
_space_group_IT_number       1

loop_
  _space_group_symop_operation_xyz
  'x, y, z'

loop_
  _atom_site_type_symbol
  _atom_site_label
  _atom_site_symmetry_multiplicity
  _atom_site_fract_x
  _atom_site_fract_y
  _atom_site_fract_z
  _atom_site_occupancy
  Ag  Ag1       1.0  0.11161  0.94213  0.79781  1.0000
  Ag  Ag2       1.0  0.61162  0.05787  0.70219  1.0000
  Ag  Ag3       1.0  0.88838  0.05787  0.20219  1.0000
  Ag  Ag4       1.0  0.38839  0.94213  0.29782  1.0000
  H   H1        1.0  0.51103  0.64509  0.35083  1.0000
  H   H2        1.0  0.01102  0.35492  0.14915  1.0000
  H   H3        1.0  0.48895  0.35492  0.64916  1.0000
  H   H4        1.0  0.98897  0.64509  0.85083  1.0000
  H   H5        1.0  0.81864  0.54469  0.32995  1.0000
  H   H6        1.0  0.31860  0.45531  0.17005  1.0000
  H   H7        1.0  0.18136  0.45530  0.67004  1.0000
  H   H8        1.0  0.68135  0.54469  0.82994  1.0000
  H   H9        1.0  0.77831  0.53040  0.57842  1.0000
  H   H10       1.0  0.27835  0.46960  0.92158  1.0000
  H   H11       1.0  0.22166  0.46960  0.42157  1.0000
  H   H12       1.0  0.72172  0.53040  0.07840  1.0000
  H   H13       1.0  0.49038  0.64149  0.61394  1.0000
  H   H14       1.0  0.99040  0.35850  0.88604  1.0000
  H   H15       1.0  0.50963  0.35849  0.38604  1.0000
  H   H16       1.0  0.00961  0.64149  0.11393  1.0000
  C   C1        1.0  0.68702  0.61759  0.40827  1.0000
  C   C2        1.0  0.18701  0.38242  0.09174  1.0000
  C   C3        1.0  0.31299  0.38242  0.59175  1.0000
  C   C4        1.0  0.81301  0.61759  0.90827  1.0000
  C   C5        1.0  0.59507  0.56149  0.52927  1.0000
  C   C6        1.0  0.09505  0.43853  0.97073  1.0000
  C   C7        1.0  0.40494  0.43852  0.47075  1.0000
  C   C8        1.0  0.90492  0.56148  0.02929  1.0000
  S   S1        1.0  0.88353  0.77281  0.46979  1.0000
  S   S2        1.0  0.38354  0.22719  0.03022  1.0000
  S   S3        1.0  0.11646  0.22719  0.53022  1.0000
  S   S4        1.0  0.61647  0.77282  0.96978  1.0000
  O   O1        1.0  0.03074  0.76777  0.60224  1.0000
  O   O2        1.0  0.53075  0.23224  0.89777  1.0000
  O   O3        1.0  0.96926  0.23222  0.39776  1.0000
  O   O4        1.0  0.46926  0.76777  0.10225  1.0000
  O   O5        1.0  0.67765  0.88650  0.50208  1.0000
  O   O6        1.0  0.17763  0.11350  0.99792  1.0000
  O   O7        1.0  0.32239  0.11349  0.49793  1.0000
  O   O8        1.0  0.82236  0.88651  0.00208  1.0000
  O   O9        1.0  0.06686  0.77458  0.35048  1.0000
  O   O10       1.0  0.56682  0.22541  0.14953  1.0000
  O   O11       1.0  0.93316  0.22541  0.64954  1.0000
  O   O12       1.0  0.43314  0.77459  0.85047  1.0000
