data_image0
_chemical_formula_structural       Cd2H26C38N6O10
_chemical_formula_sum              "Cd2 H26 C38 N6 O10"
_cell_length_a       7.96178
_cell_length_b       10.2514
_cell_length_c       13.2925
_cell_angle_alpha    68.8518
_cell_angle_beta     73.7542
_cell_angle_gamma    56.9421

_space_group_name_H-M_alt    "P 1"
_space_group_IT_number       1

loop_
  _space_group_symop_operation_xyz
  'x, y, z'

loop_
  _atom_site_type_symbol
  _atom_site_label
  _atom_site_symmetry_multiplicity
  _atom_site_fract_x
  _atom_site_fract_y
  _atom_site_fract_z
  _atom_site_occupancy
  Cd  Cd1       1.0  0.30568  0.14945  0.81162  1.0000
  Cd  Cd2       1.0  0.69432  0.85055  0.18838  1.0000
  H   H1        1.0  0.34497  0.16944  0.01364  1.0000
  H   H2        1.0  0.65502  0.83057  0.98636  1.0000
  H   H3        1.0  0.48159  0.22622  0.91778  1.0000
  H   H4        1.0  0.51840  0.77379  0.08221  1.0000
  H   H5        1.0  0.03057  0.66806  0.87338  1.0000
  H   H6        1.0  0.96946  0.33192  0.12663  1.0000
  H   H7        1.0  0.38339  0.55239  0.91377  1.0000
  H   H8        1.0  0.61662  0.44762  0.08623  1.0000
  H   H9        1.0  0.49432  0.74581  0.90225  1.0000
  H   H10       1.0  0.50568  0.25419  0.09775  1.0000
  H   H11       1.0  0.27667  0.93848  0.66994  1.0000
  H   H12       1.0  0.72332  0.06152  0.33006  1.0000
  H   H13       1.0  0.24015  0.96445  0.48022  1.0000
  H   H14       1.0  0.75985  0.03555  0.51979  1.0000
  H   H15       1.0  0.23100  0.19962  0.33311  1.0000
  H   H16       1.0  0.76899  0.80038  0.66689  1.0000
  H   H17       1.0  0.23634  0.77410  0.46425  1.0000
  H   H18       1.0  0.76365  0.22591  0.53575  1.0000
  H   H19       1.0  0.27415  0.72770  0.66004  1.0000
  H   H20       1.0  0.72584  0.27229  0.33996  1.0000
  H   H21       1.0  0.31532  0.46905  0.79273  1.0000
  H   H22       1.0  0.68468  0.53095  0.20727  1.0000
  H   H23       1.0  0.21744  0.46855  0.27701  1.0000
  H   H24       1.0  0.78256  0.53144  0.72299  1.0000
  H   H25       1.0  0.22564  0.67412  0.32798  1.0000
  H   H26       1.0  0.77434  0.32589  0.67201  1.0000
  C   C1        1.0  0.01996  0.00980  0.85902  1.0000
  C   C2        1.0  0.98004  0.99019  0.14098  1.0000
  C   C3        1.0  0.95382  0.91351  0.84859  1.0000
  C   C4        1.0  0.04618  0.08649  0.15142  1.0000
  C   C5        1.0  0.08317  0.74643  0.87350  1.0000
  C   C6        1.0  0.91684  0.25357  0.12651  1.0000
  C   C7        1.0  0.27830  0.68181  0.89634  1.0000
  C   C8        1.0  0.72170  0.31820  0.10366  1.0000
  C   C9        1.0  0.34011  0.78770  0.89170  1.0000
  C   C10       1.0  0.65989  0.21231  0.10830  1.0000
  C   C11       1.0  0.87872  0.18788  0.85702  1.0000
  C   C12       1.0  0.12129  0.81210  0.14298  1.0000
  C   C13       1.0  0.76283  0.98391  0.79946  1.0000
  C   C14       1.0  0.23716  0.01609  0.20054  1.0000
  C   C15       1.0  0.26836  0.04227  0.60376  1.0000
  C   C16       1.0  0.73165  0.95773  0.39624  1.0000
  C   C17       1.0  0.24841  0.05604  0.49817  1.0000
  C   C18       1.0  0.75158  0.94397  0.50183  1.0000
  C   C19       1.0  0.24246  0.18748  0.41626  1.0000
  C   C20       1.0  0.75753  0.81253  0.58374  1.0000
  C   C21       1.0  0.25078  0.30689  0.44060  1.0000
  C   C22       1.0  0.74921  0.69311  0.55940  1.0000
  C   C23       1.0  0.27007  0.28255  0.55041  1.0000
  C   C24       1.0  0.72993  0.71745  0.44959  1.0000
  C   C25       1.0  0.27352  0.40442  0.57890  1.0000
  C   C26       1.0  0.72649  0.59557  0.42110  1.0000
  C   C27       1.0  0.25314  0.54614  0.49728  1.0000
  C   C28       1.0  0.74686  0.45386  0.50272  1.0000
  C   C29       1.0  0.25142  0.66569  0.52723  1.0000
  C   C30       1.0  0.74859  0.33430  0.47277  1.0000
  C   C31       1.0  0.27186  0.64014  0.63340  1.0000
  C   C32       1.0  0.72813  0.35986  0.36659  1.0000
  C   C33       1.0  0.29420  0.49545  0.70880  1.0000
  C   C34       1.0  0.70581  0.50455  0.29120  1.0000
  C   C35       1.0  0.23532  0.44972  0.36045  1.0000
  C   C36       1.0  0.76466  0.55028  0.63955  1.0000
  C   C37       1.0  0.23565  0.56540  0.38823  1.0000
  C   C38       1.0  0.76434  0.43461  0.61177  1.0000
  N   N1        1.0  0.21201  0.94667  0.87575  1.0000
  N   N2        1.0  0.78799  0.05334  0.12424  1.0000
  N   N3        1.0  0.28020  0.15085  0.62937  1.0000
  N   N4        1.0  0.71981  0.84915  0.37063  1.0000
  N   N5        1.0  0.29359  0.38202  0.68280  1.0000
  N   N6        1.0  0.70643  0.61797  0.31721  1.0000
  O   O1        1.0  0.95799  0.27110  0.84883  1.0000
  O   O2        1.0  0.04201  0.72890  0.15117  1.0000
  O   O3        1.0  0.34296  0.24100  0.93838  1.0000
  O   O4        1.0  0.65703  0.75900  0.06162  1.0000
  O   O5        1.0  0.69187  0.24047  0.86573  1.0000
  O   O6        1.0  0.30814  0.75951  0.13427  1.0000
  O   O7        1.0  0.62862  0.94579  0.85844  1.0000
  O   O8        1.0  0.37138  0.05422  0.14156  1.0000
  O   O9        1.0  0.75303  0.06525  0.70301  1.0000
  O   O10       1.0  0.24700  0.93473  0.29699  1.0000
