data_image0
_chemical_formula_structural       Cu4H28C32N4O20
_chemical_formula_sum              "Cu4 H28 C32 N4 O20"
_cell_length_a       7.64428
_cell_length_b       11.0868
_cell_length_c       11.2186
_cell_angle_alpha    102.774
_cell_angle_beta     105.147
_cell_angle_gamma    107.037

_space_group_name_H-M_alt    "P 1"
_space_group_IT_number       1

loop_
  _space_group_symop_operation_xyz
  'x, y, z'

loop_
  _atom_site_type_symbol
  _atom_site_label
  _atom_site_symmetry_multiplicity
  _atom_site_fract_x
  _atom_site_fract_y
  _atom_site_fract_z
  _atom_site_occupancy
  Cu  Cu1       1.0  0.05043  0.65547  0.73768  1.0000
  Cu  Cu2       1.0  0.94963  0.34454  0.26234  1.0000
  Cu  Cu3       1.0  0.52221  0.43531  0.26627  1.0000
  Cu  Cu4       1.0  0.47760  0.56469  0.73368  1.0000
  H   H1        1.0  0.85724  0.42275  0.55906  1.0000
  H   H2        1.0  0.14279  0.57731  0.44095  1.0000
  H   H3        1.0  0.80659  0.43781  0.69578  1.0000
  H   H4        1.0  0.19335  0.56224  0.30419  1.0000
  H   H5        1.0  0.35607  0.36036  0.42516  1.0000
  H   H6        1.0  0.64383  0.63965  0.57479  1.0000
  H   H7        1.0  0.28995  0.24100  0.28375  1.0000
  H   H8        1.0  0.70991  0.75902  0.71621  1.0000
  H   H9        1.0  0.50902  0.22059  0.91065  1.0000
  H   H10       1.0  0.49115  0.77940  0.08939  1.0000
  H   H11       1.0  0.12061  0.88764  0.96929  1.0000
  H   H12       1.0  0.87940  0.11238  0.03070  1.0000
  H   H13       1.0  0.60414  0.03363  0.65588  1.0000
  H   H14       1.0  0.39594  0.96641  0.34412  1.0000
  H   H15       1.0  0.60560  0.19414  0.73367  1.0000
  H   H16       1.0  0.39449  0.80587  0.26638  1.0000
  H   H17       1.0  0.41311  0.08199  0.58873  1.0000
  H   H18       1.0  0.58698  0.91807  0.41132  1.0000
  H   H19       1.0  0.04725  0.81142  0.11085  1.0000
  H   H20       1.0  0.95282  0.18853  0.88918  1.0000
  H   H21       1.0  0.63376  0.41561  0.02325  1.0000
  H   H22       1.0  0.36585  0.58444  0.97662  1.0000
  H   H23       1.0  0.93942  0.95658  0.38659  1.0000
  H   H24       1.0  0.06065  0.04339  0.61346  1.0000
  H   H25       1.0  0.09661  0.97980  0.29430  1.0000
  H   H26       1.0  0.90346  0.02015  0.70575  1.0000
  H   H27       1.0  0.15232  0.92224  0.43071  1.0000
  H   H28       1.0  0.84771  0.07768  0.56931  1.0000
  C   C1        1.0  0.29617  0.89486  0.72995  1.0000
  C   C2        1.0  0.70390  0.10515  0.27005  1.0000
  C   C3        1.0  0.40825  0.03097  0.76264  1.0000
  C   C4        1.0  0.59183  0.96903  0.23737  1.0000
  C   C5        1.0  0.41869  0.11521  0.87960  1.0000
  C   C6        1.0  0.58139  0.88478  0.12043  1.0000
  C   C7        1.0  0.31871  0.06740  0.95733  1.0000
  C   C8        1.0  0.68132  0.93262  0.04269  1.0000
  C   C9        1.0  0.20474  0.93156  0.91478  1.0000
  C   C10       1.0  0.79527  0.06844  0.08520  1.0000
  C   C11       1.0  0.27938  0.78687  0.61430  1.0000
  C   C12       1.0  0.72071  0.21315  0.38572  1.0000
  C   C13       1.0  0.51459  0.08857  0.68171  1.0000
  C   C14       1.0  0.48552  0.91146  0.31832  1.0000
  C   C15       1.0  0.33686  0.15800  0.08543  1.0000
  C   C16       1.0  0.66314  0.84204  0.91458  1.0000
  C   C17       1.0  0.80130  0.67631  0.28876  1.0000
  C   C18       1.0  0.19864  0.32366  0.71123  1.0000
  C   C19       1.0  0.92736  0.77576  0.25862  1.0000
  C   C20       1.0  0.07265  0.22419  0.74141  1.0000
  C   C21       1.0  0.94922  0.73768  0.13751  1.0000
  C   C22       1.0  0.05080  0.26226  0.86251  1.0000
  C   C23       1.0  0.84623  0.60887  0.05038  1.0000
  C   C24       1.0  0.15374  0.39110  0.94962  1.0000
  C   C25       1.0  0.71961  0.51737  0.08700  1.0000
  C   C26       1.0  0.28019  0.48263  0.91294  1.0000
  C   C27       1.0  0.76844  0.69553  0.41676  1.0000
  C   C28       1.0  0.23161  0.30440  0.58325  1.0000
  C   C29       1.0  0.03391  0.91632  0.34659  1.0000
  C   C30       1.0  0.96615  0.08363  0.65345  1.0000
  C   C31       1.0  0.86203  0.56960  0.91758  1.0000
  C   C32       1.0  0.13790  0.43041  0.08239  1.0000
  N   N1        1.0  0.19746  0.84932  0.80510  1.0000
  N   N2        1.0  0.80259  0.15069  0.19491  1.0000
  N   N3        1.0  0.70023  0.55172  0.20321  1.0000
  N   N4        1.0  0.29959  0.44827  0.79673  1.0000
  O   O1        1.0  0.90773  0.46489  0.65550  1.0000
  O   O2        1.0  0.09225  0.53516  0.34451  1.0000
  O   O3        1.0  0.32705  0.33878  0.32835  1.0000
  O   O4        1.0  0.67276  0.66124  0.67160  1.0000
  O   O5        1.0  0.17328  0.66503  0.60412  1.0000
  O   O6        1.0  0.82686  0.33499  0.39592  1.0000
  O   O7        1.0  0.36223  0.81067  0.53653  1.0000
  O   O8        1.0  0.63786  0.18936  0.46349  1.0000
  O   O9        1.0  0.44934  0.28046  0.11272  1.0000
  O   O10       1.0  0.55058  0.71956  0.88725  1.0000
  O   O11       1.0  0.24823  0.11093  0.15453  1.0000
  O   O12       1.0  0.75176  0.88907  0.84545  1.0000
  O   O13       1.0  0.86348  0.79898  0.51035  1.0000
  O   O14       1.0  0.13683  0.20086  0.48971  1.0000
  O   O15       1.0  0.63400  0.59309  0.42218  1.0000
  O   O16       1.0  0.36592  0.40691  0.57780  1.0000
  O   O17       1.0  0.73888  0.46161  0.83303  1.0000
  O   O18       1.0  0.26101  0.53844  0.16694  1.0000
  O   O19       1.0  0.00290  0.65501  0.90203  1.0000
  O   O20       1.0  0.99702  0.34503  0.09796  1.0000
