data_image0
_chemical_formula_structural       Cu6H32C32N4O24
_chemical_formula_sum              "Cu6 H32 C32 N4 O24"
_cell_length_a       7.63448
_cell_length_b       7.18773
_cell_length_c       17.677
_cell_angle_alpha    85.7081
_cell_angle_beta     82.7056
_cell_angle_gamma    87.3914

_space_group_name_H-M_alt    "P 1"
_space_group_IT_number       1

loop_
  _space_group_symop_operation_xyz
  'x, y, z'

loop_
  _atom_site_type_symbol
  _atom_site_label
  _atom_site_symmetry_multiplicity
  _atom_site_fract_x
  _atom_site_fract_y
  _atom_site_fract_z
  _atom_site_occupancy
  Cu  Cu1       1.0  0.17502  0.23553  0.38544  1.0000
  Cu  Cu2       1.0  0.82509  0.76461  0.61473  1.0000
  Cu  Cu3       1.0  0.99909  0.50037  0.50014  1.0000
  Cu  Cu4       1.0  0.20980  0.87240  0.03714  1.0000
  Cu  Cu5       1.0  0.79053  0.12759  0.96291  1.0000
  Cu  Cu6       1.0  0.50027  0.50010  0.00002  1.0000
  H   H1        1.0  0.36683  0.52415  0.45562  1.0000
  H   H2        1.0  0.63305  0.47598  0.54428  1.0000
  H   H3        1.0  0.41254  0.32277  0.49222  1.0000
  H   H4        1.0  0.58857  0.67734  0.50733  1.0000
  H   H5        1.0  0.18032  0.47660  0.91003  1.0000
  H   H6        1.0  0.82012  0.52341  0.08998  1.0000
  H   H7        1.0  0.21904  0.28916  0.95515  1.0000
  H   H8        1.0  0.78143  0.71090  0.04490  1.0000
  H   H9        1.0  0.91523  0.18432  0.48012  1.0000
  H   H10       1.0  0.08524  0.81604  0.52035  1.0000
  H   H11       1.0  0.19772  0.53407  0.06077  1.0000
  H   H12       1.0  0.80290  0.46594  0.93934  1.0000
  H   H13       1.0  0.88973  0.95494  0.34994  1.0000
  H   H14       1.0  0.10974  0.04509  0.65001  1.0000
  H   H15       1.0  0.19515  0.62507  0.18234  1.0000
  H   H16       1.0  0.80445  0.37472  0.81778  1.0000
  H   H17       1.0  0.75879  0.24123  0.31065  1.0000
  H   H18       1.0  0.24046  0.75861  0.68911  1.0000
  H   H19       1.0  0.74971  0.30442  0.21100  1.0000
  H   H20       1.0  0.25078  0.69610  0.78874  1.0000
  H   H21       1.0  0.92686  0.37324  0.25561  1.0000
  H   H22       1.0  0.07312  0.62662  0.74465  1.0000
  H   H23       1.0  0.64563  0.81690  0.16856  1.0000
  H   H24       1.0  0.35414  0.18284  0.83138  1.0000
  H   H25       1.0  0.33302  0.31864  0.21896  1.0000
  H   H26       1.0  0.66742  0.68156  0.78100  1.0000
  H   H27       1.0  0.67692  0.65008  0.35682  1.0000
  H   H28       1.0  0.32282  0.34957  0.64303  1.0000
  H   H29       1.0  0.49131  0.54844  0.32988  1.0000
  H   H30       1.0  0.50806  0.45145  0.67019  1.0000
  H   H31       1.0  0.67850  0.58886  0.26052  1.0000
  H   H32       1.0  0.32069  0.41061  0.73939  1.0000
  C   C1        1.0  0.02721  0.05476  0.16191  1.0000
  C   C2        1.0  0.97289  0.94524  0.83810  1.0000
  C   C3        1.0  0.93893  0.08407  0.23500  1.0000
  C   C4        1.0  0.06096  0.91598  0.76496  1.0000
  C   C5        1.0  0.95241  0.93877  0.29169  1.0000
  C   C6        1.0  0.04719  0.06126  0.70828  1.0000
  C   C7        1.0  0.04736  0.77311  0.27522  1.0000
  C   C8        1.0  0.95213  0.22682  0.72480  1.0000
  C   C9        1.0  0.12236  0.75147  0.20003  1.0000
  C   C10       1.0  0.87733  0.24842  0.80003  1.0000
  C   C11       1.0  0.04948  0.19941  0.09547  1.0000
  C   C12       1.0  0.95096  0.80060  0.90457  1.0000
  C   C13       1.0  0.83652  0.25985  0.25420  1.0000
  C   C14       1.0  0.16339  0.74024  0.74572  1.0000
  C   C15       1.0  0.07064  0.62242  0.33717  1.0000
  C   C16       1.0  0.92859  0.37759  0.66295  1.0000
  C   C17       1.0  0.41516  0.94934  0.33406  1.0000
  C   C18       1.0  0.58468  0.05058  0.66587  1.0000
  C   C19       1.0  0.52435  0.83446  0.28553  1.0000
  C   C20       1.0  0.47536  0.16534  0.71442  1.0000
  C   C21       1.0  0.56452  0.90291  0.20911  1.0000
  C   C22       1.0  0.43534  0.09691  0.79084  1.0000
  C   C23       1.0  0.49877  0.07755  0.18402  1.0000
  C   C24       1.0  0.50133  0.92242  0.81594  1.0000
  C   C25       1.0  0.38905  0.18209  0.23583  1.0000
  C   C26       1.0  0.61118  0.81800  0.76413  1.0000
  C   C27       1.0  0.35267  0.89754  0.41690  1.0000
  C   C28       1.0  0.64712  0.10249  0.58304  1.0000
  C   C29       1.0  0.59712  0.64531  0.30964  1.0000
  C   C30       1.0  0.40236  0.35438  0.69030  1.0000
  C   C31       1.0  0.54847  0.15681  0.10350  1.0000
  C   C32       1.0  0.45176  0.84315  0.89646  1.0000
  N   N1        1.0  0.11048  0.88953  0.14585  1.0000
  N   N2        1.0  0.88954  0.11040  0.85419  1.0000
  N   N3        1.0  0.34923  0.11782  0.30856  1.0000
  N   N4        1.0  0.65086  0.88219  0.69137  1.0000
  O   O1        1.0  0.33172  0.39291  0.46035  1.0000
  O   O2        1.0  0.66928  0.60689  0.53918  1.0000
  O   O3        1.0  0.27476  0.38093  0.91602  1.0000
  O   O4        1.0  0.72566  0.61903  0.08397  1.0000
  O   O5        1.0  0.95216  0.29017  0.44395  1.0000
  O   O6        1.0  0.04853  0.71020  0.55654  1.0000
  O   O7        1.0  0.29577  0.62106  0.05440  1.0000
  O   O8        1.0  0.70478  0.37903  0.94569  1.0000
  O   O9        1.0  0.11395  0.13485  0.03079  1.0000
  O   O10       1.0  0.88663  0.86520  0.96926  1.0000
  O   O11       1.0  0.01344  0.36840  0.10442  1.0000
  O   O12       1.0  0.98711  0.63166  0.89562  1.0000
  O   O13       1.0  0.00971  0.66327  0.40420  1.0000
  O   O14       1.0  0.98898  0.33679  0.59585  1.0000
  O   O15       1.0  0.15083  0.47129  0.31669  1.0000
  O   O16       1.0  0.84880  0.52883  0.68355  1.0000
  O   O17       1.0  0.22616  0.00157  0.44841  1.0000
  O   O18       1.0  0.77340  0.99825  0.55146  1.0000
  O   O19       1.0  0.42091  0.75865  0.45096  1.0000
  O   O20       1.0  0.57913  0.24160  0.54906  1.0000
  O   O21       1.0  0.68988  0.08486  0.06892  1.0000
  O   O22       1.0  0.31026  0.91491  0.93106  1.0000
  O   O23       1.0  0.44782  0.28561  0.07889  1.0000
  O   O24       1.0  0.55253  0.71451  0.92108  1.0000
