data_image0
_chemical_formula_structural       Cu6Mo8H32C32N16Cl2O26
_chemical_formula_sum              "Cu6 Mo8 H32 C32 N16 Cl2 O26"
_cell_length_a       10.5675
_cell_length_b       11.2402
_cell_length_c       12.834
_cell_angle_alpha    96.1448
_cell_angle_beta     102.209
_cell_angle_gamma    108.351

_space_group_name_H-M_alt    "P 1"
_space_group_IT_number       1

loop_
  _space_group_symop_operation_xyz
  'x, y, z'

loop_
  _atom_site_type_symbol
  _atom_site_label
  _atom_site_symmetry_multiplicity
  _atom_site_fract_x
  _atom_site_fract_y
  _atom_site_fract_z
  _atom_site_occupancy
  Cu  Cu1       1.0  0.33533  0.68030  0.51145  1.0000
  Cu  Cu2       1.0  0.66468  0.31970  0.48855  1.0000
  Cu  Cu3       1.0  0.37456  0.50982  0.92205  1.0000
  Cu  Cu4       1.0  0.62543  0.49018  0.07795  1.0000
  Cu  Cu5       1.0  0.11232  0.12338  0.00930  1.0000
  Cu  Cu6       1.0  0.88768  0.87662  0.99070  1.0000
  Mo  Mo1       1.0  0.22556  0.28742  0.41677  1.0000
  Mo  Mo2       1.0  0.77444  0.71258  0.58323  1.0000
  Mo  Mo3       1.0  0.16913  0.98772  0.50249  1.0000
  Mo  Mo4       1.0  0.83087  0.01228  0.49751  1.0000
  Mo  Mo5       1.0  0.09732  0.25040  0.63081  1.0000
  Mo  Mo6       1.0  0.90268  0.74960  0.36919  1.0000
  Mo  Mo7       1.0  0.06163  0.95702  0.71706  1.0000
  Mo  Mo8       1.0  0.93837  0.04298  0.28294  1.0000
  H   H1        1.0  0.28411  0.96247  0.92586  1.0000
  H   H2        1.0  0.71589  0.03753  0.07414  1.0000
  H   H3        1.0  0.29251  0.12068  0.24167  1.0000
  H   H4        1.0  0.70749  0.87932  0.75833  1.0000
  H   H5        1.0  0.50289  0.07581  0.34414  1.0000
  H   H6        1.0  0.49711  0.92419  0.65586  1.0000
  H   H7        1.0  0.61854  0.06263  0.26487  1.0000
  H   H8        1.0  0.38146  0.93738  0.73514  1.0000
  H   H9        1.0  0.57269  0.82491  0.16095  1.0000
  H   H10       1.0  0.42732  0.17510  0.83905  1.0000
  H   H11       1.0  0.51770  0.60137  0.19402  1.0000
  H   H12       1.0  0.48230  0.39863  0.80597  1.0000
  H   H13       1.0  0.40787  0.54041  0.34419  1.0000
  H   H14       1.0  0.59213  0.45959  0.65581  1.0000
  H   H15       1.0  0.39814  0.90486  0.42388  1.0000
  H   H16       1.0  0.60186  0.09514  0.57612  1.0000
  H   H17       1.0  0.48668  0.63328  0.73505  1.0000
  H   H18       1.0  0.51332  0.36672  0.26496  1.0000
  H   H19       1.0  0.07714  0.62077  0.61438  1.0000
  H   H20       1.0  0.92286  0.37922  0.38562  1.0000
  H   H21       1.0  0.97671  0.52109  0.75343  1.0000
  H   H22       1.0  0.02329  0.47891  0.24657  1.0000
  H   H23       1.0  0.07537  0.44326  0.83229  1.0000
  H   H24       1.0  0.92463  0.55674  0.16771  1.0000
  H   H25       1.0  0.21916  0.55404  0.02635  1.0000
  H   H26       1.0  0.78083  0.44596  0.97364  1.0000
  H   H27       1.0  0.21706  0.69494  0.19140  1.0000
  H   H28       1.0  0.78293  0.30506  0.80860  1.0000
  H   H29       1.0  0.07247  0.83393  0.16905  1.0000
  H   H30       1.0  0.92752  0.16608  0.83095  1.0000
  H   H31       1.0  0.94302  0.70861  0.83525  1.0000
  H   H32       1.0  0.05698  0.29139  0.16475  1.0000
  C   C1        1.0  0.31373  0.99292  0.01333  1.0000
  C   C2        1.0  0.68627  0.00708  0.98667  1.0000
  C   C3        1.0  0.31604  0.07526  0.17296  1.0000
  C   C4        1.0  0.68396  0.92474  0.82704  1.0000
  C   C5        1.0  0.51424  0.01811  0.27458  1.0000
  C   C6        1.0  0.48576  0.98189  0.72543  1.0000
  C   C7        1.0  0.48844  0.88250  0.28997  1.0000
  C   C8        1.0  0.51156  0.11750  0.71003  1.0000
  C   C9        1.0  0.52310  0.79590  0.22489  1.0000
  C   C10       1.0  0.47691  0.20410  0.77511  1.0000
  C   C11       1.0  0.49286  0.67159  0.24335  1.0000
  C   C12       1.0  0.50715  0.32841  0.75665  1.0000
  C   C13       1.0  0.43091  0.63635  0.32606  1.0000
  C   C14       1.0  0.56910  0.36365  0.67394  1.0000
  C   C15       1.0  0.42675  0.84096  0.37104  1.0000
  C   C16       1.0  0.57326  0.15904  0.62896  1.0000
  C   C17       1.0  0.37962  0.62297  0.72859  1.0000
  C   C18       1.0  0.62039  0.37702  0.27141  1.0000
  C   C19       1.0  0.17185  0.61707  0.66467  1.0000
  C   C20       1.0  0.82815  0.38293  0.33533  1.0000
  C   C21       1.0  0.07236  0.53607  0.81522  1.0000
  C   C22       1.0  0.92764  0.46393  0.18478  1.0000
  C   C23       1.0  0.08275  0.62235  0.91742  1.0000
  C   C24       1.0  0.91725  0.37764  0.08258  1.0000
  C   C25       1.0  0.16040  0.61873  0.01906  1.0000
  C   C26       1.0  0.83959  0.38127  0.98094  1.0000
  C   C27       1.0  0.15924  0.69628  0.11088  1.0000
  C   C28       1.0  0.84075  0.30371  0.88912  1.0000
  C   C29       1.0  0.07977  0.77401  0.09958  1.0000
  C   C30       1.0  0.92023  0.22598  0.90042  1.0000
  C   C31       1.0  0.00619  0.70335  0.91247  1.0000
  C   C32       1.0  0.99381  0.29664  0.08753  1.0000
  N   N1        1.0  0.24936  0.05730  0.06808  1.0000
  N   N2        1.0  0.75064  0.94270  0.93192  1.0000
  N   N3        1.0  0.41521  0.97063  0.07878  1.0000
  N   N4        1.0  0.58479  0.02938  0.92122  1.0000
  N   N5        1.0  0.41536  0.02391  0.17886  1.0000
  N   N6        1.0  0.58464  0.97609  0.82115  1.0000
  N   N7        1.0  0.39840  0.72029  0.38968  1.0000
  N   N8        1.0  0.60161  0.27971  0.61032  1.0000
  N   N9        1.0  0.29431  0.64144  0.64089  1.0000
  N   N10       1.0  0.70569  0.35856  0.35911  1.0000
  N   N11       1.0  0.31487  0.58746  0.80456  1.0000
  N   N12       1.0  0.68512  0.41254  0.19544  1.0000
  N   N13       1.0  0.18308  0.58467  0.76257  1.0000
  N   N14       1.0  0.81692  0.41533  0.23743  1.0000
  N   N15       1.0  0.00421  0.77780  0.00162  1.0000
  N   N16       1.0  0.99579  0.22220  0.99838  1.0000
  Cl  Cl1       1.0  0.36345  0.38698  0.04222  1.0000
  Cl  Cl2       1.0  0.63656  0.61302  0.95778  1.0000
  O   O1        1.0  0.14360  0.39478  0.38484  1.0000
  O   O2        1.0  0.85640  0.60522  0.61516  1.0000
  O   O3        1.0  0.38556  0.35104  0.39334  1.0000
  O   O4        1.0  0.61444  0.64896  0.60666  1.0000
  O   O5        1.0  0.24995  0.31692  0.56973  1.0000
  O   O6        1.0  0.75005  0.68308  0.43027  1.0000
  O   O7        1.0  0.28217  0.11558  0.46142  1.0000
  O   O8        1.0  0.71783  0.88442  0.53859  1.0000
  O   O9        1.0  0.17651  0.30580  0.76658  1.0000
  O   O10       1.0  0.82350  0.69420  0.23342  1.0000
  O   O11       1.0  0.18528  0.07506  0.64642  1.0000
  O   O12       1.0  0.81472  0.92494  0.35358  1.0000
  O   O13       1.0  0.25912  0.88701  0.53150  1.0000
  O   O14       1.0  0.74088  0.11298  0.46850  1.0000
  O   O15       1.0  0.00130  0.34455  0.59496  1.0000
  O   O16       1.0  0.99870  0.65544  0.40504  1.0000
  O   O17       1.0  0.05438  0.90283  0.35786  1.0000
  O   O18       1.0  0.94562  0.09717  0.64214  1.0000
  O   O19       1.0  0.02117  0.11615  0.46361  1.0000
  O   O20       1.0  0.97883  0.88384  0.53639  1.0000
  O   O21       1.0  0.11976  0.15576  0.29083  1.0000
  O   O22       1.0  0.88024  0.84424  0.70918  1.0000
  O   O23       1.0  0.15975  0.86297  0.74864  1.0000
  O   O24       1.0  0.84025  0.13704  0.25136  1.0000
  O   O25       1.0  0.09321  0.05826  0.83862  1.0000
  O   O26       1.0  0.90679  0.94174  0.16138  1.0000
