data_image0
_chemical_formula_structural       Li6H24C18N26O12
_chemical_formula_sum              "Li6 H24 C18 N26 O12"
_cell_length_a       6.81082
_cell_length_b       12.2075
_cell_length_c       12.2075
_cell_angle_alpha    120
_cell_angle_beta     90
_cell_angle_gamma    90

_space_group_name_H-M_alt    "P 1"
_space_group_IT_number       1

loop_
  _space_group_symop_operation_xyz
  'x, y, z'

loop_
  _atom_site_type_symbol
  _atom_site_label
  _atom_site_symmetry_multiplicity
  _atom_site_fract_x
  _atom_site_fract_y
  _atom_site_fract_z
  _atom_site_occupancy
  Li  Li1       1.0  0.25000  0.35299  0.08930  1.0000
  Li  Li2       1.0  0.25000  0.91070  0.26369  1.0000
  Li  Li3       1.0  0.25000  0.73631  0.64701  1.0000
  Li  Li4       1.0  0.75000  0.64701  0.91070  1.0000
  Li  Li5       1.0  0.75000  0.08931  0.73631  1.0000
  Li  Li6       1.0  0.75000  0.26369  0.35299  1.0000
  H   H1        1.0  0.90669  0.31388  0.06921  1.0000
  H   H2        1.0  0.90669  0.93079  0.24468  1.0000
  H   H3        1.0  0.90669  0.75533  0.68612  1.0000
  H   H4        1.0  0.40669  0.68612  0.93079  1.0000
  H   H5        1.0  0.40669  0.06921  0.75532  1.0000
  H   H6        1.0  0.40669  0.24467  0.31389  1.0000
  H   H7        1.0  0.09331  0.68612  0.93079  1.0000
  H   H8        1.0  0.09331  0.06921  0.75532  1.0000
  H   H9        1.0  0.09331  0.24467  0.31389  1.0000
  H   H10       1.0  0.59331  0.31388  0.06921  1.0000
  H   H11       1.0  0.59331  0.93079  0.24468  1.0000
  H   H12       1.0  0.59331  0.75533  0.68612  1.0000
  H   H13       1.0  0.99691  0.18069  0.96522  1.0000
  H   H14       1.0  0.99691  0.03478  0.21547  1.0000
  H   H15       1.0  0.99691  0.78453  0.81931  1.0000
  H   H16       1.0  0.49691  0.81931  0.03478  1.0000
  H   H17       1.0  0.49691  0.96522  0.78453  1.0000
  H   H18       1.0  0.49691  0.21547  0.18069  1.0000
  H   H19       1.0  0.00309  0.81931  0.03478  1.0000
  H   H20       1.0  0.00309  0.96522  0.78453  1.0000
  H   H21       1.0  0.00309  0.21547  0.18069  1.0000
  H   H22       1.0  0.50309  0.18069  0.96522  1.0000
  H   H23       1.0  0.50309  0.03478  0.21547  1.0000
  H   H24       1.0  0.50309  0.78453  0.81931  1.0000
  C   C1        1.0  0.25000  0.26094  0.72695  1.0000
  C   C2        1.0  0.25000  0.27302  0.53399  1.0000
  C   C3        1.0  0.25000  0.46600  0.73903  1.0000
  C   C4        1.0  0.75000  0.73906  0.27305  1.0000
  C   C5        1.0  0.75000  0.72699  0.46602  1.0000
  C   C6        1.0  0.75000  0.53400  0.26097  1.0000
  C   C7        1.0  0.25000  0.44608  0.91718  1.0000
  C   C8        1.0  0.25000  0.08281  0.52890  1.0000
  C   C9        1.0  0.25000  0.47109  0.55391  1.0000
  C   C10       1.0  0.75000  0.55392  0.08282  1.0000
  C   C11       1.0  0.75000  0.91719  0.47110  1.0000
  C   C12       1.0  0.75000  0.52891  0.44609  1.0000
  C   C13       1.0  0.25000  0.61772  0.11663  1.0000
  C   C14       1.0  0.25000  0.88337  0.50110  1.0000
  C   C15       1.0  0.25000  0.49891  0.38227  1.0000
  C   C16       1.0  0.75000  0.38228  0.88337  1.0000
  C   C17       1.0  0.75000  0.11664  0.49891  1.0000
  C   C18       1.0  0.75000  0.50110  0.61773  1.0000
  N   N1        1.0  0.25000  0.33333  0.66667  1.0000
  N   N2        1.0  0.75000  0.66667  0.33333  1.0000
  N   N3        1.0  0.25000  0.31794  0.85158  1.0000
  N   N4        1.0  0.25000  0.14842  0.46636  1.0000
  N   N5        1.0  0.25000  0.53363  0.68206  1.0000
  N   N6        1.0  0.75000  0.68206  0.14842  1.0000
  N   N7        1.0  0.75000  0.85158  0.53364  1.0000
  N   N8        1.0  0.75000  0.46637  0.31794  1.0000
  N   N9        1.0  0.25000  0.13451  0.65722  1.0000
  N   N10       1.0  0.25000  0.34277  0.47728  1.0000
  N   N11       1.0  0.25000  0.52271  0.86549  1.0000
  N   N12       1.0  0.75000  0.86549  0.34278  1.0000
  N   N13       1.0  0.75000  0.65723  0.52271  1.0000
  N   N14       1.0  0.75000  0.47729  0.13451  1.0000
  N   N15       1.0  0.25000  0.49541  0.04344  1.0000
  N   N16       1.0  0.25000  0.95654  0.45196  1.0000
  N   N17       1.0  0.25000  0.54803  0.50458  1.0000
  N   N18       1.0  0.75000  0.50459  0.95656  1.0000
  N   N19       1.0  0.75000  0.04346  0.54803  1.0000
  N   N20       1.0  0.75000  0.45197  0.49541  1.0000
  N   N21       1.0  0.25000  0.72708  0.18871  1.0000
  N   N22       1.0  0.25000  0.81129  0.53838  1.0000
  N   N23       1.0  0.25000  0.46161  0.27291  1.0000
  N   N24       1.0  0.75000  0.27292  0.81130  1.0000
  N   N25       1.0  0.75000  0.18871  0.46162  1.0000
  N   N26       1.0  0.75000  0.53838  0.72708  1.0000
  O   O1        1.0  0.00813  0.25018  0.05487  1.0000
  O   O2        1.0  0.00813  0.94513  0.19531  1.0000
  O   O3        1.0  0.00813  0.80469  0.74982  1.0000
  O   O4        1.0  0.50813  0.74982  0.94513  1.0000
  O   O5        1.0  0.50813  0.05487  0.80469  1.0000
  O   O6        1.0  0.50813  0.19531  0.25018  1.0000
  O   O7        1.0  0.99187  0.74982  0.94513  1.0000
  O   O8        1.0  0.99187  0.05487  0.80469  1.0000
  O   O9        1.0  0.99187  0.19531  0.25018  1.0000
  O   O10       1.0  0.49187  0.25018  0.05487  1.0000
  O   O11       1.0  0.49187  0.94513  0.19531  1.0000
  O   O12       1.0  0.49187  0.80469  0.74982  1.0000
