data_image0
_chemical_formula_structural       Cd2Cu2H28C16Br8N24O6
_chemical_formula_sum              "Cd2 Cu2 H28 C16 Br8 N24 O6"
_cell_length_a       10.51
_cell_length_b       10.5098
_cell_length_c       13.2141
_cell_angle_alpha    66.1167
_cell_angle_beta     66.1171
_cell_angle_gamma    70.766

_space_group_name_H-M_alt    "P 1"
_space_group_IT_number       1

loop_
  _space_group_symop_operation_xyz
  'x, y, z'

loop_
  _atom_site_type_symbol
  _atom_site_label
  _atom_site_symmetry_multiplicity
  _atom_site_fract_x
  _atom_site_fract_y
  _atom_site_fract_z
  _atom_site_occupancy
  Cd  Cd1       1.0  0.85648  0.63059  0.77249  1.0000
  Cd  Cd2       1.0  0.63060  0.85650  0.27251  1.0000
  Cu  Cu1       1.0  0.22867  0.72086  0.96752  1.0000
  Cu  Cu2       1.0  0.72087  0.22868  0.46752  1.0000
  H   H1        1.0  0.50352  0.87344  0.90835  1.0000
  H   H2        1.0  0.87347  0.50352  0.40834  1.0000
  H   H3        1.0  0.38054  0.97802  0.85576  1.0000
  H   H4        1.0  0.97805  0.38054  0.35575  1.0000
  H   H5        1.0  0.96999  0.61450  0.08137  1.0000
  H   H6        1.0  0.61450  0.96999  0.58138  1.0000
  H   H7        1.0  0.05726  0.53953  0.98187  1.0000
  H   H8        1.0  0.53953  0.05727  0.48187  1.0000
  H   H9        1.0  0.96897  0.81872  0.87130  1.0000
  H   H10       1.0  0.81873  0.96898  0.37129  1.0000
  H   H11       1.0  0.02109  0.23984  0.78504  1.0000
  H   H12       1.0  0.23984  0.02110  0.28504  1.0000
  H   H13       1.0  0.67114  0.09382  0.89957  1.0000
  H   H14       1.0  0.09381  0.67114  0.39957  1.0000
  H   H15       1.0  0.98806  0.11981  0.56981  1.0000
  H   H16       1.0  0.11981  0.98806  0.06980  1.0000
  H   H17       1.0  0.34982  0.47856  0.83903  1.0000
  H   H18       1.0  0.47857  0.34983  0.33902  1.0000
  H   H19       1.0  0.36940  0.83255  0.52702  1.0000
  H   H20       1.0  0.83254  0.36940  0.02702  1.0000
  H   H21       1.0  0.63836  0.46251  0.59337  1.0000
  H   H22       1.0  0.46250  0.63837  0.09336  1.0000
  H   H23       1.0  0.22591  0.53481  0.57448  1.0000
  H   H24       1.0  0.53481  0.22590  0.07449  1.0000
  H   H25       1.0  0.55729  0.82769  0.75620  1.0000
  H   H26       1.0  0.82770  0.55730  0.25620  1.0000
  H   H27       1.0  0.63540  0.74495  0.66241  1.0000
  H   H28       1.0  0.74495  0.63540  0.16241  1.0000
  C   C1        1.0  0.01005  0.90658  0.86166  1.0000
  C   C2        1.0  0.90658  0.01007  0.36165  1.0000
  C   C3        1.0  0.03863  0.12449  0.81605  1.0000
  C   C4        1.0  0.12449  0.03864  0.31604  1.0000
  C   C5        1.0  0.71780  0.11343  0.80610  1.0000
  C   C6        1.0  0.11342  0.71780  0.30611  1.0000
  C   C7        1.0  0.88477  0.12678  0.63596  1.0000
  C   C8        1.0  0.12677  0.88477  0.13596  1.0000
  C   C9        1.0  0.34280  0.58625  0.77942  1.0000
  C   C10       1.0  0.58625  0.34281  0.27942  1.0000
  C   C11       1.0  0.35297  0.77029  0.61859  1.0000
  C   C12       1.0  0.77028  0.35297  0.11859  1.0000
  C   C13       1.0  0.55241  0.45408  0.57219  1.0000
  C   C14       1.0  0.45407  0.55240  0.07219  1.0000
  C   C15       1.0  0.33782  0.48884  0.56299  1.0000
  C   C16       1.0  0.48884  0.33781  0.06299  1.0000
  Br  Br1       1.0  0.06504  0.42722  0.85725  1.0000
  Br  Br2       1.0  0.42721  0.06504  0.35725  1.0000
  Br  Br3       1.0  0.73306  0.45313  0.76631  1.0000
  Br  Br4       1.0  0.45314  0.73311  0.26630  1.0000
  Br  Br5       1.0  0.03255  0.77956  0.59370  1.0000
  Br  Br6       1.0  0.77959  0.03252  0.09372  1.0000
  Br  Br7       1.0  0.72079  0.74104  0.94744  1.0000
  Br  Br8       1.0  0.74105  0.72080  0.44744  1.0000
  N   N1        1.0  0.10666  0.90225  0.90253  1.0000
  N   N2        1.0  0.90225  0.10667  0.40252  1.0000
  N   N3        1.0  0.12634  0.03733  0.87408  1.0000
  N   N4        1.0  0.03733  0.12634  0.37408  1.0000
  N   N5        1.0  0.96568  0.04558  0.80499  1.0000
  N   N6        1.0  0.04557  0.96569  0.30498  1.0000
  N   N7        1.0  0.65381  0.15690  0.72756  1.0000
  N   N8        1.0  0.15689  0.65381  0.22757  1.0000
  N   N9        1.0  0.75940  0.16565  0.62106  1.0000
  N   N10       1.0  0.16565  0.75940  0.12107  1.0000
  N   N11       1.0  0.86250  0.09371  0.75217  1.0000
  N   N12       1.0  0.09370  0.86250  0.25217  1.0000
  N   N13       1.0  0.30711  0.70393  0.80550  1.0000
  N   N14       1.0  0.70393  0.30713  0.30549  1.0000
  N   N15       1.0  0.31270  0.82004  0.70542  1.0000
  N   N16       1.0  0.82004  0.31271  0.20541  1.0000
  N   N17       1.0  0.37288  0.62420  0.66173  1.0000
  N   N18       1.0  0.62420  0.37288  0.16173  1.0000
  N   N19       1.0  0.55323  0.37070  0.52004  1.0000
  N   N20       1.0  0.37069  0.55321  0.02005  1.0000
  N   N21       1.0  0.41969  0.39187  0.51327  1.0000
  N   N22       1.0  0.39187  0.41967  0.01327  1.0000
  N   N23       1.0  0.41769  0.53056  0.60059  1.0000
  N   N24       1.0  0.53056  0.41768  0.10059  1.0000
  O   O1        1.0  0.42988  0.87930  0.87755  1.0000
  O   O2        1.0  0.87932  0.42988  0.37754  1.0000
  O   O3        1.0  0.06283  0.59949  0.02042  1.0000
  O   O4        1.0  0.59950  0.06283  0.52041  1.0000
  O   O5        1.0  0.64377  0.81537  0.68906  1.0000
  O   O6        1.0  0.81539  0.64376  0.18906  1.0000
