data_image0
_chemical_formula_structural       K4H4C28N4Cl4O16
_chemical_formula_sum              "K4 H4 C28 N4 Cl4 O16"
_cell_length_a       7.01034
_cell_length_b       6.93703
_cell_length_c       17.24
_cell_angle_alpha    89.9994
_cell_angle_beta     89.9994
_cell_angle_gamma    101.279

_space_group_name_H-M_alt    "P 1"
_space_group_IT_number       1

loop_
  _space_group_symop_operation_xyz
  'x, y, z'

loop_
  _atom_site_type_symbol
  _atom_site_label
  _atom_site_symmetry_multiplicity
  _atom_site_fract_x
  _atom_site_fract_y
  _atom_site_fract_z
  _atom_site_occupancy
  K   K1        1.0  0.72629  0.85124  0.94095  1.0000
  K   K2        1.0  0.77372  0.14876  0.44096  1.0000
  K   K3        1.0  0.27368  0.14878  0.05905  1.0000
  K   K4        1.0  0.22632  0.85125  0.55905  1.0000
  H   H1        1.0  0.86199  0.83676  0.73841  1.0000
  H   H2        1.0  0.63800  0.16324  0.23840  1.0000
  H   H3        1.0  0.13800  0.16324  0.26160  1.0000
  H   H4        1.0  0.36199  0.83675  0.76160  1.0000
  C   C1        1.0  0.57338  0.28182  0.62344  1.0000
  C   C2        1.0  0.92663  0.71819  0.12345  1.0000
  C   C3        1.0  0.42665  0.71818  0.37655  1.0000
  C   C4        1.0  0.07336  0.28182  0.87656  1.0000
  C   C5        1.0  0.68880  0.47782  0.62261  1.0000
  C   C6        1.0  0.81120  0.52219  0.12261  1.0000
  C   C7        1.0  0.31122  0.52218  0.37739  1.0000
  C   C8        1.0  0.18879  0.47781  0.87739  1.0000
  C   C9        1.0  0.74017  0.58166  0.68983  1.0000
  C   C10       1.0  0.75983  0.41833  0.18983  1.0000
  C   C11       1.0  0.25985  0.41834  0.31017  1.0000
  C   C12       1.0  0.24017  0.58166  0.81017  1.0000
  C   C13       1.0  0.68518  0.49026  0.76800  1.0000
  C   C14       1.0  0.81482  0.50973  0.26801  1.0000
  C   C15       1.0  0.31482  0.50973  0.23199  1.0000
  C   C16       1.0  0.18517  0.49027  0.73200  1.0000
  C   C17       1.0  0.57082  0.29403  0.77079  1.0000
  C   C18       1.0  0.92919  0.70594  0.27079  1.0000
  C   C19       1.0  0.42921  0.70596  0.22921  1.0000
  C   C20       1.0  0.07079  0.29404  0.72922  1.0000
  C   C21       1.0  0.51164  0.18431  0.70249  1.0000
  C   C22       1.0  0.98837  0.81568  0.20250  1.0000
  C   C23       1.0  0.48839  0.81569  0.29750  1.0000
  C   C24       1.0  0.01162  0.18431  0.79751  1.0000
  C   C25       1.0  0.52283  0.21343  0.84485  1.0000
  C   C26       1.0  0.97718  0.78655  0.34485  1.0000
  C   C27       1.0  0.47717  0.78656  0.15515  1.0000
  C   C28       1.0  0.02281  0.21344  0.65515  1.0000
  N   N1        1.0  0.48468  0.14996  0.90714  1.0000
  N   N2        1.0  0.01532  0.85003  0.40713  1.0000
  N   N3        1.0  0.51532  0.85005  0.09286  1.0000
  N   N4        1.0  0.98466  0.14997  0.59287  1.0000
  Cl  Cl1       1.0  0.76277  0.58194  0.53449  1.0000
  Cl  Cl2       1.0  0.73724  0.41808  0.03450  1.0000
  Cl  Cl3       1.0  0.23725  0.41807  0.46550  1.0000
  Cl  Cl4       1.0  0.26276  0.58192  0.96551  1.0000
  O   O1        1.0  0.52254  0.18562  0.56370  1.0000
  O   O2        1.0  0.97747  0.81439  0.06370  1.0000
  O   O3        1.0  0.47748  0.81438  0.43630  1.0000
  O   O4        1.0  0.02253  0.18561  0.93631  1.0000
  O   O5        1.0  0.84399  0.76123  0.68713  1.0000
  O   O6        1.0  0.65599  0.23878  0.18713  1.0000
  O   O7        1.0  0.15599  0.23878  0.31287  1.0000
  O   O8        1.0  0.34400  0.76122  0.81287  1.0000
  O   O9        1.0  0.74371  0.59006  0.82657  1.0000
  O   O10       1.0  0.75629  0.40992  0.32657  1.0000
  O   O11       1.0  0.25627  0.40994  0.17343  1.0000
  O   O12       1.0  0.24370  0.59008  0.67343  1.0000
  O   O13       1.0  0.41326  0.01215  0.69929  1.0000
  O   O14       1.0  0.08674  0.98785  0.19929  1.0000
  O   O15       1.0  0.58675  0.98785  0.30070  1.0000
  O   O16       1.0  0.91325  0.01215  0.80071  1.0000
