data_image0
_chemical_formula_structural       Cu4Mo8H36C46N12O26
_chemical_formula_sum              "Cu4 Mo8 H36 C46 N12 O26"
_cell_length_a       9.41749
_cell_length_b       12.3768
_cell_length_c       13.0146
_cell_angle_alpha    80.6396
_cell_angle_beta     85.799
_cell_angle_gamma    76.2522

_space_group_name_H-M_alt    "P 1"
_space_group_IT_number       1

loop_
  _space_group_symop_operation_xyz
  'x, y, z'

loop_
  _atom_site_type_symbol
  _atom_site_label
  _atom_site_symmetry_multiplicity
  _atom_site_fract_x
  _atom_site_fract_y
  _atom_site_fract_z
  _atom_site_occupancy
  Cu  Cu1       1.0  0.15762  0.77974  0.29579  1.0000
  Cu  Cu2       1.0  0.84237  0.22027  0.70421  1.0000
  Cu  Cu3       1.0  0.31145  0.72806  0.80936  1.0000
  Cu  Cu4       1.0  0.68856  0.27194  0.19064  1.0000
  Mo  Mo1       1.0  0.69194  0.92591  0.47968  1.0000
  Mo  Mo2       1.0  0.30806  0.07409  0.52032  1.0000
  Mo  Mo3       1.0  0.53202  0.81492  0.29774  1.0000
  Mo  Mo4       1.0  0.46798  0.18508  0.70226  1.0000
  Mo  Mo5       1.0  0.55921  0.90672  0.71347  1.0000
  Mo  Mo6       1.0  0.44079  0.09327  0.28653  1.0000
  Mo  Mo7       1.0  0.62295  0.19435  0.46602  1.0000
  Mo  Mo8       1.0  0.37705  0.80565  0.53398  1.0000
  H   H1        1.0  0.34729  0.38444  0.47613  1.0000
  H   H2        1.0  0.65272  0.61558  0.52387  1.0000
  H   H3        1.0  0.09827  0.38373  0.18652  1.0000
  H   H4        1.0  0.90173  0.61629  0.81348  1.0000
  H   H5        1.0  0.00402  0.58354  0.11195  1.0000
  H   H6        1.0  0.99598  0.41646  0.88805  1.0000
  H   H7        1.0  0.13249  0.67249  0.95764  1.0000
  H   H8        1.0  0.86751  0.32752  0.04236  1.0000
  H   H9        1.0  0.32204  0.26956  0.10738  1.0000
  H   H10       1.0  0.67795  0.73045  0.89262  1.0000
  H   H11       1.0  0.64650  0.34444  0.83736  1.0000
  H   H12       1.0  0.35349  0.65556  0.16263  1.0000
  H   H13       1.0  0.54763  0.54555  0.75771  1.0000
  H   H14       1.0  0.45236  0.45446  0.24228  1.0000
  H   H15       1.0  0.68525  0.16383  0.03166  1.0000
  H   H16       1.0  0.31475  0.83617  0.96833  1.0000
  H   H17       1.0  0.68297  0.01481  0.92572  1.0000
  H   H18       1.0  0.31703  0.98518  0.07429  1.0000
  H   H19       1.0  0.83571  0.82163  0.97289  1.0000
  H   H20       1.0  0.16427  0.17836  0.02713  1.0000
  H   H21       1.0  0.99759  0.77721  0.12576  1.0000
  H   H22       1.0  0.00239  0.22279  0.87425  1.0000
  H   H23       1.0  0.09299  0.98444  0.36852  1.0000
  H   H24       1.0  0.90701  0.01555  0.63148  1.0000
  H   H25       1.0  0.94326  0.17653  0.32093  1.0000
  H   H26       1.0  0.05674  0.82347  0.67908  1.0000
  H   H27       1.0  0.85009  0.33685  0.38904  1.0000
  H   H28       1.0  0.14992  0.66315  0.61097  1.0000
  H   H29       1.0  0.09879  0.28293  0.45925  1.0000
  H   H30       1.0  0.90123  0.71707  0.54076  1.0000
  H   H31       1.0  0.40027  0.57871  0.41457  1.0000
  H   H32       1.0  0.59973  0.42131  0.58543  1.0000
  H   H33       1.0  0.89346  0.67604  0.27872  1.0000
  H   H34       1.0  0.10654  0.32396  0.72128  1.0000
  H   H35       1.0  0.75001  0.52897  0.29872  1.0000
  H   H36       1.0  0.25000  0.47103  0.70129  1.0000
  C   C1        1.0  0.15582  0.42111  0.11939  1.0000
  C   C2        1.0  0.84419  0.57890  0.88061  1.0000
  C   C3        1.0  0.10278  0.53543  0.07717  1.0000
  C   C4        1.0  0.89723  0.46458  0.92282  1.0000
  C   C5        1.0  0.17286  0.58483  0.99212  1.0000
  C   C6        1.0  0.82714  0.41517  0.00787  1.0000
  C   C7        1.0  0.29958  0.52125  0.94659  1.0000
  C   C8        1.0  0.70042  0.47876  0.05341  1.0000
  C   C9        1.0  0.35509  0.40584  0.98951  1.0000
  C   C10       1.0  0.64491  0.59417  0.01049  1.0000
  C   C11       1.0  0.27869  0.35722  0.07585  1.0000
  C   C12       1.0  0.72130  0.64279  0.92414  1.0000
  C   C13       1.0  0.54612  0.39338  0.86983  1.0000
  C   C14       1.0  0.45388  0.60663  0.13016  1.0000
  C   C15       1.0  0.49185  0.50601  0.82444  1.0000
  C   C16       1.0  0.50815  0.49399  0.17555  1.0000
  C   C17       1.0  0.84411  0.05544  0.13814  1.0000
  C   C18       1.0  0.15590  0.94455  0.86186  1.0000
  C   C19       1.0  0.75380  0.07921  0.05138  1.0000
  C   C20       1.0  0.24620  0.92079  0.94862  1.0000
  C   C21       1.0  0.75170  0.99590  0.99313  1.0000
  C   C22       1.0  0.24829  0.00409  0.00688  1.0000
  C   C23       1.0  0.83925  0.88621  0.01979  1.0000
  C   C24       1.0  0.16075  0.11377  0.98022  1.0000
  C   C25       1.0  0.92848  0.86108  0.10402  1.0000
  C   C26       1.0  0.07151  0.13891  0.89599  1.0000
  C   C27       1.0  0.93327  0.94456  0.16489  1.0000
  C   C28       1.0  0.06673  0.05544  0.83511  1.0000
  C   C29       1.0  0.02378  0.00300  0.30174  1.0000
  C   C30       1.0  0.97622  0.99699  0.69826  1.0000
  C   C31       1.0  0.93765  0.11175  0.27500  1.0000
  C   C32       1.0  0.06235  0.88825  0.72500  1.0000
  C   C33       1.0  0.91830  0.39788  0.37814  1.0000
  C   C34       1.0  0.08170  0.60212  0.62187  1.0000
  C   C35       1.0  0.05775  0.36693  0.41799  1.0000
  C   C36       1.0  0.94226  0.63308  0.58201  1.0000
  C   C37       1.0  0.13901  0.44933  0.40360  1.0000
  C   C38       1.0  0.86100  0.55067  0.59641  1.0000
  C   C39       1.0  0.08192  0.55954  0.35230  1.0000
  C   C40       1.0  0.91809  0.44046  0.64771  1.0000
  C   C41       1.0  0.30071  0.55427  0.40087  1.0000
  C   C42       1.0  0.69930  0.44574  0.59913  1.0000
  C   C43       1.0  0.94049  0.59030  0.31460  1.0000
  C   C44       1.0  0.05952  0.40969  0.68541  1.0000
  C   C45       1.0  0.86052  0.50760  0.32732  1.0000
  C   C46       1.0  0.13948  0.49240  0.67269  1.0000
  N   N1        1.0  0.84603  0.13860  0.19666  1.0000
  N   N2        1.0  0.15397  0.86140  0.80334  1.0000
  N   N3        1.0  0.02217  0.91941  0.24925  1.0000
  N   N4        1.0  0.97782  0.08059  0.75075  1.0000
  N   N5        1.0  0.48118  0.34339  0.95110  1.0000
  N   N6        1.0  0.51881  0.65661  0.04889  1.0000
  N   N7        1.0  0.37172  0.57002  0.86263  1.0000
  N   N8        1.0  0.62827  0.42999  0.13736  1.0000
  N   N9        1.0  0.18647  0.62302  0.35132  1.0000
  N   N10       1.0  0.81353  0.37698  0.64868  1.0000
  N   N11       1.0  0.27751  0.44970  0.43281  1.0000
  N   N12       1.0  0.72250  0.55030  0.56719  1.0000
  O   O1        1.0  0.64486  0.72434  0.22586  1.0000
  O   O2        1.0  0.35514  0.27564  0.77415  1.0000
  O   O3        1.0  0.71294  0.83763  0.38224  1.0000
  O   O4        1.0  0.28706  0.16237  0.61775  1.0000
  O   O5        1.0  0.56712  0.04121  0.57518  1.0000
  O   O6        1.0  0.43288  0.95879  0.42482  1.0000
  O   O7        1.0  0.50860  0.72777  0.43666  1.0000
  O   O8        1.0  0.49140  0.27223  0.56334  1.0000
  O   O9        1.0  0.54379  0.96214  0.23101  1.0000
  O   O10       1.0  0.45621  0.03786  0.76899  1.0000
  O   O11       1.0  0.66595  0.06676  0.38650  1.0000
  O   O12       1.0  0.33404  0.93324  0.61350  1.0000
  O   O13       1.0  0.48295  0.80508  0.79132  1.0000
  O   O14       1.0  0.51705  0.19492  0.20867  1.0000
  O   O15       1.0  0.60810  0.82903  0.58844  1.0000
  O   O16       1.0  0.39190  0.17097  0.41156  1.0000
  O   O17       1.0  0.62021  0.30037  0.36035  1.0000
  O   O18       1.0  0.37979  0.69963  0.63965  1.0000
  O   O19       1.0  0.78763  0.17859  0.52183  1.0000
  O   O20       1.0  0.21236  0.82141  0.47816  1.0000
  O   O21       1.0  0.35575  0.81659  0.26150  1.0000
  O   O22       1.0  0.64425  0.18341  0.73850  1.0000
  O   O23       1.0  0.72980  0.88642  0.76055  1.0000
  O   O24       1.0  0.27020  0.11358  0.23945  1.0000
  O   O25       1.0  0.86396  0.90943  0.52141  1.0000
  O   O26       1.0  0.13603  0.09057  0.47859  1.0000
