data_image0
_chemical_formula_structural       CdH4C6Se2N4
_chemical_formula_sum              "Cd1 H4 C6 Se2 N4"
_cell_length_a       6.03503
_cell_length_b       6.63773
_cell_length_c       6.63796
_cell_angle_alpha    70.3762
_cell_angle_beta     85.4702
_cell_angle_gamma    85.4686

_space_group_name_H-M_alt    "P 1"
_space_group_IT_number       1

loop_
  _space_group_symop_operation_xyz
  'x, y, z'

loop_
  _atom_site_type_symbol
  _atom_site_label
  _atom_site_symmetry_multiplicity
  _atom_site_fract_x
  _atom_site_fract_y
  _atom_site_fract_z
  _atom_site_occupancy
  Cd  Cd1       1.0  0.50000  0.00001  0.00002  1.0000
  H   H1        1.0  0.18460  0.76107  0.43056  1.0000
  H   H2        1.0  0.18460  0.43057  0.76106  1.0000
  H   H3        1.0  0.81543  0.23893  0.56945  1.0000
  H   H4        1.0  0.81542  0.56944  0.23895  1.0000
  C   C1        1.0  0.03172  0.83873  0.83870  1.0000
  C   C2        1.0  0.96826  0.16126  0.16129  1.0000
  C   C3        1.0  0.32537  0.64343  0.46118  1.0000
  C   C4        1.0  0.32537  0.46118  0.64342  1.0000
  C   C5        1.0  0.67462  0.35657  0.53885  1.0000
  C   C6        1.0  0.67463  0.53884  0.35658  1.0000
  Se  Se1       1.0  0.77092  0.77151  0.77158  1.0000
  Se  Se2       1.0  0.22905  0.22847  0.22839  1.0000
  N   N1        1.0  0.20407  0.88120  0.88119  1.0000
  N   N2        1.0  0.79591  0.11879  0.11880  1.0000
  N   N3        1.0  0.50000  0.68167  0.31834  1.0000
  N   N4        1.0  0.50003  0.31833  0.68167  1.0000
