data_image0
_chemical_formula_structural       Cd2H48C56S4N28O4F8
_chemical_formula_sum              "Cd2 H48 C56 S4 N28 O4 F8"
_cell_length_a       8.95793
_cell_length_b       12.598
_cell_length_c       16.0573
_cell_angle_alpha    90
_cell_angle_beta     96.4834
_cell_angle_gamma    90

_space_group_name_H-M_alt    "P 1"
_space_group_IT_number       1

loop_
  _space_group_symop_operation_xyz
  'x, y, z'

loop_
  _atom_site_type_symbol
  _atom_site_label
  _atom_site_symmetry_multiplicity
  _atom_site_fract_x
  _atom_site_fract_y
  _atom_site_fract_z
  _atom_site_occupancy
  Cd  Cd1       1.0  0.00000  0.50000  0.50000  1.0000
  Cd  Cd2       1.0  0.50000  0.00000  1.00000  1.0000
  H   H1        1.0  0.28693  0.69257  0.52517  1.0000
  H   H2        1.0  0.21307  0.19257  0.97483  1.0000
  H   H3        1.0  0.71307  0.30743  0.47483  1.0000
  H   H4        1.0  0.78693  0.80743  0.02517  1.0000
  H   H5        1.0  0.29841  0.41677  0.37882  1.0000
  H   H6        1.0  0.20159  0.91677  0.12118  1.0000
  H   H7        1.0  0.70159  0.58323  0.62118  1.0000
  H   H8        1.0  0.79841  0.08323  0.87882  1.0000
  H   H9        1.0  0.66532  0.68960  0.45621  1.0000
  H   H10       1.0  0.83468  0.18960  0.04379  1.0000
  H   H11       1.0  0.33468  0.31040  0.54379  1.0000
  H   H12       1.0  0.16532  0.81040  0.95621  1.0000
  H   H13       1.0  0.52625  0.78085  0.48450  1.0000
  H   H14       1.0  0.97375  0.28084  0.01550  1.0000
  H   H15       1.0  0.47375  0.21915  0.51550  1.0000
  H   H16       1.0  0.02625  0.71915  0.98450  1.0000
  H   H17       1.0  0.62307  0.91583  0.40194  1.0000
  H   H18       1.0  0.87693  0.41583  0.09806  1.0000
  H   H19       1.0  0.37693  0.08417  0.59806  1.0000
  H   H20       1.0  0.12307  0.58417  0.90194  1.0000
  H   H21       1.0  0.75801  0.83523  0.35928  1.0000
  H   H22       1.0  0.74199  0.33523  0.14072  1.0000
  H   H23       1.0  0.24199  0.16477  0.64072  1.0000
  H   H24       1.0  0.25801  0.66477  0.85928  1.0000
  H   H25       1.0  0.57509  0.14540  0.18022  1.0000
  H   H26       1.0  0.92491  0.64540  0.31978  1.0000
  H   H27       1.0  0.42491  0.85460  0.81978  1.0000
  H   H28       1.0  0.07509  0.35460  0.68022  1.0000
  H   H29       1.0  0.59718  0.81223  0.17365  1.0000
  H   H30       1.0  0.90282  0.31223  0.32635  1.0000
  H   H31       1.0  0.40282  0.18777  0.82635  1.0000
  H   H32       1.0  0.09718  0.68777  0.67365  1.0000
  H   H33       1.0  0.07667  0.94494  0.36067  1.0000
  H   H34       1.0  0.42333  0.44494  0.13933  1.0000
  H   H35       1.0  0.92333  0.05506  0.63933  1.0000
  H   H36       1.0  0.57667  0.55506  0.86067  1.0000
  H   H37       1.0  0.09581  0.71069  0.16500  1.0000
  H   H38       1.0  0.40419  0.21069  0.33500  1.0000
  H   H39       1.0  0.90419  0.28931  0.83500  1.0000
  H   H40       1.0  0.59581  0.78931  0.66500  1.0000
  H   H41       1.0  0.36421  0.67870  0.21412  1.0000
  H   H42       1.0  0.13579  0.17870  0.28588  1.0000
  H   H43       1.0  0.63579  0.32130  0.78588  1.0000
  H   H44       1.0  0.86421  0.82130  0.71412  1.0000
  H   H45       1.0  0.55994  0.61833  0.30919  1.0000
  H   H46       1.0  0.94006  0.11833  0.19081  1.0000
  H   H47       1.0  0.44006  0.38167  0.69081  1.0000
  H   H48       1.0  0.05994  0.88167  0.80919  1.0000
  C   C1        1.0  0.31960  0.63086  0.48372  1.0000
  C   C2        1.0  0.18040  0.13086  0.01628  1.0000
  C   C3        1.0  0.68040  0.36914  0.51628  1.0000
  C   C4        1.0  0.81960  0.86914  0.98373  1.0000
  C   C5        1.0  0.32843  0.49229  0.40871  1.0000
  C   C6        1.0  0.17157  0.99229  0.09129  1.0000
  C   C7        1.0  0.67157  0.50771  0.59129  1.0000
  C   C8        1.0  0.82844  0.00771  0.90871  1.0000
  C   C9        1.0  0.55082  0.71980  0.43945  1.0000
  C   C10       1.0  0.94918  0.21980  0.06055  1.0000
  C   C11       1.0  0.44918  0.28020  0.56055  1.0000
  C   C12       1.0  0.05082  0.78020  0.93945  1.0000
  C   C13       1.0  0.53829  0.76433  0.34880  1.0000
  C   C14       1.0  0.96171  0.26433  0.15120  1.0000
  C   C15       1.0  0.46171  0.23567  0.65120  1.0000
  C   C16       1.0  0.03829  0.73567  0.84880  1.0000
  C   C17       1.0  0.64093  0.86246  0.35029  1.0000
  C   C18       1.0  0.85907  0.36246  0.14971  1.0000
  C   C19       1.0  0.35907  0.13753  0.64971  1.0000
  C   C20       1.0  0.14093  0.63754  0.85029  1.0000
  C   C21       1.0  0.58539  0.06329  0.20006  1.0000
  C   C22       1.0  0.91461  0.56329  0.29994  1.0000
  C   C23       1.0  0.41461  0.93671  0.79994  1.0000
  C   C24       1.0  0.08539  0.43671  0.70006  1.0000
  C   C25       1.0  0.59693  0.89450  0.19352  1.0000
  C   C26       1.0  0.90307  0.39450  0.30648  1.0000
  C   C27       1.0  0.40307  0.10550  0.80648  1.0000
  C   C28       1.0  0.09693  0.60550  0.69352  1.0000
  C   C29       1.0  0.37423  0.78944  0.31688  1.0000
  C   C30       1.0  0.12577  0.28944  0.18312  1.0000
  C   C31       1.0  0.62577  0.21056  0.68312  1.0000
  C   C32       1.0  0.87423  0.71056  0.81688  1.0000
  C   C33       1.0  0.28865  0.86364  0.35563  1.0000
  C   C34       1.0  0.21135  0.36364  0.14437  1.0000
  C   C35       1.0  0.71135  0.13636  0.64437  1.0000
  C   C36       1.0  0.78865  0.63636  0.85563  1.0000
  C   C37       1.0  0.13913  0.88637  0.32864  1.0000
  C   C38       1.0  0.36087  0.38637  0.17136  1.0000
  C   C39       1.0  0.86087  0.11363  0.67136  1.0000
  C   C40       1.0  0.63913  0.61363  0.82864  1.0000
  C   C41       1.0  0.07390  0.83015  0.25944  1.0000
  C   C42       1.0  0.42609  0.33015  0.24056  1.0000
  C   C43       1.0  0.92610  0.16985  0.74056  1.0000
  C   C44       1.0  0.57390  0.66985  0.75944  1.0000
  C   C45       1.0  0.15126  0.75483  0.21807  1.0000
  C   C46       1.0  0.34874  0.25483  0.28193  1.0000
  C   C47       1.0  0.84874  0.24517  0.78193  1.0000
  C   C48       1.0  0.65126  0.74517  0.71807  1.0000
  C   C49       1.0  0.30146  0.73584  0.24739  1.0000
  C   C50       1.0  0.19854  0.23584  0.25261  1.0000
  C   C51       1.0  0.69854  0.26416  0.75261  1.0000
  C   C52       1.0  0.80146  0.76416  0.74739  1.0000
  C   C53       1.0  0.92400  0.76462  0.51521  1.0000
  C   C54       1.0  0.57600  0.26462  0.98479  1.0000
  C   C55       1.0  0.07600  0.23538  0.48479  1.0000
  C   C56       1.0  0.42400  0.73538  0.01521  1.0000
  S   S1        1.0  0.87991  0.88141  0.54565  1.0000
  S   S2        1.0  0.62009  0.38141  0.95435  1.0000
  S   S3        1.0  0.12009  0.11859  0.45435  1.0000
  S   S4        1.0  0.37991  0.61859  0.04565  1.0000
  N   N1        1.0  0.24502  0.54129  0.46315  1.0000
  N   N2        1.0  0.25498  0.04129  0.03685  1.0000
  N   N3        1.0  0.75498  0.45871  0.53685  1.0000
  N   N4        1.0  0.74502  0.95871  0.96315  1.0000
  N   N5        1.0  0.45132  0.54600  0.39513  1.0000
  N   N6        1.0  0.04868  0.04600  0.10487  1.0000
  N   N7        1.0  0.54868  0.45400  0.60487  1.0000
  N   N8        1.0  0.95132  0.95400  0.89513  1.0000
  N   N9        1.0  0.44413  0.63404  0.44420  1.0000
  N   N10       1.0  0.05587  0.13404  0.05580  1.0000
  N   N11       1.0  0.55587  0.36596  0.55580  1.0000
  N   N12       1.0  0.94413  0.86596  0.94420  1.0000
  N   N13       1.0  0.61536  0.92556  0.27429  1.0000
  N   N14       1.0  0.88464  0.42556  0.22571  1.0000
  N   N15       1.0  0.38464  0.07444  0.72571  1.0000
  N   N16       1.0  0.11536  0.57444  0.77429  1.0000
  N   N17       1.0  0.60776  0.03352  0.27973  1.0000
  N   N18       1.0  0.89224  0.53352  0.22027  1.0000
  N   N19       1.0  0.39224  0.96648  0.72027  1.0000
  N   N20       1.0  0.10776  0.46648  0.77973  1.0000
  N   N21       1.0  0.57726  0.98047  0.14482  1.0000
  N   N22       1.0  0.92274  0.48047  0.35518  1.0000
  N   N23       1.0  0.42274  0.01953  0.85518  1.0000
  N   N24       1.0  0.07726  0.51953  0.64482  1.0000
  N   N25       1.0  0.95294  0.67883  0.48995  1.0000
  N   N26       1.0  0.54706  0.17883  0.01004  1.0000
  N   N27       1.0  0.04706  0.32117  0.51005  1.0000
  N   N28       1.0  0.45294  0.82117  0.98995  1.0000
  O   O1        1.0  0.59905  0.68871  0.29569  1.0000
  O   O2        1.0  0.90095  0.18871  0.20431  1.0000
  O   O3        1.0  0.40095  0.31129  0.70431  1.0000
  O   O4        1.0  0.09905  0.81129  0.79569  1.0000
  F   F1        1.0  0.35394  0.91710  0.42463  1.0000
  F   F2        1.0  0.14606  0.41710  0.07537  1.0000
  F   F3        1.0  0.64606  0.08290  0.57537  1.0000
  F   F4        1.0  0.85394  0.58290  0.92463  1.0000
  F   F5        1.0  0.92689  0.85037  0.23116  1.0000
  F   F6        1.0  0.57311  0.35036  0.26884  1.0000
  F   F7        1.0  0.07310  0.14963  0.76884  1.0000
  F   F8        1.0  0.42689  0.64964  0.73116  1.0000
