data_image0
_chemical_formula_structural       Cd4H32C28N16Cl8
_chemical_formula_sum              "Cd4 H32 C28 N16 Cl8"
_cell_length_a       9.15633
_cell_length_b       9.15633
_cell_length_c       13.9987
_cell_angle_alpha    98.0288
_cell_angle_beta     106.97
_cell_angle_gamma    109.884

_space_group_name_H-M_alt    "P 1"
_space_group_IT_number       1

loop_
  _space_group_symop_operation_xyz
  'x, y, z'

loop_
  _atom_site_type_symbol
  _atom_site_label
  _atom_site_symmetry_multiplicity
  _atom_site_fract_x
  _atom_site_fract_y
  _atom_site_fract_z
  _atom_site_occupancy
  Cd  Cd1       1.0  0.19764  0.14150  0.13966  1.0000
  Cd  Cd2       1.0  0.50180  0.05804  0.36031  1.0000
  Cd  Cd3       1.0  0.80236  0.85850  0.86034  1.0000
  Cd  Cd4       1.0  0.49820  0.94196  0.63969  1.0000
  H   H1        1.0  0.84210  0.18600  0.02076  1.0000
  H   H2        1.0  0.66502  0.82135  0.47935  1.0000
  H   H3        1.0  0.15789  0.81400  0.97923  1.0000
  H   H4        1.0  0.33498  0.17865  0.52065  1.0000
  H   H5        1.0  0.05025  0.68577  0.16899  1.0000
  H   H6        1.0  0.01656  0.88108  0.33109  1.0000
  H   H7        1.0  0.94975  0.31422  0.83101  1.0000
  H   H8        1.0  0.98344  0.11892  0.66891  1.0000
  H   H9        1.0  0.26737  0.55112  0.25854  1.0000
  H   H10       1.0  0.79246  0.00873  0.24153  1.0000
  H   H11       1.0  0.73263  0.44887  0.74146  1.0000
  H   H12       1.0  0.20754  0.99127  0.75847  1.0000
  H   H13       1.0  0.47458  0.18345  0.01666  1.0000
  H   H14       1.0  0.66659  0.45779  0.48329  1.0000
  H   H15       1.0  0.52542  0.81655  0.98334  1.0000
  H   H16       1.0  0.33341  0.54222  0.51671  1.0000
  H   H17       1.0  0.49263  0.55494  0.24163  1.0000
  H   H18       1.0  0.81378  0.25118  0.25861  1.0000
  H   H19       1.0  0.50737  0.44506  0.75837  1.0000
  H   H20       1.0  0.18623  0.74882  0.74139  1.0000
  H   H21       1.0  0.73827  0.68388  0.16139  1.0000
  H   H22       1.0  0.02274  0.57704  0.33887  1.0000
  H   H23       1.0  0.26173  0.31612  0.83861  1.0000
  H   H24       1.0  0.97726  0.42296  0.66113  1.0000
  H   H25       1.0  0.78159  0.56469  0.99788  1.0000
  H   H26       1.0  0.06670  0.78380  0.50226  1.0000
  H   H27       1.0  0.21841  0.43531  0.00212  1.0000
  H   H28       1.0  0.93330  0.21620  0.49774  1.0000
  H   H29       1.0  0.68844  0.34973  0.94572  1.0000
  H   H30       1.0  0.90384  0.74265  0.55440  1.0000
  H   H31       1.0  0.31156  0.65027  0.05428  1.0000
  H   H32       1.0  0.09616  0.25735  0.44560  1.0000
  C   C1        1.0  0.92973  0.30081  0.07558  1.0000
  C   C2        1.0  0.72505  0.85415  0.42454  1.0000
  C   C3        1.0  0.07027  0.69919  0.92442  1.0000
  C   C4        1.0  0.27495  0.14585  0.57546  1.0000
  C   C5        1.0  0.04064  0.56276  0.15396  1.0000
  C   C6        1.0  0.90865  0.88662  0.34617  1.0000
  C   C7        1.0  0.95936  0.43724  0.84604  1.0000
  C   C8        1.0  0.09135  0.11338  0.65383  1.0000
  C   C9        1.0  0.14793  0.49397  0.19516  1.0000
  C   C10       1.0  0.79868  0.95270  0.30493  1.0000
  C   C11       1.0  0.85207  0.50603  0.80484  1.0000
  C   C12       1.0  0.20132  0.04730  0.69507  1.0000
  C   C13       1.0  0.51106  0.30016  0.06838  1.0000
  C   C14       1.0  0.73177  0.44269  0.43166  1.0000
  C   C15       1.0  0.48894  0.69984  0.93162  1.0000
  C   C16       1.0  0.26823  0.55731  0.56834  1.0000
  C   C17       1.0  0.52456  0.49597  0.18311  1.0000
  C   C18       1.0  0.81320  0.34154  0.31711  1.0000
  C   C19       1.0  0.47544  0.50403  0.81688  1.0000
  C   C20       1.0  0.18680  0.65846  0.68289  1.0000
  C   C21       1.0  0.64793  0.56206  0.14575  1.0000
  C   C22       1.0  0.91657  0.50231  0.35450  1.0000
  C   C23       1.0  0.35207  0.43794  0.85425  1.0000
  C   C24       1.0  0.08343  0.49769  0.64550  1.0000
  C   C25       1.0  0.75008  0.44853  0.01682  1.0000
  C   C26       1.0  0.93161  0.73331  0.48333  1.0000
  C   C27       1.0  0.24992  0.55147  0.98318  1.0000
  C   C28       1.0  0.06839  0.26669  0.51668  1.0000
  N   N1        1.0  0.07797  0.33128  0.14515  1.0000
  N   N2        1.0  0.68598  0.93277  0.35493  1.0000
  N   N3        1.0  0.92203  0.66872  0.85485  1.0000
  N   N4        1.0  0.31402  0.06723  0.64507  1.0000
  N   N5        1.0  0.90270  0.43834  0.07824  1.0000
  N   N6        1.0  0.85993  0.82444  0.42189  1.0000
  N   N7        1.0  0.09730  0.56166  0.92176  1.0000
  N   N8        1.0  0.14007  0.17556  0.57811  1.0000
  N   N9        1.0  0.43955  0.33319  0.13375  1.0000
  N   N10       1.0  0.69960  0.30584  0.36634  1.0000
  N   N11       1.0  0.56045  0.66681  0.86625  1.0000
  N   N12       1.0  0.30040  0.69416  0.63366  1.0000
  N   N13       1.0  0.63737  0.43649  0.07286  1.0000
  N   N14       1.0  0.86366  0.56458  0.42728  1.0000
  N   N15       1.0  0.36263  0.56351  0.92714  1.0000
  N   N16       1.0  0.13634  0.43543  0.57272  1.0000
  Cl  Cl1       1.0  0.36900  0.95261  0.15484  1.0000
  Cl  Cl2       1.0  0.29777  0.21419  0.34510  1.0000
  Cl  Cl3       1.0  0.63100  0.04740  0.84516  1.0000
  Cl  Cl4       1.0  0.70223  0.78581  0.65490  1.0000
  Cl  Cl5       1.0  0.90816  0.90378  0.08089  1.0000
  Cl  Cl6       1.0  0.32283  0.82736  0.41911  1.0000
  Cl  Cl7       1.0  0.09185  0.09622  0.91911  1.0000
  Cl  Cl8       1.0  0.67717  0.17264  0.58089  1.0000
