data_image0
_chemical_formula_structural       H32Pb4C28N16Cl8
_chemical_formula_sum              "H32 Pb4 C28 N16 Cl8"
_cell_length_a       8.96103
_cell_length_b       8.95766
_cell_length_c       14.5122
_cell_angle_alpha    101.43
_cell_angle_beta     107.392
_cell_angle_gamma    101.243

_space_group_name_H-M_alt    "P 1"
_space_group_IT_number       1

loop_
  _space_group_symop_operation_xyz
  'x, y, z'

loop_
  _atom_site_type_symbol
  _atom_site_label
  _atom_site_symmetry_multiplicity
  _atom_site_fract_x
  _atom_site_fract_y
  _atom_site_fract_z
  _atom_site_occupancy
  H   H1        1.0  0.95372  0.03299  0.21408  1.0000
  H   H2        1.0  0.31836  0.73977  0.28536  1.0000
  H   H3        1.0  0.04620  0.96683  0.78592  1.0000
  H   H4        1.0  0.68183  0.26051  0.71462  1.0000
  H   H5        1.0  0.79548  0.81075  0.28921  1.0000
  H   H6        1.0  0.02096  0.50652  0.21067  1.0000
  H   H7        1.0  0.20437  0.18925  0.71088  1.0000
  H   H8        1.0  0.97926  0.49376  0.78949  1.0000
  H   H9        1.0  0.28484  0.00927  0.48507  1.0000
  H   H10       1.0  0.02315  0.79948  0.01438  1.0000
  H   H11       1.0  0.71512  0.99045  0.51488  1.0000
  H   H12       1.0  0.97684  0.20044  0.98554  1.0000
  H   H13       1.0  0.88763  0.76015  0.47044  1.0000
  H   H14       1.0  0.78941  0.41679  0.02930  1.0000
  H   H15       1.0  0.11227  0.23968  0.52955  1.0000
  H   H16       1.0  0.21066  0.58330  0.97085  1.0000
  H   H17       1.0  0.10371  0.82382  0.53976  1.0000
  H   H18       1.0  0.78301  0.56376  0.96010  1.0000
  H   H19       1.0  0.89617  0.17604  0.46026  1.0000
  H   H20       1.0  0.21707  0.43622  0.03997  1.0000
  H   H21       1.0  0.76740  0.48969  0.35409  1.0000
  H   H22       1.0  0.63627  0.41270  0.14644  1.0000
  H   H23       1.0  0.23257  0.51014  0.64592  1.0000
  H   H24       1.0  0.36383  0.58765  0.85376  1.0000
  H   H25       1.0  0.89908  0.24817  0.29094  1.0000
  H   H26       1.0  0.45777  0.60723  0.20983  1.0000
  H   H27       1.0  0.10093  0.75172  0.70906  1.0000
  H   H28       1.0  0.54221  0.39314  0.79015  1.0000
  H   H29       1.0  0.28065  0.66061  0.46309  1.0000
  H   H30       1.0  0.69574  0.81635  0.03654  1.0000
  H   H31       1.0  0.71931  0.33929  0.53699  1.0000
  H   H32       1.0  0.30426  0.18365  0.96332  1.0000
  Pb  Pb1       1.0  0.36381  0.30589  0.36264  1.0000
  Pb  Pb2       1.0  0.44305  0.00062  0.13732  1.0000
  Pb  Pb3       1.0  0.63617  0.69399  0.63738  1.0000
  Pb  Pb4       1.0  0.55687  0.99946  0.86249  1.0000
  C   C1        1.0  0.99896  0.99504  0.28130  1.0000
  C   C2        1.0  0.21312  0.71765  0.21818  1.0000
  C   C3        1.0  0.00097  0.00480  0.71871  1.0000
  C   C4        1.0  0.78702  0.28253  0.78181  1.0000
  C   C5        1.0  0.91962  0.88399  0.31609  1.0000
  C   C6        1.0  0.06724  0.60360  0.18360  1.0000
  C   C7        1.0  0.08027  0.11592  0.68394  1.0000
  C   C8        1.0  0.93291  0.39659  0.81646  1.0000
  C   C9        1.0  0.17561  0.98720  0.42025  1.0000
  C   C10       1.0  0.06602  0.75515  0.07924  1.0000
  C   C11       1.0  0.82433  0.01258  0.57973  1.0000
  C   C12       1.0  0.93403  0.24486  0.92072  1.0000
  C   C13       1.0  0.00897  0.77391  0.46513  1.0000
  C   C14       1.0  0.80807  0.54348  0.03470  1.0000
  C   C15       1.0  0.99094  0.22595  0.53488  1.0000
  C   C16       1.0  0.19201  0.45661  0.96540  1.0000
  C   C17       1.0  0.89177  0.48626  0.36523  1.0000
  C   C18       1.0  0.62126  0.52580  0.13521  1.0000
  C   C19       1.0  0.10821  0.51361  0.63476  1.0000
  C   C20       1.0  0.37883  0.47450  0.86490  1.0000
  C   C21       1.0  0.95989  0.36888  0.33607  1.0000
  C   C22       1.0  0.53289  0.62285  0.16443  1.0000
  C   C23       1.0  0.04011  0.63100  0.66393  1.0000
  C   C24       1.0  0.46711  0.37745  0.83556  1.0000
  C   C25       1.0  0.16081  0.57815  0.42440  1.0000
  C   C26       1.0  0.65255  0.73530  0.07550  1.0000
  C   C27       1.0  0.83916  0.42175  0.57562  1.0000
  C   C28       1.0  0.34747  0.26482  0.92443  1.0000
  N   N1        1.0  0.15749  0.05905  0.34741  1.0000
  N   N2        1.0  0.21082  0.80991  0.15197  1.0000
  N   N3        1.0  0.84246  0.94073  0.65256  1.0000
  N   N4        1.0  0.78927  0.19016  0.84796  1.0000
  N   N5        1.0  0.03296  0.88086  0.40430  1.0000
  N   N6        1.0  0.97578  0.62861  0.09541  1.0000
  N   N7        1.0  0.96695  0.11900  0.59572  1.0000
  N   N8        1.0  0.02431  0.37149  0.90464  1.0000
  N   N9        1.0  0.02075  0.61788  0.42141  1.0000
  N   N10       1.0  0.69584  0.59850  0.07862  1.0000
  N   N11       1.0  0.97921  0.38199  0.57860  1.0000
  N   N12       1.0  0.30424  0.40167  0.92145  1.0000
  N   N13       1.0  0.12771  0.42772  0.37348  1.0000
  N   N14       1.0  0.55348  0.75308  0.12671  1.0000
  N   N15       1.0  0.87229  0.57218  0.62654  1.0000
  N   N16       1.0  0.44649  0.24712  0.87318  1.0000
  Cl  Cl1       1.0  0.23714  0.22896  0.14742  1.0000
  Cl  Cl2       1.0  0.58126  0.08888  0.35262  1.0000
  Cl  Cl3       1.0  0.76269  0.77115  0.85264  1.0000
  Cl  Cl4       1.0  0.41887  0.91098  0.64714  1.0000
  Cl  Cl5       1.0  0.43372  0.34499  0.57531  1.0000
  Cl  Cl6       1.0  0.26975  0.85874  0.92460  1.0000
  Cl  Cl7       1.0  0.56628  0.65482  0.42469  1.0000
  Cl  Cl8       1.0  0.73009  0.14124  0.07518  1.0000
