data_image0
_chemical_formula_structural       La4H32C28N4O32
_chemical_formula_sum              "La4 H32 C28 N4 O32"
_cell_length_a       6.93696
_cell_length_b       8.58554
_cell_length_c       18.778
_cell_angle_alpha    81.4407
_cell_angle_beta     79.3666
_cell_angle_gamma    66.1946

_space_group_name_H-M_alt    "P 1"
_space_group_IT_number       1

loop_
  _space_group_symop_operation_xyz
  'x, y, z'

loop_
  _atom_site_type_symbol
  _atom_site_label
  _atom_site_symmetry_multiplicity
  _atom_site_fract_x
  _atom_site_fract_y
  _atom_site_fract_z
  _atom_site_occupancy
  La  La1       1.0  0.49937  0.92221  0.61628  1.0000
  La  La2       1.0  0.03805  0.57765  0.88373  1.0000
  La  La3       1.0  0.50062  0.07779  0.38372  1.0000
  La  La4       1.0  0.96195  0.42235  0.11627  1.0000
  H   H1        1.0  0.97393  0.60355  0.61802  1.0000
  H   H2        1.0  0.19595  0.89632  0.88191  1.0000
  H   H3        1.0  0.02608  0.39645  0.38198  1.0000
  H   H4        1.0  0.80405  0.10368  0.11810  1.0000
  H   H5        1.0  0.88925  0.70492  0.69039  1.0000
  H   H6        1.0  0.28466  0.79485  0.80956  1.0000
  H   H7        1.0  0.11075  0.29507  0.30961  1.0000
  H   H8        1.0  0.71535  0.20515  0.19044  1.0000
  H   H9        1.0  0.02323  0.97376  0.58102  1.0000
  H   H10       1.0  0.57811  0.52621  0.91899  1.0000
  H   H11       1.0  0.97677  0.02624  0.41898  1.0000
  H   H12       1.0  0.42189  0.47378  0.08101  1.0000
  H   H13       1.0  0.20235  0.92713  0.51301  1.0000
  H   H14       1.0  0.64243  0.57299  0.98702  1.0000
  H   H15       1.0  0.79765  0.07287  0.48699  1.0000
  H   H16       1.0  0.35758  0.42702  0.01298  1.0000
  H   H17       1.0  0.03141  0.12852  0.69272  1.0000
  H   H18       1.0  0.85239  0.37130  0.80731  1.0000
  H   H19       1.0  0.96859  0.87148  0.30728  1.0000
  H   H20       1.0  0.14760  0.62870  0.19269  1.0000
  H   H21       1.0  0.12862  0.25460  0.64286  1.0000
  H   H22       1.0  0.02608  0.24538  0.85710  1.0000
  H   H23       1.0  0.87138  0.74540  0.35714  1.0000
  H   H24       1.0  0.97392  0.75462  0.14290  1.0000
  H   H25       1.0  0.50307  0.26198  0.69233  1.0000
  H   H26       1.0  0.45806  0.23785  0.80758  1.0000
  H   H27       1.0  0.49693  0.73802  0.30767  1.0000
  H   H28       1.0  0.54193  0.76216  0.19242  1.0000
  H   H29       1.0  0.85017  0.30743  0.47892  1.0000
  H   H30       1.0  0.63619  0.19237  0.02119  1.0000
  H   H31       1.0  0.14983  0.69257  0.52108  1.0000
  H   H32       1.0  0.36382  0.80762  0.97881  1.0000
  C   C1        1.0  0.37952  0.59940  0.71748  1.0000
  C   C2        1.0  0.69717  0.90043  0.78245  1.0000
  C   C3        1.0  0.62047  0.40060  0.28252  1.0000
  C   C4        1.0  0.30282  0.09957  0.21756  1.0000
  C   C5        1.0  0.51127  0.50781  0.65176  1.0000
  C   C6        1.0  0.67158  0.99215  0.84814  1.0000
  C   C7        1.0  0.48873  0.49219  0.34824  1.0000
  C   C8        1.0  0.32842  0.00785  0.15186  1.0000
  C   C9        1.0  0.56320  0.33482  0.64802  1.0000
  C   C10       1.0  0.54670  0.16506  0.85189  1.0000
  C   C11       1.0  0.43681  0.66518  0.35198  1.0000
  C   C12       1.0  0.45330  0.83493  0.14811  1.0000
  C   C13       1.0  0.68977  0.25478  0.58515  1.0000
  C   C14       1.0  0.53004  0.24512  0.91482  1.0000
  C   C15       1.0  0.31023  0.74522  0.41485  1.0000
  C   C16       1.0  0.46996  0.75488  0.08518  1.0000
  C   C17       1.0  0.75620  0.36014  0.52919  1.0000
  C   C18       1.0  0.64559  0.13976  0.97084  1.0000
  C   C19       1.0  0.24380  0.63986  0.47081  1.0000
  C   C20       1.0  0.35442  0.86024  0.02916  1.0000
  C   C21       1.0  0.69097  0.53267  0.53726  1.0000
  C   C22       1.0  0.76110  0.96728  0.96273  1.0000
  C   C23       1.0  0.30903  0.46733  0.46274  1.0000
  C   C24       1.0  0.23891  0.03272  0.03727  1.0000
  C   C25       1.0  0.73956  0.65347  0.47688  1.0000
  C   C26       1.0  0.86975  0.84648  0.02317  1.0000
  C   C27       1.0  0.26044  0.34653  0.52312  1.0000
  C   C28       1.0  0.13025  0.15352  0.97683  1.0000
  N   N1        1.0  0.57234  0.60645  0.59753  1.0000
  N   N2        1.0  0.77693  0.89354  0.90239  1.0000
  N   N3        1.0  0.42766  0.39355  0.40247  1.0000
  N   N4        1.0  0.22306  0.10646  0.09761  1.0000
  O   O1        1.0  0.36330  0.75354  0.71887  1.0000
  O   O2        1.0  0.83637  0.74632  0.78110  1.0000
  O   O3        1.0  0.63669  0.24646  0.28113  1.0000
  O   O4        1.0  0.16362  0.25367  0.21890  1.0000
  O   O5        1.0  0.29572  0.52127  0.76717  1.0000
  O   O6        1.0  0.58490  0.97842  0.73273  1.0000
  O   O7        1.0  0.70428  0.47873  0.23283  1.0000
  O   O8        1.0  0.41509  0.02158  0.26727  1.0000
  O   O9        1.0  0.64812  0.81379  0.48720  1.0000
  O   O10       1.0  0.94890  0.68616  0.01283  1.0000
  O   O11       1.0  0.35188  0.18621  0.51280  1.0000
  O   O12       1.0  0.05110  0.31384  0.98717  1.0000
  O   O13       1.0  0.85997  0.59515  0.41960  1.0000
  O   O14       1.0  0.87425  0.90480  0.08050  1.0000
  O   O15       1.0  0.14003  0.40485  0.58040  1.0000
  O   O16       1.0  0.12576  0.09520  0.91950  1.0000
  O   O17       1.0  0.73952  0.09140  0.57814  1.0000
  O   O18       1.0  0.40936  0.40847  0.92182  1.0000
  O   O19       1.0  0.26049  0.90860  0.42185  1.0000
  O   O20       1.0  0.59065  0.59154  0.07818  1.0000
  O   O21       1.0  0.87992  0.71418  0.63749  1.0000
  O   O22       1.0  0.23204  0.78560  0.86249  1.0000
  O   O23       1.0  0.12008  0.28582  0.36251  1.0000
  O   O24       1.0  0.76796  0.21439  0.13751  1.0000
  O   O25       1.0  0.17939  0.92502  0.56730  1.0000
  O   O26       1.0  0.67185  0.57495  0.93273  1.0000
  O   O27       1.0  0.82061  0.07497  0.43270  1.0000
  O   O28       1.0  0.32815  0.42504  0.06727  1.0000
  O   O29       1.0  0.16174  0.14830  0.67766  1.0000
  O   O30       1.0  0.98742  0.35172  0.82233  1.0000
  O   O31       1.0  0.83825  0.85170  0.32234  1.0000
  O   O32       1.0  0.01257  0.64828  0.17767  1.0000
