data_image0
_chemical_formula_structural       Ag2H14C32N8O8
_chemical_formula_sum              "Ag2 H14 C32 N8 O8"
_cell_length_a       7.55523
_cell_length_b       9.56377
_cell_length_c       10.4549
_cell_angle_alpha    117.477
_cell_angle_beta     98.6832
_cell_angle_gamma    91.0521

_space_group_name_H-M_alt    "P 1"
_space_group_IT_number       1

loop_
  _space_group_symop_operation_xyz
  'x, y, z'

loop_
  _atom_site_type_symbol
  _atom_site_label
  _atom_site_symmetry_multiplicity
  _atom_site_fract_x
  _atom_site_fract_y
  _atom_site_fract_z
  _atom_site_occupancy
  Ag  Ag1       1.0  0.45522  0.29251  0.61336  1.0000
  Ag  Ag2       1.0  0.54478  0.70749  0.38664  1.0000
  H   H1        1.0  0.95398  0.84922  0.62361  1.0000
  H   H2        1.0  0.04602  0.15078  0.37639  1.0000
  H   H3        1.0  0.57751  0.61884  0.62366  1.0000
  H   H4        1.0  0.42249  0.38115  0.37633  1.0000
  H   H5        1.0  0.76620  0.87284  0.78779  1.0000
  H   H6        1.0  0.23380  0.12715  0.21221  1.0000
  H   H7        1.0  0.92127  0.91828  0.03931  1.0000
  H   H8        1.0  0.07873  0.08172  0.96069  1.0000
  H   H9        1.0  0.81019  0.32617  0.21524  1.0000
  H   H10       1.0  0.18981  0.67383  0.78476  1.0000
  H   H11       1.0  0.61981  0.07818  0.02869  1.0000
  H   H12       1.0  0.38020  0.92181  0.97132  1.0000
  H   H13       1.0  0.47470  0.06271  0.78684  1.0000
  H   H14       1.0  0.52531  0.93729  0.21316  1.0000
  C   C1        1.0  0.64659  0.64117  0.73133  1.0000
  C   C2        1.0  0.35341  0.35882  0.26866  1.0000
  C   C3        1.0  0.75284  0.78451  0.82494  1.0000
  C   C4        1.0  0.24716  0.21548  0.17506  1.0000
  C   C5        1.0  0.83778  0.80907  0.96139  1.0000
  C   C6        1.0  0.16222  0.19092  0.03861  1.0000
  C   C7        1.0  0.81633  0.68927  0.00179  1.0000
  C   C8        1.0  0.18367  0.31073  0.99821  1.0000
  C   C9        1.0  0.70554  0.54829  0.90125  1.0000
  C   C10       1.0  0.29446  0.45170  0.09875  1.0000
  C   C11       1.0  0.68257  0.42051  0.93925  1.0000
  C   C12       1.0  0.31743  0.57949  0.06075  1.0000
  C   C13       1.0  0.76969  0.43869  0.07645  1.0000
  C   C14       1.0  0.23031  0.56131  0.92355  1.0000
  C   C15       1.0  0.74607  0.31353  0.10954  1.0000
  C   C16       1.0  0.25393  0.68647  0.89046  1.0000
  C   C17       1.0  0.64018  0.17713  0.00632  1.0000
  C   C18       1.0  0.35982  0.82287  0.99368  1.0000
  C   C19       1.0  0.55896  0.16787  0.87237  1.0000
  C   C20       1.0  0.44105  0.83213  0.12763  1.0000
  C   C21       1.0  0.90781  0.70601  0.14145  1.0000
  C   C22       1.0  0.09218  0.29399  0.85855  1.0000
  C   C23       1.0  0.88274  0.58295  0.17860  1.0000
  C   C24       1.0  0.11725  0.41705  0.82140  1.0000
  C   C25       1.0  0.10191  0.84905  0.35971  1.0000
  C   C26       1.0  0.89809  0.15095  0.64030  1.0000
  C   C27       1.0  0.07220  0.72725  0.39849  1.0000
  C   C28       1.0  0.92780  0.27274  0.60151  1.0000
  C   C29       1.0  0.23317  0.99157  0.46224  1.0000
  C   C30       1.0  0.76683  0.00843  0.53776  1.0000
  C   C31       1.0  0.15688  0.73525  0.54310  1.0000
  C   C32       1.0  0.84310  0.26476  0.45690  1.0000
  N   N1        1.0  0.62168  0.52711  0.76857  1.0000
  N   N2        1.0  0.37832  0.47289  0.23143  1.0000
  N   N3        1.0  0.57934  0.28621  0.84012  1.0000
  N   N4        1.0  0.42066  0.71379  0.15988  1.0000
  N   N5        1.0  0.01871  0.83795  0.23344  1.0000
  N   N6        1.0  0.98129  0.16205  0.76656  1.0000
  N   N7        1.0  0.96465  0.59619  0.30828  1.0000
  N   N8        1.0  0.03535  0.40381  0.69172  1.0000
  O   O1        1.0  0.33452  0.98215  0.56317  1.0000
  O   O2        1.0  0.66547  0.01786  0.43684  1.0000
  O   O3        1.0  0.23209  0.11396  0.43971  1.0000
  O   O4        1.0  0.76791  0.88604  0.56028  1.0000
  O   O5        1.0  0.28953  0.66660  0.55362  1.0000
  O   O6        1.0  0.71049  0.33339  0.44639  1.0000
  O   O7        1.0  0.07009  0.80953  0.65409  1.0000
  O   O8        1.0  0.92991  0.19048  0.34591  1.0000
