data_image0
_chemical_formula_structural       Na2H16C12N10O4
_chemical_formula_sum              "Na2 H16 C12 N10 O4"
_cell_length_a       6.63964
_cell_length_b       8.3222
_cell_length_c       8.32222
_cell_angle_alpha    91.545
_cell_angle_beta     106.866
_cell_angle_gamma    106.866

_space_group_name_H-M_alt    "P 1"
_space_group_IT_number       1

loop_
  _space_group_symop_operation_xyz
  'x, y, z'

loop_
  _atom_site_type_symbol
  _atom_site_label
  _atom_site_symmetry_multiplicity
  _atom_site_fract_x
  _atom_site_fract_y
  _atom_site_fract_z
  _atom_site_occupancy
  Na  Na1       1.0  1.00000  0.00000  1.00000  1.0000
  Na  Na2       1.0  0.50000  0.00000  0.00000  1.0000
  H   H1        1.0  0.97906  0.30967  0.15595  1.0000
  H   H2        1.0  0.52094  0.84405  0.69034  1.0000
  H   H3        1.0  0.02094  0.69034  0.84405  1.0000
  H   H4        1.0  0.47906  0.15595  0.30967  1.0000
  H   H5        1.0  0.84452  0.29005  0.96248  1.0000
  H   H6        1.0  0.65548  0.03752  0.70996  1.0000
  H   H7        1.0  0.15548  0.70996  0.03752  1.0000
  H   H8        1.0  0.34452  0.96248  0.29005  1.0000
  H   H9        1.0  0.80915  0.01217  0.36753  1.0000
  H   H10       1.0  0.69085  0.63247  0.98784  1.0000
  H   H11       1.0  0.19085  0.98783  0.63246  1.0000
  H   H12       1.0  0.30916  0.36753  0.01217  1.0000
  H   H13       1.0  0.81181  0.81212  0.58408  1.0000
  H   H14       1.0  0.68819  0.41592  0.18788  1.0000
  H   H15       1.0  0.18819  0.18788  0.41592  1.0000
  H   H16       1.0  0.31181  0.58408  0.81212  1.0000
  C   C1        1.0  0.75000  0.59616  0.40384  1.0000
  C   C2        1.0  0.24999  0.40384  0.59616  1.0000
  C   C3        1.0  0.78475  0.87891  0.33234  1.0000
  C   C4        1.0  0.71526  0.66766  0.12109  1.0000
  C   C5        1.0  0.21525  0.12108  0.66766  1.0000
  C   C6        1.0  0.28475  0.33233  0.87891  1.0000
  C   C7        1.0  0.75000  0.47395  0.52605  1.0000
  C   C8        1.0  0.25000  0.52605  0.47395  1.0000
  C   C9        1.0  0.78720  0.76731  0.45357  1.0000
  C   C10       1.0  0.71281  0.54643  0.23269  1.0000
  C   C11       1.0  0.21279  0.23269  0.54643  1.0000
  C   C12       1.0  0.28720  0.45357  0.76731  1.0000
  N   N1        1.0  0.81710  0.51444  0.69554  1.0000
  N   N2        1.0  0.68290  0.30446  0.48556  1.0000
  N   N3        1.0  0.18290  0.48556  0.30446  1.0000
  N   N4        1.0  0.31710  0.69554  0.51444  1.0000
  N   N5        1.0  0.75000  0.83219  0.16781  1.0000
  N   N6        1.0  0.25000  0.16781  0.83219  1.0000
  N   N7        1.0  0.79000  0.36638  0.75890  1.0000
  N   N8        1.0  0.71000  0.24110  0.63362  1.0000
  N   N9        1.0  0.21000  0.63362  0.24110  1.0000
  N   N10       1.0  0.29000  0.75890  0.36638  1.0000
  O   O1        1.0  0.86443  0.22540  0.06228  1.0000
  O   O2        1.0  0.63557  0.93773  0.77460  1.0000
  O   O3        1.0  0.13557  0.77460  0.93773  1.0000
  O   O4        1.0  0.36443  0.06228  0.22540  1.0000
