data_image0
_chemical_formula_structural       Cd4H40C40N16O20
_chemical_formula_sum              "Cd4 H40 C40 N16 O20"
_cell_length_a       7.9894
_cell_length_b       10.6808
_cell_length_c       14.8034
_cell_angle_alpha    93.2924
_cell_angle_beta     90
_cell_angle_gamma    90

_space_group_name_H-M_alt    "P 1"
_space_group_IT_number       1

loop_
  _space_group_symop_operation_xyz
  'x, y, z'

loop_
  _atom_site_type_symbol
  _atom_site_label
  _atom_site_symmetry_multiplicity
  _atom_site_fract_x
  _atom_site_fract_y
  _atom_site_fract_z
  _atom_site_occupancy
  Cd  Cd1       1.0  0.00620  0.09561  0.62353  1.0000
  Cd  Cd2       1.0  0.50620  0.40439  0.37647  1.0000
  Cd  Cd3       1.0  0.99380  0.90439  0.37648  1.0000
  Cd  Cd4       1.0  0.49380  0.59561  0.62352  1.0000
  H   H1        1.0  0.71816  0.91815  0.67487  1.0000
  H   H2        1.0  0.21816  0.58185  0.32513  1.0000
  H   H3        1.0  0.28184  0.08185  0.32513  1.0000
  H   H4        1.0  0.78184  0.41815  0.67487  1.0000
  H   H5        1.0  0.21688  0.66509  0.46095  1.0000
  H   H6        1.0  0.71688  0.83491  0.53905  1.0000
  H   H7        1.0  0.78312  0.33492  0.53905  1.0000
  H   H8        1.0  0.28312  0.16509  0.46095  1.0000
  H   H9        1.0  0.24472  0.86080  0.71514  1.0000
  H   H10       1.0  0.74472  0.63921  0.28486  1.0000
  H   H11       1.0  0.75528  0.13921  0.28486  1.0000
  H   H12       1.0  0.25528  0.36080  0.71514  1.0000
  H   H13       1.0  0.67634  0.43053  0.81506  1.0000
  H   H14       1.0  0.17634  0.06947  0.18494  1.0000
  H   H15       1.0  0.32365  0.56947  0.18494  1.0000
  H   H16       1.0  0.82366  0.93053  0.81506  1.0000
  H   H17       1.0  0.62406  0.54517  0.96300  1.0000
  H   H18       1.0  0.12406  0.95483  0.03700  1.0000
  H   H19       1.0  0.37594  0.45483  0.03700  1.0000
  H   H20       1.0  0.87594  0.04517  0.96300  1.0000
  H   H21       1.0  0.99355  0.31996  0.08953  1.0000
  H   H22       1.0  0.49355  0.18003  0.91047  1.0000
  H   H23       1.0  0.00645  0.68004  0.91047  1.0000
  H   H24       1.0  0.50645  0.81996  0.08953  1.0000
  H   H25       1.0  0.05251  0.20798  0.93903  1.0000
  H   H26       1.0  0.55251  0.29202  0.06097  1.0000
  H   H27       1.0  0.94749  0.79202  0.06097  1.0000
  H   H28       1.0  0.44749  0.70798  0.93903  1.0000
  H   H29       1.0  0.55361  0.11276  0.69799  1.0000
  H   H30       1.0  0.05361  0.38724  0.30201  1.0000
  H   H31       1.0  0.44639  0.88724  0.30201  1.0000
  H   H32       1.0  0.94639  0.61276  0.69799  1.0000
  H   H33       1.0  0.48070  0.99562  0.61603  1.0000
  H   H34       1.0  0.98070  0.50438  0.38397  1.0000
  H   H35       1.0  0.51930  0.00438  0.38397  1.0000
  H   H36       1.0  0.01930  0.49563  0.61603  1.0000
  H   H37       1.0  0.59641  0.12744  0.58067  1.0000
  H   H38       1.0  0.09641  0.37256  0.41933  1.0000
  H   H39       1.0  0.40359  0.87256  0.41933  1.0000
  H   H40       1.0  0.90359  0.62745  0.58067  1.0000
  C   C1        1.0  0.19998  0.73550  0.51619  1.0000
  C   C2        1.0  0.69998  0.76450  0.48381  1.0000
  C   C3        1.0  0.80002  0.26450  0.48381  1.0000
  C   C4        1.0  0.30002  0.23550  0.51619  1.0000
  C   C5        1.0  0.21480  0.83357  0.64525  1.0000
  C   C6        1.0  0.71480  0.66643  0.35475  1.0000
  C   C7        1.0  0.78520  0.16643  0.35475  1.0000
  C   C8        1.0  0.28520  0.33357  0.64525  1.0000
  C   C9        1.0  0.90528  0.24108  0.77924  1.0000
  C   C10       1.0  0.40528  0.25892  0.22076  1.0000
  C   C11       1.0  0.09472  0.75892  0.22076  1.0000
  C   C12       1.0  0.59472  0.74108  0.77924  1.0000
  C   C13       1.0  0.86788  0.31067  0.86815  1.0000
  C   C14       1.0  0.36789  0.18933  0.13185  1.0000
  C   C15       1.0  0.13212  0.68933  0.13185  1.0000
  C   C16       1.0  0.63212  0.81067  0.86815  1.0000
  C   C17       1.0  0.74665  0.40580  0.87445  1.0000
  C   C18       1.0  0.24665  0.09420  0.12555  1.0000
  C   C19       1.0  0.25335  0.59420  0.12555  1.0000
  C   C20       1.0  0.75335  0.90580  0.87445  1.0000
  C   C21       1.0  0.71566  0.47009  0.95712  1.0000
  C   C22       1.0  0.21567  0.02991  0.04288  1.0000
  C   C23       1.0  0.28433  0.52991  0.04288  1.0000
  C   C24       1.0  0.78433  0.97009  0.95712  1.0000
  C   C25       1.0  0.80571  0.43753  0.03311  1.0000
  C   C26       1.0  0.30571  0.06247  0.96690  1.0000
  C   C27       1.0  0.19429  0.56247  0.96689  1.0000
  C   C28       1.0  0.69429  0.93753  0.03311  1.0000
  C   C29       1.0  0.92632  0.34294  0.02886  1.0000
  C   C30       1.0  0.42632  0.15706  0.97114  1.0000
  C   C31       1.0  0.07368  0.65706  0.97114  1.0000
  C   C32       1.0  0.57368  0.84294  0.02886  1.0000
  C   C33       1.0  0.95695  0.28039  0.94559  1.0000
  C   C34       1.0  0.45695  0.21961  0.05441  1.0000
  C   C35       1.0  0.04305  0.71961  0.05441  1.0000
  C   C36       1.0  0.54305  0.78039  0.94559  1.0000
  C   C37       1.0  0.58349  0.06090  0.63379  1.0000
  C   C38       1.0  0.08350  0.43910  0.36621  1.0000
  C   C39       1.0  0.41650  0.93910  0.36621  1.0000
  C   C40       1.0  0.91651  0.56090  0.63379  1.0000
  N   N1        1.0  0.11971  0.90316  0.59339  1.0000
  N   N2        1.0  0.61971  0.59685  0.40661  1.0000
  N   N3        1.0  0.88030  0.09685  0.40661  1.0000
  N   N4        1.0  0.38029  0.40315  0.59339  1.0000
  N   N5        1.0  0.10993  0.83968  0.51003  1.0000
  N   N6        1.0  0.60993  0.66032  0.48997  1.0000
  N   N7        1.0  0.89008  0.16033  0.48997  1.0000
  N   N8        1.0  0.39007  0.33967  0.51003  1.0000
  N   N9        1.0  0.26818  0.72778  0.59951  1.0000
  N   N10       1.0  0.76818  0.77222  0.40049  1.0000
  N   N11       1.0  0.73182  0.27222  0.40049  1.0000
  N   N12       1.0  0.23182  0.22778  0.59951  1.0000
  N   N13       1.0  0.77526  0.50674  0.11993  1.0000
  N   N14       1.0  0.27526  0.99326  0.88007  1.0000
  N   N15       1.0  0.22474  0.49326  0.88007  1.0000
  N   N16       1.0  0.72474  0.00673  0.11993  1.0000
  O   O1        1.0  0.99723  0.14362  0.78018  1.0000
  O   O2        1.0  0.49724  0.35638  0.21982  1.0000
  O   O3        1.0  0.00276  0.85638  0.21982  1.0000
  O   O4        1.0  0.50276  0.64362  0.78018  1.0000
  O   O5        1.0  0.84484  0.28099  0.70657  1.0000
  O   O6        1.0  0.34483  0.21901  0.29343  1.0000
  O   O7        1.0  0.15517  0.71901  0.29343  1.0000
  O   O8        1.0  0.65517  0.78099  0.70657  1.0000
  O   O9        1.0  0.67011  0.59266  0.12230  1.0000
  O   O10       1.0  0.17011  0.90734  0.87770  1.0000
  O   O11       1.0  0.32989  0.40734  0.87770  1.0000
  O   O12       1.0  0.82989  0.09266  0.12230  1.0000
  O   O13       1.0  0.85800  0.47735  0.18643  1.0000
  O   O14       1.0  0.35800  0.02265  0.81357  1.0000
  O   O15       1.0  0.14200  0.52265  0.81357  1.0000
  O   O16       1.0  0.64200  0.97735  0.18643  1.0000
  O   O17       1.0  0.73872  0.99376  0.63929  1.0000
  O   O18       1.0  0.23872  0.50624  0.36071  1.0000
  O   O19       1.0  0.26128  0.00624  0.36071  1.0000
  O   O20       1.0  0.76129  0.49376  0.63929  1.0000
