data_image0
_chemical_formula_structural       Cu2Ni2H32C38N20O4
_chemical_formula_sum              "Cu2 Ni2 H32 C38 N20 O4"
_cell_length_a       9.38755
_cell_length_b       9.86935
_cell_length_c       11.9787
_cell_angle_alpha    74.3564
_cell_angle_beta     76.2361
_cell_angle_gamma    83.5583

_space_group_name_H-M_alt    "P 1"
_space_group_IT_number       1

loop_
  _space_group_symop_operation_xyz
  'x, y, z'

loop_
  _atom_site_type_symbol
  _atom_site_label
  _atom_site_symmetry_multiplicity
  _atom_site_fract_x
  _atom_site_fract_y
  _atom_site_fract_z
  _atom_site_occupancy
  Cu  Cu1       1.0  0.96000  0.65858  0.98822  1.0000
  Cu  Cu2       1.0  0.04000  0.34142  0.01178  1.0000
  Ni  Ni1       1.0  0.15917  0.86471  0.28230  1.0000
  Ni  Ni2       1.0  0.84082  0.13528  0.71770  1.0000
  H   H1        1.0  0.23289  0.95052  0.87183  1.0000
  H   H2        1.0  0.76711  0.04947  0.12817  1.0000
  H   H3        1.0  0.38952  0.12473  0.72642  1.0000
  H   H4        1.0  0.61048  0.87527  0.27358  1.0000
  H   H5        1.0  0.51600  0.29490  0.79064  1.0000
  H   H6        1.0  0.48401  0.70510  0.20936  1.0000
  H   H7        1.0  0.47595  0.28148  0.00418  1.0000
  H   H8        1.0  0.52405  0.71852  0.99582  1.0000
  H   H9        1.0  0.36562  0.20185  0.19410  1.0000
  H   H10       1.0  0.63438  0.79815  0.80590  1.0000
  H   H11       1.0  0.14433  0.04395  0.44045  1.0000
  H   H12       1.0  0.85567  0.95605  0.55955  1.0000
  H   H13       1.0  0.29664  0.15160  0.37720  1.0000
  H   H14       1.0  0.70336  0.84841  0.62279  1.0000
  H   H15       1.0  0.46878  0.95541  0.42966  1.0000
  H   H16       1.0  0.53122  0.04460  0.57033  1.0000
  H   H17       1.0  0.31992  0.94572  0.55549  1.0000
  H   H18       1.0  0.68009  0.05428  0.44451  1.0000
  H   H19       1.0  0.40829  0.75438  0.38894  1.0000
  H   H20       1.0  0.59171  0.24563  0.61106  1.0000
  H   H21       1.0  0.33696  0.71059  0.54462  1.0000
  H   H22       1.0  0.66304  0.28941  0.45538  1.0000
  H   H23       1.0  0.12015  0.65063  0.60626  1.0000
  H   H24       1.0  0.87986  0.34938  0.39374  1.0000
  H   H25       1.0  0.88259  0.58912  0.70057  1.0000
  H   H26       1.0  0.11741  0.41089  0.29942  1.0000
  H   H27       1.0  0.63643  0.52336  0.69755  1.0000
  H   H28       1.0  0.36357  0.47663  0.30246  1.0000
  H   H29       1.0  0.56665  0.56337  0.50027  1.0000
  H   H30       1.0  0.43335  0.43662  0.49974  1.0000
  H   H31       1.0  0.74439  0.65194  0.31383  1.0000
  H   H32       1.0  0.25562  0.34804  0.68617  1.0000
  C   C1        1.0  0.00645  0.72384  0.18912  1.0000
  C   C2        1.0  0.99354  0.27616  0.81088  1.0000
  C   C3        1.0  0.09791  0.82162  0.08519  1.0000
  C   C4        1.0  0.90209  0.17839  0.91481  1.0000
  C   C5        1.0  0.26377  0.00918  0.02581  1.0000
  C   C6        1.0  0.73623  0.99082  0.97419  1.0000
  C   C7        1.0  0.28646  0.02058  0.90275  1.0000
  C   C8        1.0  0.71354  0.97942  0.09725  1.0000
  C   C9        1.0  0.37623  0.12104  0.82010  1.0000
  C   C10       1.0  0.62377  0.87896  0.17990  1.0000
  C   C11       1.0  0.44581  0.21568  0.85486  1.0000
  C   C12       1.0  0.55419  0.78432  0.14514  1.0000
  C   C13       1.0  0.42388  0.20761  0.97499  1.0000
  C   C14       1.0  0.57612  0.79238  0.02501  1.0000
  C   C15       1.0  0.33540  0.10568  0.06091  1.0000
  C   C16       1.0  0.66461  0.89432  0.93909  1.0000
  C   C17       1.0  0.32151  0.10962  0.18209  1.0000
  C   C18       1.0  0.67849  0.89037  0.81791  1.0000
  C   C19       1.0  0.25938  0.04550  0.39155  1.0000
  C   C20       1.0  0.74062  0.95450  0.60846  1.0000
  C   C21       1.0  0.35172  0.93565  0.46369  1.0000
  C   C22       1.0  0.64828  0.06435  0.53631  1.0000
  C   C23       1.0  0.32632  0.78642  0.46058  1.0000
  C   C24       1.0  0.67368  0.21358  0.53942  1.0000
  C   C25       1.0  0.08929  0.69800  0.52079  1.0000
  C   C26       1.0  0.91071  0.30200  0.47922  1.0000
  C   C27       1.0  0.94854  0.66469  0.51080  1.0000
  C   C28       1.0  0.05147  0.33531  0.48920  1.0000
  C   C29       1.0  0.84967  0.60393  0.61650  1.0000
  C   C30       1.0  0.15033  0.39607  0.38350  1.0000
  C   C31       1.0  0.71179  0.56802  0.61434  1.0000
  C   C32       1.0  0.28821  0.43198  0.38567  1.0000
  C   C33       1.0  0.67456  0.58980  0.50426  1.0000
  C   C34       1.0  0.32544  0.41020  0.49575  1.0000
  C   C35       1.0  0.77330  0.64248  0.39823  1.0000
  C   C36       1.0  0.22670  0.35751  0.60177  1.0000
  C   C37       1.0  0.91251  0.68270  0.39892  1.0000
  C   C38       1.0  0.08749  0.31730  0.60109  1.0000
  N   N1        1.0  0.17440  0.91018  0.11261  1.0000
  N   N2        1.0  0.82559  0.08983  0.88739  1.0000
  N   N3        1.0  0.26398  0.01664  0.27680  1.0000
  N   N4        1.0  0.73602  0.98336  0.72320  1.0000
  N   N5        1.0  0.18186  0.77675  0.43726  1.0000
  N   N6        1.0  0.81814  0.22325  0.56274  1.0000
  N   N7        1.0  0.01266  0.74045  0.29496  1.0000
  N   N8        1.0  0.98734  0.25955  0.70504  1.0000
  N   N9        1.0  0.17301  0.49409  0.97753  1.0000
  N   N10       1.0  0.82698  0.50592  0.02247  1.0000
  N   N11       1.0  0.25005  0.50496  0.04176  1.0000
  N   N12       1.0  0.74994  0.49504  0.95824  1.0000
  N   N13       1.0  0.32702  0.52181  0.10006  1.0000
  N   N14       1.0  0.67297  0.47820  0.89993  1.0000
  N   N15       1.0  0.96288  0.72058  0.81858  1.0000
  N   N16       1.0  0.03712  0.27942  0.18142  1.0000
  N   N17       1.0  0.02745  0.82368  0.75936  1.0000
  N   N18       1.0  0.97255  0.17633  0.24064  1.0000
  N   N19       1.0  0.08516  0.92461  0.69657  1.0000
  N   N20       1.0  0.91484  0.07539  0.30343  1.0000
  O   O1        1.0  0.93121  0.63948  0.16706  1.0000
  O   O2        1.0  0.06879  0.36053  0.83294  1.0000
  O   O3        1.0  0.08884  0.81192  0.98341  1.0000
  O   O4        1.0  0.91116  0.18809  0.01658  1.0000
