data_image0
_chemical_formula_structural       Zn2H36C42N4O12
_chemical_formula_sum              "Zn2 H36 C42 N4 O12"
_cell_length_a       8.12307
_cell_length_b       10.5885
_cell_length_c       11.9868
_cell_angle_alpha    92.6256
_cell_angle_beta     107.946
_cell_angle_gamma    88.1246

_space_group_name_H-M_alt    "P 1"
_space_group_IT_number       1

loop_
  _space_group_symop_operation_xyz
  'x, y, z'

loop_
  _atom_site_type_symbol
  _atom_site_label
  _atom_site_symmetry_multiplicity
  _atom_site_fract_x
  _atom_site_fract_y
  _atom_site_fract_z
  _atom_site_occupancy
  Zn  Zn1       1.0  0.95356  0.23784  0.23908  1.0000
  Zn  Zn2       1.0  0.04644  0.76216  0.76092  1.0000
  H   H1        1.0  0.26226  0.67740  0.30875  1.0000
  H   H2        1.0  0.73774  0.32259  0.69124  1.0000
  H   H3        1.0  0.59008  0.72078  0.66991  1.0000
  H   H4        1.0  0.40992  0.27922  0.33009  1.0000
  H   H5        1.0  0.20106  0.43277  0.56830  1.0000
  H   H6        1.0  0.79894  0.56723  0.43170  1.0000
  H   H7        1.0  0.75050  0.80318  0.57117  1.0000
  H   H8        1.0  0.24950  0.19682  0.42883  1.0000
  H   H9        1.0  0.60464  0.92365  0.59406  1.0000
  H   H10       1.0  0.39536  0.07635  0.40594  1.0000
  H   H11       1.0  0.61060  0.86171  0.29047  1.0000
  H   H12       1.0  0.38940  0.13830  0.70953  1.0000
  H   H13       1.0  0.74556  0.00602  0.18571  1.0000
  H   H14       1.0  0.25444  0.99398  0.81429  1.0000
  H   H15       1.0  0.94576  0.23021  0.48612  1.0000
  H   H16       1.0  0.05424  0.76979  0.51388  1.0000
  H   H17       1.0  0.84219  0.08454  0.60800  1.0000
  H   H18       1.0  0.15782  0.91546  0.39201  1.0000
  H   H19       1.0  0.38905  0.35504  0.70779  1.0000
  H   H20       1.0  0.61094  0.64497  0.29221  1.0000
  H   H21       1.0  0.26986  0.44431  0.78844  1.0000
  H   H22       1.0  0.73014  0.55570  0.21156  1.0000
  H   H23       1.0  0.75548  0.45556  0.85409  1.0000
  H   H24       1.0  0.24452  0.54445  0.14590  1.0000
  H   H25       1.0  0.95959  0.37071  0.03659  1.0000
  H   H26       1.0  0.04040  0.62929  0.96340  1.0000
  H   H27       1.0  0.56015  0.22217  0.13376  1.0000
  H   H28       1.0  0.43985  0.77784  0.86624  1.0000
  H   H29       1.0  0.33823  0.29689  0.95400  1.0000
  H   H30       1.0  0.66178  0.70311  0.04600  1.0000
  H   H31       1.0  0.23821  0.02048  0.01048  1.0000
  H   H32       1.0  0.76179  0.97953  0.98952  1.0000
  H   H33       1.0  0.30113  0.90484  0.11927  1.0000
  H   H34       1.0  0.69888  0.09516  0.88073  1.0000
  H   H35       1.0  0.40416  0.05596  0.14520  1.0000
  H   H36       1.0  0.59584  0.94405  0.85480  1.0000
  C   C1        1.0  0.09281  0.47150  0.33581  1.0000
  C   C2        1.0  0.90718  0.52850  0.66418  1.0000
  C   C3        1.0  0.22012  0.54783  0.43047  1.0000
  C   C4        1.0  0.77988  0.45217  0.56953  1.0000
  C   C5        1.0  0.30027  0.64871  0.39937  1.0000
  C   C6        1.0  0.69973  0.35129  0.60063  1.0000
  C   C7        1.0  0.43347  0.71071  0.48532  1.0000
  C   C8        1.0  0.56653  0.28929  0.51468  1.0000
  C   C9        1.0  0.48409  0.67592  0.60192  1.0000
  C   C10       1.0  0.51591  0.32408  0.39808  1.0000
  C   C11       1.0  0.39975  0.57470  0.63134  1.0000
  C   C12       1.0  0.60024  0.42530  0.36866  1.0000
  C   C13       1.0  0.26739  0.51130  0.54725  1.0000
  C   C14       1.0  0.73261  0.48870  0.45275  1.0000
  C   C15       1.0  0.64845  0.87141  0.52628  1.0000
  C   C16       1.0  0.35155  0.12858  0.47372  1.0000
  C   C17       1.0  0.71770  0.96023  0.45861  1.0000
  C   C18       1.0  0.28230  0.03977  0.54139  1.0000
  C   C19       1.0  0.68815  0.94026  0.33779  1.0000
  C   C20       1.0  0.31185  0.05974  0.66221  1.0000
  C   C21       1.0  0.75795  0.02198  0.27825  1.0000
  C   C22       1.0  0.24205  0.97802  0.72176  1.0000
  C   C23       1.0  0.87519  0.14506  0.44763  1.0000
  C   C24       1.0  0.12481  0.85493  0.55237  1.0000
  C   C25       1.0  0.81493  0.06453  0.51411  1.0000
  C   C26       1.0  0.18507  0.93546  0.48589  1.0000
  C   C27       1.0  0.39944  0.42848  0.77808  1.0000
  C   C28       1.0  0.60056  0.57152  0.22192  1.0000
  C   C29       1.0  0.52839  0.38285  0.88848  1.0000
  C   C30       1.0  0.47160  0.61715  0.11152  1.0000
  C   C31       1.0  0.70574  0.40354  0.91283  1.0000
  C   C32       1.0  0.29426  0.59646  0.08717  1.0000
  C   C33       1.0  0.82087  0.35651  0.01418  1.0000
  C   C34       1.0  0.17913  0.64349  0.98582  1.0000
  C   C35       1.0  0.59805  0.27196  0.06832  1.0000
  C   C36       1.0  0.40196  0.72805  0.93168  1.0000
  C   C37       1.0  0.47479  0.31453  0.96789  1.0000
  C   C38       1.0  0.52521  0.68548  0.03211  1.0000
  C   C39       1.0  0.14090  0.05897  0.15348  1.0000
  C   C40       1.0  0.85910  0.94103  0.84652  1.0000
  C   C41       1.0  0.28237  0.00660  0.10557  1.0000
  C   C42       1.0  0.71764  0.99340  0.89443  1.0000
  N   N1        1.0  0.84916  0.12365  0.33177  1.0000
  N   N2        1.0  0.15084  0.87635  0.66823  1.0000
  N   N3        1.0  0.76822  0.29252  0.09157  1.0000
  N   N4        1.0  0.23179  0.70749  0.90843  1.0000
  O   O1        1.0  0.03258  0.51151  0.23435  1.0000
  O   O2        1.0  0.96741  0.48849  0.76565  1.0000
  O   O3        1.0  0.05790  0.36196  0.36763  1.0000
  O   O4        1.0  0.94210  0.63804  0.63236  1.0000
  O   O5        1.0  0.50840  0.80561  0.44464  1.0000
  O   O6        1.0  0.49161  0.19438  0.55536  1.0000
  O   O7        1.0  0.46172  0.54222  0.74654  1.0000
  O   O8        1.0  0.53827  0.45779  0.25346  1.0000
  O   O9        1.0  0.15403  0.17805  0.18834  1.0000
  O   O10       1.0  0.84597  0.82195  0.81166  1.0000
  O   O11       1.0  0.01987  0.99060  0.15623  1.0000
  O   O12       1.0  0.98014  0.00940  0.84378  1.0000
