data_image0
_chemical_formula_structural       Cu4H32C38N20O4
_chemical_formula_sum              "Cu4 H32 C38 N20 O4"
_cell_length_a       9.42981
_cell_length_b       9.85501
_cell_length_c       11.9139
_cell_angle_alpha    74.1012
_cell_angle_beta     75.5463
_cell_angle_gamma    83.0921

_space_group_name_H-M_alt    "P 1"
_space_group_IT_number       1

loop_
  _space_group_symop_operation_xyz
  'x, y, z'

loop_
  _atom_site_type_symbol
  _atom_site_label
  _atom_site_symmetry_multiplicity
  _atom_site_fract_x
  _atom_site_fract_y
  _atom_site_fract_z
  _atom_site_occupancy
  Cu  Cu1       1.0  0.35177  0.62585  0.21457  1.0000
  Cu  Cu2       1.0  0.64823  0.37414  0.78543  1.0000
  Cu  Cu3       1.0  0.53720  0.84071  0.51429  1.0000
  Cu  Cu4       1.0  0.46279  0.15931  0.48570  1.0000
  H   H1        1.0  0.76177  0.84606  0.18296  1.0000
  H   H2        1.0  0.23824  0.15393  0.81704  1.0000
  H   H3        1.0  0.94052  0.93548  0.99379  1.0000
  H   H4        1.0  0.05949  0.06450  0.00622  1.0000
  H   H5        1.0  0.86969  0.98127  0.79582  1.0000
  H   H6        1.0  0.13033  0.01870  0.20418  1.0000
  H   H7        1.0  0.62398  0.91894  0.79441  1.0000
  H   H8        1.0  0.37605  0.08103  0.20559  1.0000
  H   H9        1.0  0.39560  0.85331  0.88219  1.0000
  H   H10       1.0  0.60442  0.14668  0.11780  1.0000
  H   H11       1.0  0.17311  0.78863  0.94146  1.0000
  H   H12       1.0  0.82691  0.21137  0.05853  1.0000
  H   H13       1.0  0.09847  0.75208  0.09813  1.0000
  H   H14       1.0  0.90153  0.24793  0.90186  1.0000
  H   H15       1.0  0.18955  0.55063  0.93899  1.0000
  H   H16       1.0  0.81045  0.44937  0.06101  1.0000
  H   H17       1.0  0.03518  0.55275  0.06015  1.0000
  H   H18       1.0  0.96482  0.44726  0.93984  1.0000
  H   H19       1.0  0.18941  0.34621  0.12235  1.0000
  H   H20       1.0  0.81058  0.65379  0.87766  1.0000
  H   H21       1.0  0.35085  0.44174  0.06106  1.0000
  H   H22       1.0  0.64914  0.55824  0.93895  1.0000
  H   H23       1.0  0.12608  0.29358  0.31359  1.0000
  H   H24       1.0  0.87390  0.70643  0.68642  1.0000
  H   H25       1.0  0.02354  0.21668  0.50228  1.0000
  H   H26       1.0  0.97645  0.78334  0.49772  1.0000
  H   H27       1.0  0.97990  0.20506  0.71685  1.0000
  H   H28       1.0  0.02009  0.79495  0.28315  1.0000
  H   H29       1.0  0.10233  0.37661  0.78088  1.0000
  H   H30       1.0  0.89767  0.62340  0.21912  1.0000
  H   H31       1.0  0.26045  0.55106  0.63234  1.0000
  H   H32       1.0  0.73955  0.44894  0.36767  1.0000
  C   C1        1.0  0.40198  0.67690  0.41733  1.0000
  C   C2        1.0  0.59802  0.32311  0.58267  1.0000
  C   C3        1.0  0.49802  0.77264  0.31169  1.0000
  C   C4        1.0  0.50198  0.22737  0.68831  1.0000
  C   C5        1.0  0.59392  0.81888  0.09833  1.0000
  C   C6        1.0  0.40609  0.18112  0.90167  1.0000
  C   C7        1.0  0.73347  0.85759  0.09776  1.0000
  C   C8        1.0  0.26654  0.14241  0.90225  1.0000
  C   C9        1.0  0.83217  0.91123  0.99061  1.0000
  C   C10       1.0  0.16785  0.08876  0.00939  1.0000
  C   C11       1.0  0.79445  0.93632  0.88011  1.0000
  C   C12       1.0  0.20557  0.06365  0.11989  1.0000
  C   C13       1.0  0.65648  0.90206  0.87901  1.0000
  C   C14       1.0  0.34354  0.09792  0.12099  1.0000
  C   C15       1.0  0.55713  0.83992  0.98556  1.0000
  C   C16       1.0  0.44289  0.16007  0.01444  1.0000
  C   C17       1.0  0.41864  0.80686  0.97142  1.0000
  C   C18       1.0  0.58137  0.19312  0.02858  1.0000
  C   C19       1.0  0.18241  0.71607  0.02825  1.0000
  C   C20       1.0  0.81760  0.28393  0.97174  1.0000
  C   C21       1.0  0.15388  0.56523  0.03022  1.0000
  C   C22       1.0  0.84612  0.43477  0.96977  1.0000
  C   C23       1.0  0.23512  0.44871  0.10839  1.0000
  C   C24       1.0  0.76487  0.55129  0.89161  1.0000
  C   C25       1.0  0.17477  0.38565  0.32137  1.0000
  C   C26       1.0  0.82522  0.61436  0.67863  1.0000
  C   C27       1.0  0.16380  0.39249  0.44300  1.0000
  C   C28       1.0  0.83618  0.60752  0.55701  1.0000
  C   C29       1.0  0.07476  0.29118  0.53078  1.0000
  C   C30       1.0  0.92522  0.70883  0.46923  1.0000
  C   C31       1.0  0.05020  0.28427  0.65178  1.0000
  C   C32       1.0  0.94980  0.71574  0.34823  1.0000
  C   C33       1.0  0.11762  0.37957  0.68651  1.0000
  C   C34       1.0  0.88237  0.62043  0.31349  1.0000
  C   C35       1.0  0.20784  0.47958  0.60263  1.0000
  C   C36       1.0  0.79215  0.52043  0.39738  1.0000
  C   C37       1.0  0.23361  0.48996  0.47860  1.0000
  C   C38       1.0  0.76638  0.51005  0.52140  1.0000
  N   N1        1.0  0.32384  0.58938  0.39273  1.0000
  N   N2        1.0  0.67616  0.41062  0.60727  1.0000
  N   N3        1.0  0.49575  0.75962  0.20414  1.0000
  N   N4        1.0  0.50425  0.24037  0.79586  1.0000
  N   N5        1.0  0.32353  0.72855  0.05288  1.0000
  N   N6        1.0  0.67649  0.27144  0.94712  1.0000
  N   N7        1.0  0.23215  0.47530  0.22372  1.0000
  N   N8        1.0  0.76784  0.52471  0.77628  1.0000
  N   N9        1.0  0.67210  0.99301  0.47695  1.0000
  N   N10       1.0  0.32788  0.00702  0.52304  1.0000
  N   N11       1.0  0.25013  0.99537  0.46025  1.0000
  N   N12       1.0  0.74985  0.00464  0.53975  1.0000
  N   N13       1.0  0.17230  0.97786  0.40336  1.0000
  N   N14       1.0  0.82768  0.02213  0.59665  1.0000
  N   N15       1.0  0.47476  0.22047  0.31204  1.0000
  N   N16       1.0  0.52525  0.77954  0.68795  1.0000
  N   N17       1.0  0.51973  0.33349  0.25465  1.0000
  N   N18       1.0  0.48027  0.66653  0.74533  1.0000
  N   N19       1.0  0.55963  0.44422  0.19393  1.0000
  N   N20       1.0  0.44035  0.55580  0.80606  1.0000
  O   O1        1.0  0.40952  0.68827  0.51953  1.0000
  O   O2        1.0  0.59047  0.31173  0.48047  1.0000
  O   O3        1.0  0.57348  0.85466  0.33567  1.0000
  O   O4        1.0  0.42652  0.14535  0.66433  1.0000
