data_image0
_chemical_formula_structural       Mn2V8H60C40N16O24
_chemical_formula_sum              "Mn2 V8 H60 C40 N16 O24"
_cell_length_a       8.49458
_cell_length_b       10.7327
_cell_length_c       16.917
_cell_angle_alpha    90
_cell_angle_beta     93.0539
_cell_angle_gamma    90

_space_group_name_H-M_alt    "P 1"
_space_group_IT_number       1

loop_
  _space_group_symop_operation_xyz
  'x, y, z'

loop_
  _atom_site_type_symbol
  _atom_site_label
  _atom_site_symmetry_multiplicity
  _atom_site_fract_x
  _atom_site_fract_y
  _atom_site_fract_z
  _atom_site_occupancy
  Mn  Mn1       1.0  0.50000  0.00000  0.50000  1.0000
  Mn  Mn2       1.0  0.50000  0.50000  1.00000  1.0000
  V   V1        1.0  0.83849  0.94744  0.39137  1.0000
  V   V2        1.0  0.16153  0.44745  0.10860  1.0000
  V   V3        1.0  0.16151  0.05256  0.60863  1.0000
  V   V4        1.0  0.83848  0.55255  0.89140  1.0000
  V   V5        1.0  0.84394  0.84547  0.56937  1.0000
  V   V6        1.0  0.15609  0.34548  0.93063  1.0000
  V   V7        1.0  0.15606  0.15453  0.43063  1.0000
  V   V8        1.0  0.84392  0.65452  0.06937  1.0000
  H   H1        1.0  0.47625  0.18486  0.37510  1.0000
  H   H2        1.0  0.52374  0.68484  0.12489  1.0000
  H   H3        1.0  0.52375  0.81514  0.62490  1.0000
  H   H4        1.0  0.47626  0.31516  0.87511  1.0000
  H   H5        1.0  0.17195  0.83845  0.46000  1.0000
  H   H6        1.0  0.82804  0.33851  0.04001  1.0000
  H   H7        1.0  0.82804  0.16155  0.54000  1.0000
  H   H8        1.0  0.17196  0.66149  0.95999  1.0000
  H   H9        1.0  0.63761  0.71103  0.43798  1.0000
  H   H10       1.0  0.36235  0.21109  0.06200  1.0000
  H   H11       1.0  0.36239  0.28897  0.56202  1.0000
  H   H12       1.0  0.63765  0.78891  0.93800  1.0000
  H   H13       1.0  0.42753  0.51428  0.40643  1.0000
  H   H14       1.0  0.57243  0.01437  0.09355  1.0000
  H   H15       1.0  0.57247  0.48572  0.59357  1.0000
  H   H16       1.0  0.42757  0.98563  0.90645  1.0000
  H   H17       1.0  0.13381  0.49045  0.42409  1.0000
  H   H18       1.0  0.86613  0.99050  0.07591  1.0000
  H   H19       1.0  0.86618  0.50955  0.57591  1.0000
  H   H20       1.0  0.13387  0.00950  0.92409  1.0000
  H   H21       1.0  0.03014  0.62122  0.46168  1.0000
  H   H22       1.0  0.96984  0.12125  0.03833  1.0000
  H   H23       1.0  0.96986  0.37878  0.53832  1.0000
  H   H24       1.0  0.03016  0.87875  0.96167  1.0000
  H   H25       1.0  0.10981  0.58275  0.28840  1.0000
  H   H26       1.0  0.89018  0.08275  0.21160  1.0000
  H   H27       1.0  0.89019  0.41725  0.71160  1.0000
  H   H28       1.0  0.10982  0.91725  0.78840  1.0000
  H   H29       1.0  0.02262  0.71893  0.32663  1.0000
  H   H30       1.0  0.97738  0.21893  0.17338  1.0000
  H   H31       1.0  0.97738  0.28107  0.67337  1.0000
  H   H32       1.0  0.02262  0.78107  0.82662  1.0000
  H   H33       1.0  0.81448  0.55725  0.38163  1.0000
  H   H34       1.0  0.18551  0.05726  0.11837  1.0000
  H   H35       1.0  0.18552  0.44275  0.61836  1.0000
  H   H36       1.0  0.81449  0.94274  0.88163  1.0000
  H   H37       1.0  0.79297  0.61906  0.28518  1.0000
  H   H38       1.0  0.20702  0.11906  0.21483  1.0000
  H   H39       1.0  0.20703  0.38094  0.71482  1.0000
  H   H40       1.0  0.79298  0.88094  0.78517  1.0000
  H   H41       1.0  0.96333  0.37030  0.32178  1.0000
  H   H42       1.0  0.03667  0.87030  0.17822  1.0000
  H   H43       1.0  0.03667  0.62970  0.67822  1.0000
  H   H44       1.0  0.96333  0.12970  0.82178  1.0000
  H   H45       1.0  0.90082  0.42978  0.22769  1.0000
  H   H46       1.0  0.09921  0.92977  0.27231  1.0000
  H   H47       1.0  0.09919  0.57022  0.77231  1.0000
  H   H48       1.0  0.90079  0.07023  0.72769  1.0000
  H   H49       1.0  0.57940  0.46263  0.20598  1.0000
  H   H50       1.0  0.42062  0.96263  0.29401  1.0000
  H   H51       1.0  0.42060  0.53737  0.79402  1.0000
  H   H52       1.0  0.57938  0.03738  0.70599  1.0000
  H   H53       1.0  0.34100  0.32034  0.26645  1.0000
  H   H54       1.0  0.65900  0.82032  0.23354  1.0000
  H   H55       1.0  0.65900  0.67966  0.73355  1.0000
  H   H56       1.0  0.34100  0.17968  0.76646  1.0000
  H   H57       1.0  0.77653  0.23226  0.38996  1.0000
  H   H58       1.0  0.22347  0.73225  0.11004  1.0000
  H   H59       1.0  0.22347  0.76774  0.61004  1.0000
  H   H60       1.0  0.77653  0.26775  0.88996  1.0000
  C   C1        1.0  0.27271  0.77952  0.44991  1.0000
  C   C2        1.0  0.72728  0.27960  0.05009  1.0000
  C   C3        1.0  0.72729  0.22048  0.55009  1.0000
  C   C4        1.0  0.27272  0.72040  0.94991  1.0000
  C   C5        1.0  0.51006  0.70872  0.43808  1.0000
  C   C6        1.0  0.48992  0.20878  0.06191  1.0000
  C   C7        1.0  0.48993  0.29129  0.56192  1.0000
  C   C8        1.0  0.51008  0.79122  0.93809  1.0000
  C   C9        1.0  0.40853  0.61081  0.42219  1.0000
  C   C10       1.0  0.59145  0.11088  0.07780  1.0000
  C   C11       1.0  0.59146  0.38919  0.57781  1.0000
  C   C12       1.0  0.40855  0.88912  0.92220  1.0000
  C   C13       1.0  0.10961  0.59039  0.41634  1.0000
  C   C14       1.0  0.89037  0.09043  0.08367  1.0000
  C   C15       1.0  0.89038  0.40961  0.58366  1.0000
  C   C16       1.0  0.10963  0.90957  0.91633  1.0000
  C   C17       1.0  0.03360  0.61769  0.33415  1.0000
  C   C18       1.0  0.96638  0.11769  0.16586  1.0000
  C   C19       1.0  0.96640  0.38231  0.66585  1.0000
  C   C20       1.0  0.03362  0.88230  0.83414  1.0000
  C   C21       1.0  0.86893  0.55961  0.32389  1.0000
  C   C22       1.0  0.13105  0.05962  0.17611  1.0000
  C   C23       1.0  0.13107  0.44039  0.67611  1.0000
  C   C24       1.0  0.86895  0.94038  0.82389  1.0000
  C   C25       1.0  0.87322  0.42756  0.29022  1.0000
  C   C26       1.0  0.12678  0.92756  0.20978  1.0000
  C   C27       1.0  0.12677  0.57244  0.70978  1.0000
  C   C28       1.0  0.87322  0.07244  0.79022  1.0000
  C   C29       1.0  0.58267  0.39529  0.25384  1.0000
  C   C30       1.0  0.41735  0.89529  0.24615  1.0000
  C   C31       1.0  0.41733  0.60471  0.74616  1.0000
  C   C32       1.0  0.58265  0.10472  0.75385  1.0000
  C   C33       1.0  0.46617  0.32314  0.28321  1.0000
  C   C34       1.0  0.53384  0.82313  0.21678  1.0000
  C   C35       1.0  0.53383  0.67686  0.71679  1.0000
  C   C36       1.0  0.46616  0.17688  0.78322  1.0000
  C   C37       1.0  0.69046  0.27665  0.34980  1.0000
  C   C38       1.0  0.30955  0.77664  0.15020  1.0000
  C   C39       1.0  0.30954  0.72335  0.65020  1.0000
  C   C40       1.0  0.69045  0.22336  0.84980  1.0000
  N   N1        1.0  0.42383  0.81346  0.45559  1.0000
  N   N2        1.0  0.57617  0.31352  0.04440  1.0000
  N   N3        1.0  0.57617  0.18654  0.54441  1.0000
  N   N4        1.0  0.42384  0.68648  0.95560  1.0000
  N   N5        1.0  0.25856  0.65721  0.43032  1.0000
  N   N6        1.0  0.74143  0.15726  0.06968  1.0000
  N   N7        1.0  0.74144  0.34279  0.56968  1.0000
  N   N8        1.0  0.25857  0.84274  0.93032  1.0000
  N   N9        1.0  0.72115  0.36503  0.29647  1.0000
  N   N10       1.0  0.27887  0.86502  0.20353  1.0000
  N   N11       1.0  0.27885  0.63497  0.70353  1.0000
  N   N12       1.0  0.72113  0.13498  0.79647  1.0000
  N   N13       1.0  0.53611  0.25070  0.34237  1.0000
  N   N14       1.0  0.46390  0.75068  0.15762  1.0000
  N   N15       1.0  0.46389  0.74930  0.65763  1.0000
  N   N16       1.0  0.53610  0.24932  0.84238  1.0000
  O   O1        1.0  0.66597  0.01377  0.41441  1.0000
  O   O2        1.0  0.33407  0.51371  0.08552  1.0000
  O   O3        1.0  0.33403  0.98623  0.58559  1.0000
  O   O4        1.0  0.66593  0.48629  0.91448  1.0000
  O   O5        1.0  0.82480  0.87928  0.30511  1.0000
  O   O6        1.0  0.17524  0.37933  0.19488  1.0000
  O   O7        1.0  0.17521  0.12072  0.69489  1.0000
  O   O8        1.0  0.82476  0.62067  0.80513  1.0000
  O   O9        1.0  0.87976  0.82859  0.46569  1.0000
  O   O10       1.0  0.12028  0.32858  0.03431  1.0000
  O   O11       1.0  0.12024  0.17141  0.53431  1.0000
  O   O12       1.0  0.87972  0.67142  0.96569  1.0000
  O   O13       1.0  0.66203  0.91089  0.57916  1.0000
  O   O14       1.0  0.33805  0.41088  0.92089  1.0000
  O   O15       1.0  0.33797  0.08910  0.42084  1.0000
  O   O16       1.0  0.66195  0.58912  0.07911  1.0000
  O   O17       1.0  0.84799  0.70648  0.60869  1.0000
  O   O18       1.0  0.15204  0.20651  0.89130  1.0000
  O   O19       1.0  0.15201  0.29352  0.39132  1.0000
  O   O20       1.0  0.84797  0.79348  0.10870  1.0000
  O   O21       1.0  0.99741  0.05969  0.38998  1.0000
  O   O22       1.0  0.00254  0.55965  0.10999  1.0000
  O   O23       1.0  0.00258  0.94032  0.61002  1.0000
  O   O24       1.0  0.99746  0.44035  0.89002  1.0000
