data_image0
_chemical_formula_structural       Hg4H20C32S8N20
_chemical_formula_sum              "Hg4 H20 C32 S8 N20"
_cell_length_a       7.29702
_cell_length_b       10.4233
_cell_length_c       15.6565
_cell_angle_alpha    81.1679
_cell_angle_beta     82.7485
_cell_angle_gamma    78.1417

_space_group_name_H-M_alt    "P 1"
_space_group_IT_number       1

loop_
  _space_group_symop_operation_xyz
  'x, y, z'

loop_
  _atom_site_type_symbol
  _atom_site_label
  _atom_site_symmetry_multiplicity
  _atom_site_fract_x
  _atom_site_fract_y
  _atom_site_fract_z
  _atom_site_occupancy
  Hg  Hg1       1.0  0.16164  0.80965  0.95128  1.0000
  Hg  Hg2       1.0  0.83836  0.19035  0.04872  1.0000
  Hg  Hg3       1.0  0.20716  0.54331  0.19370  1.0000
  Hg  Hg4       1.0  0.79284  0.45668  0.80630  1.0000
  H   H1        1.0  0.38076  0.70232  0.77843  1.0000
  H   H2        1.0  0.61924  0.29768  0.22157  1.0000
  H   H3        1.0  0.56044  0.77167  0.63765  1.0000
  H   H4        1.0  0.43957  0.22833  0.36235  1.0000
  H   H5        1.0  0.48631  0.15996  0.71681  1.0000
  H   H6        1.0  0.51368  0.84005  0.28318  1.0000
  H   H7        1.0  0.31626  0.07439  0.85439  1.0000
  H   H8        1.0  0.68373  0.92561  0.14560  1.0000
  H   H9        1.0  0.12960  0.23725  0.21205  1.0000
  H   H10       1.0  0.87041  0.76275  0.78795  1.0000
  H   H11       1.0  0.96413  0.07658  0.31250  1.0000
  H   H12       1.0  0.03588  0.92342  0.68750  1.0000
  H   H13       1.0  0.81126  0.37315  0.48851  1.0000
  H   H14       1.0  0.18874  0.62685  0.51149  1.0000
  H   H15       1.0  0.98041  0.51675  0.38325  1.0000
  H   H16       1.0  0.01959  0.48325  0.61675  1.0000
  H   H17       1.0  0.68380  0.28364  0.60448  1.0000
  H   H18       1.0  0.31621  0.71637  0.39551  1.0000
  H   H19       1.0  0.52530  0.31523  0.53004  1.0000
  H   H20       1.0  0.47469  0.68477  0.46996  1.0000
  C   C1        1.0  0.40822  0.80255  0.76198  1.0000
  C   C2        1.0  0.59178  0.19746  0.23802  1.0000
  C   C3        1.0  0.50696  0.84144  0.68408  1.0000
  C   C4        1.0  0.49304  0.15856  0.31592  1.0000
  C   C5        1.0  0.53597  0.97247  0.66462  1.0000
  C   C6        1.0  0.46402  0.02753  0.33538  1.0000
  C   C7        1.0  0.46755  0.05786  0.72760  1.0000
  C   C8        1.0  0.53244  0.94214  0.27240  1.0000
  C   C9        1.0  0.37110  0.01039  0.80441  1.0000
  C   C10       1.0  0.62890  0.98961  0.19559  1.0000
  C   C11       1.0  0.63945  0.00802  0.58132  1.0000
  C   C12       1.0  0.36055  0.99198  0.41868  1.0000
  C   C13       1.0  0.78459  0.11249  0.46872  1.0000
  C   C14       1.0  0.21541  0.88751  0.53128  1.0000
  C   C15       1.0  0.05662  0.26221  0.27427  1.0000
  C   C16       1.0  0.94339  0.73779  0.72573  1.0000
  C   C17       1.0  0.96386  0.17390  0.32984  1.0000
  C   C18       1.0  0.03614  0.82610  0.67016  1.0000
  C   C19       1.0  0.87182  0.21003  0.40965  1.0000
  C   C20       1.0  0.12819  0.78997  0.59035  1.0000
  C   C21       1.0  0.87813  0.33621  0.42883  1.0000
  C   C22       1.0  0.12187  0.66379  0.57117  1.0000
  C   C23       1.0  0.97394  0.41844  0.36939  1.0000
  C   C24       1.0  0.02606  0.58156  0.63061  1.0000
  C   C25       1.0  0.86730  0.04099  0.86002  1.0000
  C   C26       1.0  0.13272  0.95901  0.13999  1.0000
  C   C27       1.0  0.57583  0.66415  0.96335  1.0000
  C   C28       1.0  0.42417  0.33584  0.03665  1.0000
  C   C29       1.0  0.13745  0.49268  0.89221  1.0000
  C   C30       1.0  0.86254  0.50732  0.10779  1.0000
  C   C31       1.0  0.43736  0.48550  0.35879  1.0000
  C   C32       1.0  0.56263  0.51451  0.64121  1.0000
  S   S1        1.0  0.83060  0.91861  0.93815  1.0000
  S   S2        1.0  0.16939  0.08138  0.06186  1.0000
  S   S3        1.0  0.43494  0.73288  0.04175  1.0000
  S   S4        1.0  0.56507  0.26712  0.95825  1.0000
  S   S5        1.0  0.08598  0.35151  0.87603  1.0000
  S   S6        1.0  0.91401  0.64849  0.12398  1.0000
  S   S7        1.0  0.48690  0.56210  0.26027  1.0000
  S   S8        1.0  0.51310  0.43789  0.73973  1.0000
  N   N1        1.0  0.33980  0.88587  0.82117  1.0000
  N   N2        1.0  0.66020  0.11413  0.17883  1.0000
  N   N3        1.0  0.72465  0.91987  0.52832  1.0000
  N   N4        1.0  0.27535  0.08013  0.47168  1.0000
  N   N5        1.0  0.81354  0.98466  0.45843  1.0000
  N   N6        1.0  0.18645  0.01534  0.54157  1.0000
  N   N7        1.0  0.06204  0.38283  0.29365  1.0000
  N   N8        1.0  0.93797  0.61717  0.70635  1.0000
  N   N9        1.0  0.88467  0.13043  0.80545  1.0000
  N   N10       1.0  0.11532  0.86957  0.19456  1.0000
  N   N11       1.0  0.68148  0.61922  0.90752  1.0000
  N   N12       1.0  0.31852  0.38078  0.09248  1.0000
  N   N13       1.0  0.18095  0.59196  0.90145  1.0000
  N   N14       1.0  0.81906  0.40804  0.09855  1.0000
  N   N15       1.0  0.40791  0.43353  0.43021  1.0000
  N   N16       1.0  0.59208  0.56647  0.56979  1.0000
  N   N17       1.0  0.58631  0.24759  0.57858  1.0000
  N   N18       1.0  0.41369  0.75241  0.42142  1.0000
  N   N19       1.0  0.67245  0.13085  0.54535  1.0000
  N   N20       1.0  0.32755  0.86915  0.45465  1.0000
