data_image0
_chemical_formula_structural       Ag2H68C42S8N2O6
_chemical_formula_sum              "Ag2 H68 C42 S8 N2 O6"
_cell_length_a       8.00633
_cell_length_b       11.7285
_cell_length_c       13.8066
_cell_angle_alpha    90
_cell_angle_beta     90
_cell_angle_gamma    92.135

_space_group_name_H-M_alt    "P 1"
_space_group_IT_number       1

loop_
  _space_group_symop_operation_xyz
  'x, y, z'

loop_
  _atom_site_type_symbol
  _atom_site_label
  _atom_site_symmetry_multiplicity
  _atom_site_fract_x
  _atom_site_fract_y
  _atom_site_fract_z
  _atom_site_occupancy
  Ag  Ag1       1.0  0.60995  0.41853  0.72178  1.0000
  Ag  Ag2       1.0  0.39004  0.58147  0.22178  1.0000
  H   H1        1.0  0.91825  0.55099  0.47227  1.0000
  H   H2        1.0  0.08174  0.44902  0.97227  1.0000
  H   H3        1.0  0.75305  0.61763  0.53174  1.0000
  H   H4        1.0  0.24695  0.38237  0.03174  1.0000
  H   H5        1.0  0.96900  0.68850  0.63044  1.0000
  H   H6        1.0  0.03101  0.31150  0.13044  1.0000
  H   H7        1.0  0.92642  0.55830  0.69171  1.0000
  H   H8        1.0  0.07358  0.44170  0.19171  1.0000
  H   H9        1.0  0.97298  0.35492  0.64012  1.0000
  H   H10       1.0  0.02701  0.64508  0.14011  1.0000
  H   H11       1.0  0.82965  0.24310  0.60788  1.0000
  H   H12       1.0  0.17034  0.75691  0.10788  1.0000
  H   H13       1.0  0.03948  0.38076  0.45860  1.0000
  H   H14       1.0  0.96052  0.61925  0.95860  1.0000
  H   H15       1.0  0.92634  0.25105  0.43697  1.0000
  H   H16       1.0  0.07366  0.74896  0.93697  1.0000
  H   H17       1.0  0.43948  0.32608  0.31825  1.0000
  H   H18       1.0  0.56052  0.67392  0.81825  1.0000
  H   H19       1.0  0.47655  0.35384  0.44151  1.0000
  H   H20       1.0  0.52345  0.64616  0.94151  1.0000
  H   H21       1.0  0.34362  0.16327  0.40859  1.0000
  H   H22       1.0  0.65638  0.83673  0.90859  1.0000
  H   H23       1.0  0.17267  0.22267  0.35088  1.0000
  H   H24       1.0  0.82733  0.77733  0.85088  1.0000
  H   H25       1.0  0.43501  0.51360  0.51938  1.0000
  H   H26       1.0  0.56499  0.48640  0.01938  1.0000
  H   H27       1.0  0.44352  0.63383  0.43951  1.0000
  H   H28       1.0  0.55648  0.36617  0.93951  1.0000
  H   H29       1.0  0.27992  0.70832  0.55898  1.0000
  H   H30       1.0  0.72008  0.29168  0.05898  1.0000
  H   H31       1.0  0.13101  0.65401  0.47662  1.0000
  H   H32       1.0  0.86900  0.34598  0.97662  1.0000
  H   H33       1.0  0.06890  0.44970  0.77437  1.0000
  H   H34       1.0  0.93110  0.55029  0.27437  1.0000
  H   H35       1.0  0.22507  0.51969  0.84476  1.0000
  H   H36       1.0  0.77493  0.48030  0.34476  1.0000
  H   H37       1.0  0.22938  0.65428  0.72782  1.0000
  H   H38       1.0  0.77062  0.34571  0.22782  1.0000
  H   H39       1.0  0.37510  0.56172  0.67620  1.0000
  H   H40       1.0  0.62490  0.43827  0.17620  1.0000
  H   H41       1.0  0.29537  0.17310  0.71122  1.0000
  H   H42       1.0  0.70463  0.82689  0.21122  1.0000
  H   H43       1.0  0.10488  0.24415  0.70935  1.0000
  H   H44       1.0  0.89512  0.75585  0.20935  1.0000
  H   H45       1.0  0.40775  0.26681  0.57453  1.0000
  H   H46       1.0  0.59225  0.73318  0.07453  1.0000
  H   H47       1.0  0.26916  0.38095  0.58080  1.0000
  H   H48       1.0  0.73084  0.61905  0.08080  1.0000
  H   H49       1.0  0.05691  0.06581  0.47020  1.0000
  H   H50       1.0  0.94308  0.93419  0.97020  1.0000
  H   H51       1.0  0.04416  0.09703  0.59537  1.0000
  H   H52       1.0  0.95583  0.90297  0.09538  1.0000
  H   H53       1.0  0.23772  0.05973  0.54358  1.0000
  H   H54       1.0  0.76227  0.94027  0.04359  1.0000
  H   H55       1.0  0.02414  0.20299  0.92815  1.0000
  H   H56       1.0  0.97586  0.79702  0.42815  1.0000
  H   H57       1.0  0.28464  0.09506  0.94431  1.0000
  H   H58       1.0  0.71536  0.90496  0.44430  1.0000
  H   H59       1.0  0.37043  0.83054  0.80070  1.0000
  H   H60       1.0  0.62958  0.16946  0.30070  1.0000
  H   H61       1.0  0.37262  0.86771  0.92573  1.0000
  H   H62       1.0  0.62740  0.13230  0.42573  1.0000
  H   H63       1.0  0.47687  0.95863  0.84130  1.0000
  H   H64       1.0  0.52314  0.04138  0.34129  1.0000
  H   H65       1.0  0.10205  0.85671  0.72874  1.0000
  H   H66       1.0  0.89797  0.14329  0.22873  1.0000
  H   H67       1.0  0.84146  0.96677  0.71157  1.0000
  H   H68       1.0  0.15855  0.03322  0.21156  1.0000
  C   C1        1.0  0.85193  0.55615  0.54165  1.0000
  C   C2        1.0  0.14806  0.44386  0.04164  1.0000
  C   C3        1.0  0.97193  0.59410  0.62250  1.0000
  C   C4        1.0  0.02807  0.40590  0.12250  1.0000
  C   C5        1.0  0.89839  0.31938  0.58046  1.0000
  C   C6        1.0  0.10161  0.68062  0.08046  1.0000
  C   C7        1.0  0.00284  0.29818  0.49111  1.0000
  C   C8        1.0  0.99716  0.70182  0.99111  1.0000
  C   C9        1.0  0.37690  0.34082  0.38766  1.0000
  C   C10       1.0  0.62311  0.65918  0.88765  1.0000
  C   C11       1.0  0.26252  0.23692  0.41045  1.0000
  C   C12       1.0  0.73748  0.76308  0.91045  1.0000
  C   C13       1.0  0.36079  0.56818  0.47273  1.0000
  C   C14       1.0  0.63921  0.43181  0.97273  1.0000
  C   C15       1.0  0.22475  0.62757  0.52910  1.0000
  C   C16       1.0  0.77525  0.37243  0.02910  1.0000
  C   C17       1.0  0.20098  0.47908  0.77403  1.0000
  C   C18       1.0  0.79901  0.52092  0.27403  1.0000
  C   C19       1.0  0.24196  0.56805  0.69532  1.0000
  C   C20       1.0  0.75804  0.43195  0.19533  1.0000
  C   C21       1.0  0.23824  0.25383  0.69215  1.0000
  C   C22       1.0  0.76176  0.74616  0.19215  1.0000
  C   C23       1.0  0.27681  0.28811  0.58756  1.0000
  C   C24       1.0  0.72319  0.71189  0.08756  1.0000
  C   C25       1.0  0.16544  0.23251  0.50765  1.0000
  C   C26       1.0  0.83455  0.76749  0.00765  1.0000
  C   C27       1.0  0.12354  0.10689  0.53087  1.0000
  C   C28       1.0  0.87645  0.89311  0.03088  1.0000
  C   C29       1.0  0.91669  0.08972  0.81989  1.0000
  C   C30       1.0  0.08332  0.91028  0.31987  1.0000
  C   C31       1.0  0.04097  0.12609  0.88557  1.0000
  C   C32       1.0  0.95903  0.87392  0.38556  1.0000
  C   C33       1.0  0.18604  0.06560  0.89470  1.0000
  C   C34       1.0  0.81397  0.93441  0.39469  1.0000
  C   C35       1.0  0.20945  0.96706  0.83910  1.0000
  C   C36       1.0  0.79057  0.03295  0.33909  1.0000
  C   C37       1.0  0.36566  0.90212  0.85168  1.0000
  C   C38       1.0  0.63436  0.09788  0.35168  1.0000
  C   C39       1.0  0.08431  0.93216  0.77349  1.0000
  C   C40       1.0  0.91571  0.06785  0.27349  1.0000
  C   C41       1.0  0.93829  0.99287  0.76342  1.0000
  C   C42       1.0  0.06172  0.00713  0.26341  1.0000
  S   S1        1.0  0.73586  0.42090  0.55918  1.0000
  S   S2        1.0  0.26414  0.57910  0.05918  1.0000
  S   S3        1.0  0.27595  0.47775  0.37419  1.0000
  S   S4        1.0  0.72405  0.52224  0.87419  1.0000
  S   S5        1.0  0.32593  0.35240  0.78162  1.0000
  S   S6        1.0  0.67407  0.64760  0.28162  1.0000
  S   S7        1.0  0.73428  0.17158  0.80776  1.0000
  S   S8        1.0  0.26572  0.82841  0.30775  1.0000
  N   N1        1.0  0.14345  0.55848  0.60601  1.0000
  N   N2        1.0  0.85654  0.44151  0.10601  1.0000
  O   O1        1.0  0.80675  0.29067  0.80411  1.0000
  O   O2        1.0  0.19324  0.70933  0.30410  1.0000
  O   O3        1.0  0.65374  0.13720  0.71626  1.0000
  O   O4        1.0  0.34625  0.86280  0.21625  1.0000
  O   O5        1.0  0.63171  0.15040  0.89418  1.0000
  O   O6        1.0  0.36828  0.84960  0.39418  1.0000
