data_image0
_chemical_formula_structural       Cu3H14C8Br2O12
_chemical_formula_sum              "Cu3 H14 C8 Br2 O12"
_cell_length_a       6.21935
_cell_length_b       9.17271
_cell_length_c       9.27489
_cell_angle_alpha    78.8305
_cell_angle_beta     74.3514
_cell_angle_gamma    73.485

_space_group_name_H-M_alt    "P 1"
_space_group_IT_number       1

loop_
  _space_group_symop_operation_xyz
  'x, y, z'

loop_
  _atom_site_type_symbol
  _atom_site_label
  _atom_site_symmetry_multiplicity
  _atom_site_fract_x
  _atom_site_fract_y
  _atom_site_fract_z
  _atom_site_occupancy
  Cu  Cu1       1.0  0.99426  0.49872  0.00779  1.0000
  Cu  Cu2       1.0  0.46107  0.43541  0.16717  1.0000
  Cu  Cu3       1.0  0.53864  0.56158  0.83079  1.0000
  H   H1        1.0  0.34156  0.02951  0.88965  1.0000
  H   H2        1.0  0.65853  0.97280  0.11143  1.0000
  H   H3        1.0  0.92981  0.26356  0.54320  1.0000
  H   H4        1.0  0.06749  0.73872  0.45696  1.0000
  H   H5        1.0  0.10682  0.17139  0.38439  1.0000
  H   H6        1.0  0.89387  0.82807  0.61873  1.0000
  H   H7        1.0  0.84787  0.11478  0.48642  1.0000
  H   H8        1.0  0.15139  0.88567  0.51543  1.0000
  H   H9        1.0  0.78581  0.33628  0.95882  1.0000
  H   H10       1.0  0.21599  0.66503  0.03190  1.0000
  H   H11       1.0  0.24865  0.44712  0.43357  1.0000
  H   H12       1.0  0.75084  0.55847  0.56608  1.0000
  H   H13       1.0  0.05818  0.48076  0.33122  1.0000
  H   H14       1.0  0.94434  0.51946  0.66748  1.0000
  C   C1        1.0  0.28826  0.19729  0.04467  1.0000
  C   C2        1.0  0.71105  0.80171  0.95999  1.0000
  C   C3        1.0  0.37594  0.03569  0.99755  1.0000
  C   C4        1.0  0.62413  0.96456  0.00417  1.0000
  C   C5        1.0  0.79965  0.33086  0.34353  1.0000
  C   C6        1.0  0.20239  0.66723  0.65457  1.0000
  C   C7        1.0  0.92799  0.21126  0.44677  1.0000
  C   C8        1.0  0.07156  0.78899  0.55409  1.0000
  Br  Br1       1.0  0.18897  0.90677  0.14815  1.0000
  Br  Br2       1.0  0.81110  0.09154  0.85091  1.0000
  O   O1        1.0  0.14708  0.28969  0.96952  1.0000
  O   O2        1.0  0.84257  0.70916  0.04196  1.0000
  O   O3        1.0  0.35885  0.22473  0.14797  1.0000
  O   O4        1.0  0.64897  0.77365  0.85335  1.0000
  O   O5        1.0  0.64030  0.29606  0.30417  1.0000
  O   O6        1.0  0.35970  0.70305  0.69589  1.0000
  O   O7        1.0  0.85187  0.45950  0.29798  1.0000
  O   O8        1.0  0.15526  0.53701  0.69526  1.0000
  O   O9        1.0  0.71929  0.44296  0.98165  1.0000
  O   O10       1.0  0.27997  0.55839  0.00849  1.0000
  O   O11       1.0  0.20724  0.50636  0.34130  1.0000
  O   O12       1.0  0.79278  0.49622  0.65702  1.0000
