data_image0
_chemical_formula_structural       Li4H12C24O8
_chemical_formula_sum              "Li4 H12 C24 O8"
_cell_length_a       5.27947
_cell_length_b       8.54124
_cell_length_c       10.3518
_cell_angle_alpha    99.1655
_cell_angle_beta     89.9982
_cell_angle_gamma    90.0003

_space_group_name_H-M_alt    "P 1"
_space_group_IT_number       1

loop_
  _space_group_symop_operation_xyz
  'x, y, z'

loop_
  _atom_site_type_symbol
  _atom_site_label
  _atom_site_symmetry_multiplicity
  _atom_site_fract_x
  _atom_site_fract_y
  _atom_site_fract_z
  _atom_site_occupancy
  Li  Li1       1.0  0.11018  0.14547  0.01110  1.0000
  Li  Li2       1.0  0.61018  0.35453  0.98890  1.0000
  Li  Li3       1.0  0.88983  0.85453  0.98890  1.0000
  Li  Li4       1.0  0.38982  0.64547  0.01110  1.0000
  H   H1        1.0  0.82299  0.78792  0.72523  1.0000
  H   H2        1.0  0.32292  0.71210  0.27476  1.0000
  H   H3        1.0  0.17702  0.21207  0.27477  1.0000
  H   H4        1.0  0.67707  0.28790  0.72524  1.0000
  H   H5        1.0  0.94514  0.82672  0.50200  1.0000
  H   H6        1.0  0.44511  0.67330  0.49798  1.0000
  H   H7        1.0  0.05487  0.17328  0.49801  1.0000
  H   H8        1.0  0.55487  0.32670  0.50201  1.0000
  H   H9        1.0  0.14625  0.06243  0.70165  1.0000
  H   H10       1.0  0.64621  0.43757  0.29838  1.0000
  H   H11       1.0  0.85378  0.93758  0.29837  1.0000
  H   H12       1.0  0.35378  0.56243  0.70161  1.0000
  C   C1        1.0  0.47548  0.92406  0.72735  1.0000
  C   C2        1.0  0.97544  0.57596  0.27266  1.0000
  C   C3        1.0  0.52453  0.07595  0.27266  1.0000
  C   C4        1.0  0.02454  0.42405  0.72734  1.0000
  C   C5        1.0  0.61459  0.96563  0.47111  1.0000
  C   C6        1.0  0.11458  0.53438  0.52889  1.0000
  C   C7        1.0  0.38543  0.03437  0.52889  1.0000
  C   C8        1.0  0.88540  0.46563  0.47111  1.0000
  C   C9        1.0  0.70395  0.85800  0.67030  1.0000
  C   C10       1.0  0.20389  0.64203  0.32969  1.0000
  C   C11       1.0  0.29607  0.14200  0.32971  1.0000
  C   C12       1.0  0.79610  0.35798  0.67030  1.0000
  C   C13       1.0  0.77138  0.87892  0.54578  1.0000
  C   C14       1.0  0.27133  0.62109  0.45421  1.0000
  C   C15       1.0  0.22865  0.12109  0.45423  1.0000
  C   C16       1.0  0.72865  0.37890  0.54578  1.0000
  C   C17       1.0  0.32179  0.01247  0.65767  1.0000
  C   C18       1.0  0.82174  0.48754  0.34234  1.0000
  C   C19       1.0  0.67825  0.98753  0.34233  1.0000
  C   C20       1.0  0.17824  0.51247  0.65766  1.0000
  C   C21       1.0  0.39123  0.88872  0.85809  1.0000
  C   C22       1.0  0.89119  0.61128  0.14192  1.0000
  C   C23       1.0  0.60878  0.11128  0.14191  1.0000
  C   C24       1.0  0.10880  0.38872  0.85807  1.0000
  O   O1        1.0  0.17198  0.93594  0.89894  1.0000
  O   O2        1.0  0.67193  0.56406  0.10108  1.0000
  O   O3        1.0  0.82803  0.06406  0.10107  1.0000
  O   O4        1.0  0.32805  0.43594  0.89892  1.0000
  O   O5        1.0  0.53894  0.80813  0.92012  1.0000
  O   O6        1.0  0.03891  0.69187  0.07987  1.0000
  O   O7        1.0  0.46107  0.19187  0.07989  1.0000
  O   O8        1.0  0.96108  0.30813  0.92012  1.0000
