data_image0
_chemical_formula_structural       Na2Zn2Fe2P2H54C50S2I6O6
_chemical_formula_sum              "Na2 Zn2 Fe2 P2 H54 C50 S2 I6 O6"
_cell_length_a       8.88321
_cell_length_b       9.38163
_cell_length_c       18.2554
_cell_angle_alpha    91.0834
_cell_angle_beta     99.6691
_cell_angle_gamma    95.3281

_space_group_name_H-M_alt    "P 1"
_space_group_IT_number       1

loop_
  _space_group_symop_operation_xyz
  'x, y, z'

loop_
  _atom_site_type_symbol
  _atom_site_label
  _atom_site_symmetry_multiplicity
  _atom_site_fract_x
  _atom_site_fract_y
  _atom_site_fract_z
  _atom_site_occupancy
  Na  Na1       1.0  0.71502  0.05704  0.03500  1.0000
  Na  Na2       1.0  0.28498  0.94296  0.96499  1.0000
  Zn  Zn1       1.0  0.68462  0.15975  0.24245  1.0000
  Zn  Zn2       1.0  0.31538  0.84024  0.75755  1.0000
  Fe  Fe1       1.0  0.13052  0.46553  0.27210  1.0000
  Fe  Fe2       1.0  0.86949  0.53448  0.72790  1.0000
  P   P1        1.0  0.81977  0.30176  0.34829  1.0000
  P   P2        1.0  0.18023  0.69824  0.65171  1.0000
  H   H1        1.0  0.37745  0.50378  0.19558  1.0000
  H   H2        1.0  0.62255  0.49622  0.80442  1.0000
  H   H3        1.0  0.25399  0.73894  0.23938  1.0000
  H   H4        1.0  0.74602  0.26106  0.76062  1.0000
  H   H5        1.0  0.94565  0.67989  0.21600  1.0000
  H   H6        1.0  0.05436  0.32012  0.78400  1.0000
  H   H7        1.0  0.87821  0.40855  0.15646  1.0000
  H   H8        1.0  0.12179  0.59147  0.84354  1.0000
  H   H9        1.0  0.12117  0.17592  0.30700  1.0000
  H   H10       1.0  0.87884  0.82408  0.69300  1.0000
  H   H11       1.0  0.39034  0.34234  0.34100  1.0000
  H   H12       1.0  0.60966  0.65767  0.65900  1.0000
  H   H13       1.0  0.33157  0.60103  0.39259  1.0000
  H   H14       1.0  0.66843  0.39898  0.60742  1.0000
  H   H15       1.0  0.02651  0.59343  0.39245  1.0000
  H   H16       1.0  0.97350  0.40657  0.60755  1.0000
  H   H17       1.0  0.07702  0.17691  0.15632  1.0000
  H   H18       1.0  0.92298  0.82310  0.84368  1.0000
  H   H19       1.0  0.27055  0.23646  0.14727  1.0000
  H   H20       1.0  0.72945  0.76354  0.85274  1.0000
  H   H21       1.0  0.07607  0.25377  0.46844  1.0000
  H   H22       1.0  0.92392  0.74623  0.53155  1.0000
  H   H23       1.0  0.08475  0.14465  0.59104  1.0000
  H   H24       1.0  0.91525  0.85535  0.40896  1.0000
  H   H25       1.0  0.84314  0.04335  0.63081  1.0000
  H   H26       1.0  0.15685  0.95665  0.36918  1.0000
  H   H27       1.0  0.59497  0.04472  0.54563  1.0000
  H   H28       1.0  0.40503  0.95528  0.45437  1.0000
  H   H29       1.0  0.58475  0.15060  0.42083  1.0000
  H   H30       1.0  0.41525  0.84940  0.57917  1.0000
  H   H31       1.0  0.73332  0.44021  0.48108  1.0000
  H   H32       1.0  0.26669  0.55979  0.51892  1.0000
  H   H33       1.0  0.62474  0.66850  0.49912  1.0000
  H   H34       1.0  0.37526  0.33150  0.50088  1.0000
  H   H35       1.0  0.56309  0.82684  0.39084  1.0000
  H   H36       1.0  0.43690  0.17315  0.60917  1.0000
  H   H37       1.0  0.60766  0.75265  0.26687  1.0000
  H   H38       1.0  0.39234  0.24735  0.73313  1.0000
  H   H39       1.0  0.71287  0.52023  0.24767  1.0000
  H   H40       1.0  0.28713  0.47978  0.75233  1.0000
  H   H41       1.0  0.30469  0.39615  0.01637  1.0000
  H   H42       1.0  0.69532  0.60385  0.98362  1.0000
  H   H43       1.0  0.13734  0.49078  0.01768  1.0000
  H   H44       1.0  0.86266  0.50922  0.98232  1.0000
  H   H45       1.0  0.14924  0.37889  0.93786  1.0000
  H   H46       1.0  0.85076  0.62111  0.06214  1.0000
  H   H47       1.0  0.45545  0.97433  0.11879  1.0000
  H   H48       1.0  0.54454  0.02567  0.88121  1.0000
  H   H49       1.0  0.37137  0.72881  0.11034  1.0000
  H   H50       1.0  0.62862  0.27119  0.88965  1.0000
  H   H51       1.0  0.57503  0.76306  0.14197  1.0000
  H   H52       1.0  0.42496  0.23694  0.85803  1.0000
  H   H53       1.0  0.50185  0.71323  0.04658  1.0000
  H   H54       1.0  0.49814  0.28677  0.95342  1.0000
  C   C1        1.0  0.13298  0.40784  0.16455  1.0000
  C   C2        1.0  0.86701  0.59216  0.83545  1.0000
  C   C3        1.0  0.25607  0.51678  0.19137  1.0000
  C   C4        1.0  0.74393  0.48322  0.80863  1.0000
  C   C5        1.0  0.19055  0.64015  0.21471  1.0000
  C   C6        1.0  0.80945  0.35985  0.78529  1.0000
  C   C7        1.0  0.02723  0.60852  0.20239  1.0000
  C   C8        1.0  0.97277  0.39149  0.79761  1.0000
  C   C9        1.0  0.99167  0.46552  0.17145  1.0000
  C   C10       1.0  0.00833  0.53449  0.82855  1.0000
  C   C11       1.0  0.01644  0.36659  0.34745  1.0000
  C   C12       1.0  0.98357  0.63341  0.65255  1.0000
  C   C13       1.0  0.13693  0.28437  0.33075  1.0000
  C   C14       1.0  0.86307  0.71563  0.66925  1.0000
  C   C15       1.0  0.27935  0.37251  0.34957  1.0000
  C   C16       1.0  0.72066  0.62750  0.65044  1.0000
  C   C17       1.0  0.24804  0.50918  0.37680  1.0000
  C   C18       1.0  0.75197  0.49083  0.62321  1.0000
  C   C19       1.0  0.08665  0.50611  0.37583  1.0000
  C   C20       1.0  0.91335  0.49389  0.62417  1.0000
  C   C21       1.0  0.15100  0.26240  0.13547  1.0000
  C   C22       1.0  0.84900  0.73761  0.86453  1.0000
  C   C23       1.0  0.82986  0.21099  0.43646  1.0000
  C   C24       1.0  0.17015  0.78900  0.56353  1.0000
  C   C25       1.0  0.97018  0.20752  0.48465  1.0000
  C   C26       1.0  0.02982  0.79248  0.51534  1.0000
  C   C27       1.0  0.97498  0.14633  0.55403  1.0000
  C   C28       1.0  0.02501  0.85367  0.44597  1.0000
  C   C29       1.0  0.83991  0.08877  0.57610  1.0000
  C   C30       1.0  0.16008  0.91123  0.42390  1.0000
  C   C31       1.0  0.70002  0.08996  0.52796  1.0000
  C   C32       1.0  0.29997  0.91003  0.47204  1.0000
  C   C33       1.0  0.69436  0.14983  0.45823  1.0000
  C   C34       1.0  0.30563  0.85017  0.54177  1.0000
  C   C35       1.0  0.73065  0.46487  0.36331  1.0000
  C   C36       1.0  0.26935  0.53513  0.63669  1.0000
  C   C37       1.0  0.70460  0.50727  0.43378  1.0000
  C   C38       1.0  0.29540  0.49273  0.56622  1.0000
  C   C39       1.0  0.64404  0.63691  0.44387  1.0000
  C   C40       1.0  0.35596  0.36308  0.55613  1.0000
  C   C41       1.0  0.60991  0.72507  0.38379  1.0000
  C   C42       1.0  0.39009  0.27493  0.61622  1.0000
  C   C43       1.0  0.63460  0.68276  0.31333  1.0000
  C   C44       1.0  0.36539  0.31724  0.68667  1.0000
  C   C45       1.0  0.69433  0.55308  0.30281  1.0000
  C   C46       1.0  0.30567  0.44692  0.69719  1.0000
  C   C47       1.0  0.18024  0.39347  0.99842  1.0000
  C   C48       1.0  0.81977  0.60652  0.00158  1.0000
  C   C49       1.0  0.48075  0.77291  0.09546  1.0000
  C   C50       1.0  0.51923  0.22709  0.90454  1.0000
  S   S1        1.0  0.09352  0.24005  0.03619  1.0000
  S   S2        1.0  0.90649  0.75996  0.96381  1.0000
  I   I1        1.0  0.42428  0.02801  0.26544  1.0000
  I   I2        1.0  0.57572  0.97199  0.73456  1.0000
  I   I3        1.0  0.86834  0.97727  0.20801  1.0000
  I   I4        1.0  0.13166  0.02273  0.79199  1.0000
  I   I5        1.0  0.58518  0.30798  0.12271  1.0000
  I   I6        1.0  0.41481  0.69201  0.87729  1.0000
  O   O1        1.0  0.92684  0.24027  0.01794  1.0000
  O   O2        1.0  0.07316  0.75972  0.98206  1.0000
  O   O3        1.0  0.16070  0.11500  0.01223  1.0000
  O   O4        1.0  0.83932  0.88500  0.98777  1.0000
  O   O5        1.0  0.47485  0.92058  0.07503  1.0000
  O   O6        1.0  0.52514  0.07942  0.92496  1.0000
