data_image0
_chemical_formula_structural       Na2Zn2Fe2P2H54C50S2Br6O6
_chemical_formula_sum              "Na2 Zn2 Fe2 P2 H54 C50 S2 Br6 O6"
_cell_length_a       8.67757
_cell_length_b       9.17045
_cell_length_c       18.1021
_cell_angle_alpha    91.278
_cell_angle_beta     100.148
_cell_angle_gamma    95.1021

_space_group_name_H-M_alt    "P 1"
_space_group_IT_number       1

loop_
  _space_group_symop_operation_xyz
  'x, y, z'

loop_
  _atom_site_type_symbol
  _atom_site_label
  _atom_site_symmetry_multiplicity
  _atom_site_fract_x
  _atom_site_fract_y
  _atom_site_fract_z
  _atom_site_occupancy
  Na  Na1       1.0  0.71344  0.06467  0.03927  1.0000
  Na  Na2       1.0  0.28656  0.93534  0.96073  1.0000
  Zn  Zn1       1.0  0.68330  0.15398  0.23742  1.0000
  Zn  Zn2       1.0  0.31669  0.84602  0.76257  1.0000
  Fe  Fe1       1.0  0.13985  0.45661  0.27452  1.0000
  Fe  Fe2       1.0  0.86015  0.54339  0.72548  1.0000
  P   P1        1.0  0.81740  0.29666  0.34605  1.0000
  P   P2        1.0  0.18260  0.70334  0.65395  1.0000
  H   H1        1.0  0.39101  0.49359  0.19741  1.0000
  H   H2        1.0  0.60900  0.50641  0.80260  1.0000
  H   H3        1.0  0.27436  0.73620  0.24675  1.0000
  H   H4        1.0  0.72565  0.26381  0.75326  1.0000
  H   H5        1.0  0.95776  0.68651  0.22257  1.0000
  H   H6        1.0  0.04224  0.31350  0.77743  1.0000
  H   H7        1.0  0.87784  0.41231  0.15752  1.0000
  H   H8        1.0  0.12216  0.58769  0.84248  1.0000
  H   H9        1.0  0.11529  0.15691  0.30048  1.0000
  H   H10       1.0  0.88471  0.84309  0.69951  1.0000
  H   H11       1.0  0.39939  0.31343  0.33743  1.0000
  H   H12       1.0  0.60061  0.68657  0.66257  1.0000
  H   H13       1.0  0.35676  0.57571  0.39872  1.0000
  H   H14       1.0  0.64325  0.42429  0.60128  1.0000
  H   H15       1.0  0.04569  0.58164  0.40050  1.0000
  H   H16       1.0  0.95431  0.41836  0.59951  1.0000
  H   H17       1.0  0.07364  0.16920  0.15215  1.0000
  H   H18       1.0  0.92635  0.83081  0.84785  1.0000
  H   H19       1.0  0.27407  0.22612  0.14601  1.0000
  H   H20       1.0  0.72592  0.77388  0.85398  1.0000
  H   H21       1.0  0.07035  0.23599  0.46984  1.0000
  H   H22       1.0  0.92966  0.76402  0.53016  1.0000
  H   H23       1.0  0.06837  0.13701  0.59559  1.0000
  H   H24       1.0  0.93163  0.86300  0.40440  1.0000
  H   H25       1.0  0.81291  0.05920  0.63535  1.0000
  H   H26       1.0  0.18709  0.94080  0.36465  1.0000
  H   H27       1.0  0.56330  0.07243  0.54646  1.0000
  H   H28       1.0  0.43670  0.92757  0.45354  1.0000
  H   H29       1.0  0.56377  0.16576  0.41865  1.0000
  H   H30       1.0  0.43624  0.83424  0.58134  1.0000
  H   H31       1.0  0.73941  0.45597  0.47733  1.0000
  H   H32       1.0  0.26059  0.54402  0.52267  1.0000
  H   H33       1.0  0.64092  0.69762  0.49107  1.0000
  H   H34       1.0  0.35908  0.30238  0.50893  1.0000
  H   H35       1.0  0.58320  0.85221  0.37811  1.0000
  H   H36       1.0  0.41679  0.14778  0.62189  1.0000
  H   H37       1.0  0.61843  0.76017  0.25450  1.0000
  H   H38       1.0  0.38157  0.23983  0.74550  1.0000
  H   H39       1.0  0.71159  0.51337  0.23953  1.0000
  H   H40       1.0  0.28841  0.48662  0.76047  1.0000
  H   H41       1.0  0.31820  0.39976  0.02051  1.0000
  H   H42       1.0  0.68180  0.60023  0.97950  1.0000
  H   H43       1.0  0.14764  0.50003  0.01892  1.0000
  H   H44       1.0  0.85237  0.49998  0.98108  1.0000
  H   H45       1.0  0.16502  0.38867  0.93814  1.0000
  H   H46       1.0  0.83498  0.61133  0.06186  1.0000
  H   H47       1.0  0.45321  0.96872  0.12089  1.0000
  H   H48       1.0  0.54679  0.03127  0.87911  1.0000
  H   H49       1.0  0.38759  0.72130  0.11598  1.0000
  H   H50       1.0  0.61241  0.27869  0.88402  1.0000
  H   H51       1.0  0.59845  0.75540  0.12955  1.0000
  H   H52       1.0  0.40155  0.24460  0.87045  1.0000
  H   H53       1.0  0.48645  0.70925  0.03769  1.0000
  H   H54       1.0  0.51354  0.29074  0.96231  1.0000
  C   C1        1.0  0.13798  0.40426  0.16509  1.0000
  C   C2        1.0  0.86202  0.59574  0.83491  1.0000
  C   C3        1.0  0.26774  0.51096  0.19386  1.0000
  C   C4        1.0  0.73227  0.48905  0.80615  1.0000
  C   C5        1.0  0.20586  0.63799  0.22019  1.0000
  C   C6        1.0  0.79414  0.36202  0.77981  1.0000
  C   C7        1.0  0.03796  0.61117  0.20750  1.0000
  C   C8        1.0  0.96204  0.38884  0.79251  1.0000
  C   C9        1.0  0.99579  0.46714  0.17347  1.0000
  C   C10       1.0  0.00420  0.53287  0.82653  1.0000
  C   C11       1.0  0.02172  0.35316  0.34834  1.0000
  C   C12       1.0  0.97828  0.64684  0.65166  1.0000
  C   C13       1.0  0.13883  0.26499  0.32805  1.0000
  C   C14       1.0  0.86117  0.73501  0.67195  1.0000
  C   C15       1.0  0.28889  0.34771  0.34855  1.0000
  C   C16       1.0  0.71111  0.65228  0.65145  1.0000
  C   C17       1.0  0.26583  0.48686  0.38053  1.0000
  C   C18       1.0  0.73417  0.51314  0.61947  1.0000
  C   C19       1.0  0.10161  0.49082  0.38077  1.0000
  C   C20       1.0  0.89839  0.50918  0.61923  1.0000
  C   C21       1.0  0.15269  0.25605  0.13345  1.0000
  C   C22       1.0  0.84730  0.74395  0.86655  1.0000
  C   C23       1.0  0.81760  0.20964  0.43592  1.0000
  C   C24       1.0  0.18241  0.79036  0.56408  1.0000
  C   C25       1.0  0.95879  0.19932  0.48607  1.0000
  C   C26       1.0  0.04121  0.80068  0.51393  1.0000
  C   C27       1.0  0.95753  0.14380  0.55721  1.0000
  C   C28       1.0  0.04247  0.85620  0.44279  1.0000
  C   C29       1.0  0.81513  0.09946  0.57928  1.0000
  C   C30       1.0  0.18487  0.90055  0.42072  1.0000
  C   C31       1.0  0.67424  0.10720  0.52908  1.0000
  C   C32       1.0  0.32576  0.89281  0.47092  1.0000
  C   C33       1.0  0.67457  0.16029  0.45743  1.0000
  C   C34       1.0  0.32544  0.83971  0.54257  1.0000
  C   C35       1.0  0.73334  0.46911  0.35774  1.0000
  C   C36       1.0  0.26666  0.53088  0.64226  1.0000
  C   C37       1.0  0.71188  0.52134  0.42820  1.0000
  C   C38       1.0  0.28813  0.47865  0.57180  1.0000
  C   C39       1.0  0.65689  0.65843  0.43580  1.0000
  C   C40       1.0  0.34312  0.34157  0.56420  1.0000
  C   C41       1.0  0.62453  0.74428  0.37325  1.0000
  C   C42       1.0  0.37547  0.25572  0.62675  1.0000
  C   C43       1.0  0.64432  0.69200  0.30281  1.0000
  C   C44       1.0  0.35568  0.30800  0.69719  1.0000
  C   C45       1.0  0.69784  0.55470  0.29471  1.0000
  C   C46       1.0  0.30216  0.44529  0.70529  1.0000
  C   C47       1.0  0.19169  0.40034  0.99958  1.0000
  C   C48       1.0  0.80831  0.59966  0.00042  1.0000
  C   C49       1.0  0.48716  0.76769  0.09130  1.0000
  C   C50       1.0  0.51284  0.23231  0.90870  1.0000
  S   S1        1.0  0.09607  0.24236  0.03279  1.0000
  S   S2        1.0  0.90393  0.75765  0.96721  1.0000
  Br  Br1       1.0  0.43591  0.02708  0.25503  1.0000
  Br  Br2       1.0  0.56408  0.97292  0.74497  1.0000
  Br  Br3       1.0  0.85957  0.98680  0.20101  1.0000
  Br  Br4       1.0  0.14041  0.01319  0.79898  1.0000
  Br  Br5       1.0  0.59316  0.29854  0.12626  1.0000
  Br  Br6       1.0  0.40684  0.70147  0.87374  1.0000
  O   O1        1.0  0.92588  0.24854  0.01361  1.0000
  O   O2        1.0  0.07410  0.75148  0.98639  1.0000
  O   O3        1.0  0.16110  0.11469  0.00578  1.0000
  O   O4        1.0  0.83888  0.88531  0.99422  1.0000
  O   O5        1.0  0.47274  0.91963  0.07492  1.0000
  O   O6        1.0  0.52726  0.08037  0.92508  1.0000
