data_image0
_chemical_formula_structural       K2Zn2Fe2P2H54C50S2Br6O6
_chemical_formula_sum              "K2 Zn2 Fe2 P2 H54 C50 S2 Br6 O6"
_cell_length_a       8.77913
_cell_length_b       9.2838
_cell_length_c       18.2463
_cell_angle_alpha    88.4408
_cell_angle_beta     80.253
_cell_angle_gamma    85.6685

_space_group_name_H-M_alt    "P 1"
_space_group_IT_number       1

loop_
  _space_group_symop_operation_xyz
  'x, y, z'

loop_
  _atom_site_type_symbol
  _atom_site_label
  _atom_site_symmetry_multiplicity
  _atom_site_fract_x
  _atom_site_fract_y
  _atom_site_fract_z
  _atom_site_occupancy
  K   K1        1.0  0.22852  0.41471  0.96206  1.0000
  K   K2        1.0  0.77148  0.58527  0.03793  1.0000
  Zn  Zn1       1.0  0.19309  0.32564  0.75645  1.0000
  Zn  Zn2       1.0  0.80691  0.67436  0.24355  1.0000
  Fe  Fe1       1.0  0.64115  0.02528  0.72465  1.0000
  Fe  Fe2       1.0  0.35885  0.97473  0.27534  1.0000
  P   P1        1.0  0.32339  0.19050  0.65095  1.0000
  P   P2        1.0  0.67661  0.80950  0.34905  1.0000
  H   H1        1.0  0.89417  0.98595  0.79813  1.0000
  H   H2        1.0  0.10583  0.01405  0.20187  1.0000
  H   H3        1.0  0.77028  0.74798  0.75538  1.0000
  H   H4        1.0  0.22972  0.25202  0.24462  1.0000
  H   H5        1.0  0.45909  0.79599  0.78186  1.0000
  H   H6        1.0  0.54091  0.20401  0.21814  1.0000
  H   H7        1.0  0.38908  0.06416  0.84143  1.0000
  H   H8        1.0  0.61092  0.93584  0.15857  1.0000
  H   H9        1.0  0.62291  0.32235  0.69410  1.0000
  H   H10       1.0  0.37708  0.67765  0.30590  1.0000
  H   H11       1.0  0.89922  0.16825  0.65857  1.0000
  H   H12       1.0  0.10078  0.83174  0.34143  1.0000
  H   H13       1.0  0.84745  0.91222  0.60289  1.0000
  H   H14       1.0  0.15254  0.08778  0.39711  1.0000
  H   H15       1.0  0.53923  0.90859  0.60227  1.0000
  H   H16       1.0  0.46076  0.09142  0.39773  1.0000
  H   H17       1.0  0.58560  0.30310  0.84179  1.0000
  H   H18       1.0  0.41439  0.69690  0.15822  1.0000
  H   H19       1.0  0.78573  0.25002  0.84344  1.0000
  H   H20       1.0  0.21427  0.74998  0.15656  1.0000
  H   H21       1.0  0.57490  0.25096  0.52691  1.0000
  H   H22       1.0  0.42510  0.74903  0.47309  1.0000
  H   H23       1.0  0.57411  0.36402  0.40257  1.0000
  H   H24       1.0  0.42590  0.63596  0.59743  1.0000
  H   H25       1.0  0.32469  0.45844  0.36511  1.0000
  H   H26       1.0  0.67532  0.54155  0.63489  1.0000
  H   H27       1.0  0.07950  0.44943  0.45450  1.0000
  H   H28       1.0  0.92050  0.55057  0.54550  1.0000
  H   H29       1.0  0.07931  0.34116  0.58100  1.0000
  H   H30       1.0  0.92070  0.65884  0.41900  1.0000
  H   H31       1.0  0.23319  0.05408  0.52092  1.0000
  H   H32       1.0  0.76681  0.94592  0.47908  1.0000
  H   H33       1.0  0.12786  0.81950  0.50576  1.0000
  H   H34       1.0  0.87214  0.18049  0.49424  1.0000
  H   H35       1.0  0.07395  0.65112  0.61589  1.0000
  H   H36       1.0  0.92605  0.34888  0.38411  1.0000
  H   H37       1.0  0.12219  0.72138  0.73807  1.0000
  H   H38       1.0  0.87781  0.27861  0.26193  1.0000
  H   H39       1.0  0.22230  0.96111  0.75465  1.0000
  H   H40       1.0  0.77771  0.03889  0.24535  1.0000
  H   H41       1.0  0.84928  0.07704  0.96733  1.0000
  H   H42       1.0  0.15073  0.92297  0.03267  1.0000
  H   H43       1.0  0.67668  0.97635  0.97857  1.0000
  H   H44       1.0  0.32332  0.02364  0.02143  1.0000
  H   H45       1.0  0.71112  0.08487  0.05317  1.0000
  H   H46       1.0  0.28888  0.91513  0.94683  1.0000
  H   H47       1.0  0.96444  0.54146  0.86009  1.0000
  H   H48       1.0  0.03556  0.45854  0.13991  1.0000
  H   H49       1.0  0.93237  0.79499  0.88276  1.0000
  H   H50       1.0  0.06764  0.20501  0.11724  1.0000
  H   H51       1.0  0.13247  0.73057  0.85824  1.0000
  H   H52       1.0  0.86753  0.26944  0.14176  1.0000
  H   H53       1.0  0.04878  0.75549  0.95344  1.0000
  H   H54       1.0  0.95122  0.24452  0.04656  1.0000
  C   C1        1.0  0.64697  0.07237  0.83163  1.0000
  C   C2        1.0  0.35302  0.92763  0.16837  1.0000
  C   C3        1.0  0.77182  0.96824  0.80366  1.0000
  C   C4        1.0  0.22818  0.03177  0.19634  1.0000
  C   C5        1.0  0.70609  0.84380  0.78074  1.0000
  C   C6        1.0  0.29391  0.15621  0.21925  1.0000
  C   C7        1.0  0.54091  0.86988  0.79461  1.0000
  C   C8        1.0  0.45909  0.13012  0.20538  1.0000
  C   C9        1.0  0.50412  0.01055  0.82611  1.0000
  C   C10       1.0  0.49588  0.98945  0.17389  1.0000
  C   C11       1.0  0.52337  0.13160  0.65041  1.0000
  C   C12       1.0  0.47663  0.86839  0.34959  1.0000
  C   C13       1.0  0.64251  0.21678  0.66859  1.0000
  C   C14       1.0  0.35748  0.78322  0.33141  1.0000
  C   C15       1.0  0.78822  0.13538  0.64895  1.0000
  C   C16       1.0  0.21177  0.86462  0.35105  1.0000
  C   C17       1.0  0.76038  0.99965  0.61974  1.0000
  C   C18       1.0  0.23961  0.00035  0.38026  1.0000
  C   C19       1.0  0.59765  0.99678  0.62027  1.0000
  C   C20       1.0  0.40235  0.00322  0.37974  1.0000
  C   C21       1.0  0.66663  0.21782  0.85960  1.0000
  C   C22       1.0  0.33336  0.78218  0.14040  1.0000
  C   C23       1.0  0.32716  0.28626  0.56195  1.0000
  C   C24       1.0  0.67285  0.71374  0.43805  1.0000
  C   C25       1.0  0.46604  0.29503  0.51161  1.0000
  C   C26       1.0  0.53397  0.70497  0.48839  1.0000
  C   C27       1.0  0.46549  0.35838  0.44135  1.0000
  C   C28       1.0  0.53451  0.64161  0.55865  1.0000
  C   C29       1.0  0.32611  0.41225  0.42056  1.0000
  C   C30       1.0  0.67389  0.58775  0.57944  1.0000
  C   C31       1.0  0.18781  0.40664  0.47102  1.0000
  C   C32       1.0  0.81219  0.59336  0.52898  1.0000
  C   C33       1.0  0.18767  0.34524  0.54173  1.0000
  C   C34       1.0  0.81234  0.65476  0.45827  1.0000
  C   C35       1.0  0.23547  0.02291  0.63856  1.0000
  C   C36       1.0  0.76452  0.97709  0.36144  1.0000
  C   C37       1.0  0.20748  0.98252  0.56888  1.0000
  C   C38       1.0  0.79252  0.01748  0.43112  1.0000
  C   C39       1.0  0.14857  0.84954  0.56045  1.0000
  C   C40       1.0  0.85143  0.15046  0.43955  1.0000
  C   C41       1.0  0.11864  0.75588  0.62146  1.0000
  C   C42       1.0  0.88136  0.24411  0.37854  1.0000
  C   C43       1.0  0.14545  0.79609  0.69113  1.0000
  C   C44       1.0  0.85455  0.20391  0.30887  1.0000
  C   C45       1.0  0.20284  0.92930  0.70008  1.0000
  C   C46       1.0  0.79716  0.07070  0.29992  1.0000
  C   C47       1.0  0.72684  0.07444  0.99260  1.0000
  C   C48       1.0  0.27316  0.92556  0.00740  1.0000
  C   C49       1.0  0.02593  0.72228  0.89928  1.0000
  C   C50       1.0  0.97407  0.27773  0.10072  1.0000
  S   S1        1.0  0.62460  0.22731  0.95951  1.0000
  S   S2        1.0  0.37540  0.77268  0.04050  1.0000
  Br  Br1       1.0  0.95081  0.45421  0.73734  1.0000
  Br  Br2       1.0  0.04919  0.54579  0.26266  1.0000
  Br  Br3       1.0  0.37472  0.49134  0.78514  1.0000
  Br  Br4       1.0  0.62528  0.50867  0.21484  1.0000
  Br  Br5       1.0  0.10471  0.16937  0.86486  1.0000
  Br  Br6       1.0  0.89528  0.83063  0.13514  1.0000
  O   O1        1.0  0.45865  0.21412  0.98355  1.0000
  O   O2        1.0  0.54136  0.78589  0.01645  1.0000
  O   O3        1.0  0.68760  0.35732  0.98138  1.0000
  O   O4        1.0  0.31241  0.64269  0.01862  1.0000
  O   O5        1.0  0.98299  0.57569  0.90831  1.0000
  O   O6        1.0  0.01700  0.42432  0.09169  1.0000
