data_image0
_chemical_formula_structural       H16Pb4C16O24
_chemical_formula_sum              "H16 Pb4 C16 O24"
_cell_length_a       8.07816
_cell_length_b       8.26163
_cell_length_c       8.91933
_cell_angle_alpha    89.9998
_cell_angle_beta     90
_cell_angle_gamma    90.0006

_space_group_name_H-M_alt    "P 1"
_space_group_IT_number       1

loop_
  _space_group_symop_operation_xyz
  'x, y, z'

loop_
  _atom_site_type_symbol
  _atom_site_label
  _atom_site_symmetry_multiplicity
  _atom_site_fract_x
  _atom_site_fract_y
  _atom_site_fract_z
  _atom_site_occupancy
  H   H1        1.0  0.71662  0.84893  0.02571  1.0000
  H   H2        1.0  0.78338  0.34892  0.97429  1.0000
  H   H3        1.0  0.28338  0.65108  0.52570  1.0000
  H   H4        1.0  0.21662  0.15108  0.47430  1.0000
  H   H5        1.0  0.62298  0.86084  0.77267  1.0000
  H   H6        1.0  0.87703  0.36084  0.22734  1.0000
  H   H7        1.0  0.37702  0.63916  0.27266  1.0000
  H   H8        1.0  0.12298  0.13916  0.72734  1.0000
  H   H9        1.0  0.75776  0.59170  0.08880  1.0000
  H   H10       1.0  0.74224  0.09170  0.91120  1.0000
  H   H11       1.0  0.24224  0.90830  0.58880  1.0000
  H   H12       1.0  0.25776  0.40830  0.41120  1.0000
  H   H13       1.0  0.87149  0.61736  0.71241  1.0000
  H   H14       1.0  0.62851  0.11735  0.28758  1.0000
  H   H15       1.0  0.12851  0.88264  0.21242  1.0000
  H   H16       1.0  0.37149  0.38264  0.78759  1.0000
  Pb  Pb1       1.0  0.15543  0.54797  0.00583  1.0000
  Pb  Pb2       1.0  0.34458  0.04797  0.99416  1.0000
  Pb  Pb3       1.0  0.84457  0.95203  0.50583  1.0000
  Pb  Pb4       1.0  0.65543  0.45203  0.49417  1.0000
  C   C1        1.0  0.93337  0.87803  0.88754  1.0000
  C   C2        1.0  0.56663  0.37803  0.11245  1.0000
  C   C3        1.0  0.06663  0.62196  0.38753  1.0000
  C   C4        1.0  0.43337  0.12196  0.61246  1.0000
  C   C5        1.0  0.78722  0.77538  0.94503  1.0000
  C   C6        1.0  0.71278  0.27538  0.05498  1.0000
  C   C7        1.0  0.21278  0.72462  0.44502  1.0000
  C   C8        1.0  0.28722  0.22462  0.55498  1.0000
  C   C9        1.0  0.67852  0.74430  0.80554  1.0000
  C   C10       1.0  0.82148  0.24431  0.19446  1.0000
  C   C11       1.0  0.32148  0.75570  0.30554  1.0000
  C   C12       1.0  0.17852  0.25569  0.69446  1.0000
  C   C13       1.0  0.53013  0.63404  0.83398  1.0000
  C   C14       1.0  0.96987  0.13404  0.16602  1.0000
  C   C15       1.0  0.46987  0.86596  0.33397  1.0000
  C   C16       1.0  0.03013  0.36596  0.66603  1.0000
  O   O1        1.0  0.07959  0.82485  0.89810  1.0000
  O   O2        1.0  0.42041  0.32484  0.10190  1.0000
  O   O3        1.0  0.92041  0.67515  0.39810  1.0000
  O   O4        1.0  0.57959  0.17515  0.60190  1.0000
  O   O5        1.0  0.89448  0.01208  0.82569  1.0000
  O   O6        1.0  0.60552  0.51208  0.17430  1.0000
  O   O7        1.0  0.10552  0.48792  0.32569  1.0000
  O   O8        1.0  0.39448  0.98792  0.67431  1.0000
  O   O9        1.0  0.84481  0.63222  0.01524  1.0000
  O   O10       1.0  0.65519  0.13222  0.98476  1.0000
  O   O11       1.0  0.15519  0.86778  0.51523  1.0000
  O   O12       1.0  0.34481  0.36779  0.48477  1.0000
  O   O13       1.0  0.77633  0.69191  0.68161  1.0000
  O   O14       1.0  0.72368  0.19191  0.31839  1.0000
  O   O15       1.0  0.22367  0.80810  0.18161  1.0000
  O   O16       1.0  0.27632  0.30809  0.81840  1.0000
  O   O17       1.0  0.42215  0.68791  0.92388  1.0000
  O   O18       1.0  0.07784  0.18790  0.07612  1.0000
  O   O19       1.0  0.57785  0.81209  0.42388  1.0000
  O   O20       1.0  0.92216  0.31209  0.57612  1.0000
  O   O21       1.0  0.52292  0.49951  0.76374  1.0000
  O   O22       1.0  0.97707  0.99951  0.23626  1.0000
  O   O23       1.0  0.47708  0.00049  0.26374  1.0000
  O   O24       1.0  0.02292  0.50049  0.73626  1.0000
