data_image0
_chemical_formula_structural       Na4Zn4H28C44O32
_chemical_formula_sum              "Na4 Zn4 H28 C44 O32"
_cell_length_a       6.71556
_cell_length_b       10.1349
_cell_length_c       18.0774
_cell_angle_alpha    101.55
_cell_angle_beta     90
_cell_angle_gamma    90

_space_group_name_H-M_alt    "P 1"
_space_group_IT_number       1

loop_
  _space_group_symop_operation_xyz
  'x, y, z'

loop_
  _atom_site_type_symbol
  _atom_site_label
  _atom_site_symmetry_multiplicity
  _atom_site_fract_x
  _atom_site_fract_y
  _atom_site_fract_z
  _atom_site_occupancy
  Na  Na1       1.0  0.75094  0.02505  0.01478  1.0000
  Na  Na2       1.0  0.25095  0.97495  0.48522  1.0000
  Na  Na3       1.0  0.24906  0.97495  0.98522  1.0000
  Na  Na4       1.0  0.74906  0.02505  0.51478  1.0000
  Zn  Zn1       1.0  0.19322  0.64302  0.84093  1.0000
  Zn  Zn2       1.0  0.69322  0.35698  0.65907  1.0000
  Zn  Zn3       1.0  0.80678  0.35698  0.15907  1.0000
  Zn  Zn4       1.0  0.30678  0.64302  0.34093  1.0000
  H   H1        1.0  0.84113  0.93968  0.81804  1.0000
  H   H2        1.0  0.34113  0.06031  0.68196  1.0000
  H   H3        1.0  0.15888  0.06031  0.18196  1.0000
  H   H4        1.0  0.65887  0.93968  0.31804  1.0000
  H   H5        1.0  0.30321  0.53735  0.63723  1.0000
  H   H6        1.0  0.80321  0.46265  0.86277  1.0000
  H   H7        1.0  0.69679  0.46265  0.36277  1.0000
  H   H8        1.0  0.19679  0.53735  0.13723  1.0000
  H   H9        1.0  0.14749  0.67424  0.62211  1.0000
  H   H10       1.0  0.64749  0.32576  0.87789  1.0000
  H   H11       1.0  0.85251  0.32576  0.37789  1.0000
  H   H12       1.0  0.35251  0.67425  0.12211  1.0000
  H   H13       1.0  0.00177  0.89912  0.69110  1.0000
  H   H14       1.0  0.50177  0.10088  0.80890  1.0000
  H   H15       1.0  0.99823  0.10088  0.30890  1.0000
  H   H16       1.0  0.49822  0.89912  0.19110  1.0000
  H   H17       1.0  0.48870  0.66960  0.59850  1.0000
  H   H18       1.0  0.98870  0.33040  0.90150  1.0000
  H   H19       1.0  0.51131  0.33040  0.40150  1.0000
  H   H20       1.0  0.01130  0.66960  0.09850  1.0000
  H   H21       1.0  0.73232  0.57270  0.52564  1.0000
  H   H22       1.0  0.23232  0.42731  0.97436  1.0000
  H   H23       1.0  0.26768  0.42731  0.47436  1.0000
  H   H24       1.0  0.76768  0.57270  0.02564  1.0000
  H   H25       1.0  0.88454  0.64758  0.46465  1.0000
  H   H26       1.0  0.38454  0.35242  0.03535  1.0000
  H   H27       1.0  0.11546  0.35242  0.53535  1.0000
  H   H28       1.0  0.61546  0.64758  0.96465  1.0000
  C   C1        1.0  0.76519  0.88040  0.76922  1.0000
  C   C2        1.0  0.26519  0.11960  0.73078  1.0000
  C   C3        1.0  0.23481  0.11960  0.23078  1.0000
  C   C4        1.0  0.73480  0.88040  0.26922  1.0000
  C   C5        1.0  0.57544  0.82937  0.78123  1.0000
  C   C6        1.0  0.07544  0.17063  0.71877  1.0000
  C   C7        1.0  0.42456  0.17063  0.21877  1.0000
  C   C8        1.0  0.92455  0.82937  0.28123  1.0000
  C   C9        1.0  0.47749  0.75284  0.71756  1.0000
  C   C10       1.0  0.97749  0.24716  0.78244  1.0000
  C   C11       1.0  0.52251  0.24716  0.28244  1.0000
  C   C12       1.0  0.02251  0.75284  0.21756  1.0000
  C   C13       1.0  0.48980  0.86663  0.85847  1.0000
  C   C14       1.0  0.98980  0.13337  0.64153  1.0000
  C   C15       1.0  0.51020  0.13337  0.14153  1.0000
  C   C16       1.0  0.01019  0.86663  0.35847  1.0000
  C   C17       1.0  0.19914  0.61667  0.66397  1.0000
  C   C18       1.0  0.69914  0.38333  0.83603  1.0000
  C   C19       1.0  0.80086  0.38333  0.33603  1.0000
  C   C20       1.0  0.30086  0.61667  0.16397  1.0000
  C   C21       1.0  0.85502  0.85893  0.69897  1.0000
  C   C22       1.0  0.35502  0.14107  0.80103  1.0000
  C   C23       1.0  0.14499  0.14107  0.30103  1.0000
  C   C24       1.0  0.64498  0.85893  0.19897  1.0000
  C   C25       1.0  0.02356  0.54789  0.69255  1.0000
  C   C26       1.0  0.52356  0.45211  0.80745  1.0000
  C   C27       1.0  0.97644  0.45211  0.30744  1.0000
  C   C28       1.0  0.47644  0.54789  0.19255  1.0000
  C   C29       1.0  0.75414  0.78273  0.63694  1.0000
  C   C30       1.0  0.25413  0.21727  0.86306  1.0000
  C   C31       1.0  0.24587  0.21727  0.36306  1.0000
  C   C32       1.0  0.74586  0.78273  0.13694  1.0000
  C   C33       1.0  0.56622  0.72935  0.64628  1.0000
  C   C34       1.0  0.06621  0.27065  0.85372  1.0000
  C   C35       1.0  0.43379  0.27065  0.35372  1.0000
  C   C36       1.0  0.93379  0.72935  0.14628  1.0000
  C   C37       1.0  0.76699  0.66778  0.50777  1.0000
  C   C38       1.0  0.26699  0.33222  0.99223  1.0000
  C   C39       1.0  0.23301  0.33222  0.49223  1.0000
  C   C40       1.0  0.73301  0.66779  0.00777  1.0000
  C   C41       1.0  0.58293  0.71865  0.47190  1.0000
  C   C42       1.0  0.08293  0.28135  0.02810  1.0000
  C   C43       1.0  0.41707  0.28135  0.52810  1.0000
  C   C44       1.0  0.91707  0.71866  0.97190  1.0000
  O   O1        1.0  0.29075  0.70367  0.72700  1.0000
  O   O2        1.0  0.79075  0.29633  0.77300  1.0000
  O   O3        1.0  0.70925  0.29633  0.27300  1.0000
  O   O4        1.0  0.20925  0.70367  0.22700  1.0000
  O   O5        1.0  0.99540  0.55686  0.76271  1.0000
  O   O6        1.0  0.49540  0.44313  0.73729  1.0000
  O   O7        1.0  0.00460  0.44314  0.23729  1.0000
  O   O8        1.0  0.50460  0.55686  0.26271  1.0000
  O   O9        1.0  0.31840  0.81940  0.87475  1.0000
  O   O10       1.0  0.81841  0.18060  0.62524  1.0000
  O   O11       1.0  0.68160  0.18060  0.12525  1.0000
  O   O12       1.0  0.18159  0.81940  0.37476  1.0000
  O   O13       1.0  0.58088  0.94989  0.90798  1.0000
  O   O14       1.0  0.08088  0.05010  0.59202  1.0000
  O   O15       1.0  0.41912  0.05011  0.09202  1.0000
  O   O16       1.0  0.91912  0.94990  0.40798  1.0000
  O   O17       1.0  0.91500  0.47983  0.64095  1.0000
  O   O18       1.0  0.41499  0.52017  0.85905  1.0000
  O   O19       1.0  0.08501  0.52017  0.35905  1.0000
  O   O20       1.0  0.58500  0.47984  0.14095  1.0000
  O   O21       1.0  0.85078  0.76335  0.56901  1.0000
  O   O22       1.0  0.35078  0.23665  0.93099  1.0000
  O   O23       1.0  0.14923  0.23665  0.43099  1.0000
  O   O24       1.0  0.64922  0.76335  0.06901  1.0000
  O   O25       1.0  0.49591  0.62496  0.42443  1.0000
  O   O26       1.0  0.99591  0.37504  0.07557  1.0000
  O   O27       1.0  0.50410  0.37504  0.57557  1.0000
  O   O28       1.0  0.00410  0.62496  0.92443  1.0000
  O   O29       1.0  0.53336  0.84004  0.48920  1.0000
  O   O30       1.0  0.03336  0.15996  0.01080  1.0000
  O   O31       1.0  0.46664  0.15996  0.51081  1.0000
  O   O32       1.0  0.96664  0.84004  0.98920  1.0000
