data_image0
_chemical_formula_structural       Na2Zn2H34C46N4O18
_chemical_formula_sum              "Na2 Zn2 H34 C46 N4 O18"
_cell_length_a       8.98479
_cell_length_b       10.4292
_cell_length_c       12.4911
_cell_angle_alpha    97.867
_cell_angle_beta     98.2307
_cell_angle_gamma    96.6906

_space_group_name_H-M_alt    "P 1"
_space_group_IT_number       1

loop_
  _space_group_symop_operation_xyz
  'x, y, z'

loop_
  _atom_site_type_symbol
  _atom_site_label
  _atom_site_symmetry_multiplicity
  _atom_site_fract_x
  _atom_site_fract_y
  _atom_site_fract_z
  _atom_site_occupancy
  Na  Na1       1.0  0.64575  0.08828  0.97629  1.0000
  Na  Na2       1.0  0.35425  0.91172  0.02370  1.0000
  Zn  Zn1       1.0  0.69094  0.29790  0.20671  1.0000
  Zn  Zn2       1.0  0.30906  0.70210  0.79329  1.0000
  H   H1        1.0  0.48528  0.07431  0.30096  1.0000
  H   H2        1.0  0.51472  0.92568  0.69904  1.0000
  H   H3        1.0  0.37446  0.06161  0.47433  1.0000
  H   H4        1.0  0.62554  0.93838  0.52567  1.0000
  H   H5        1.0  0.45059  0.24511  0.63104  1.0000
  H   H6        1.0  0.54941  0.75488  0.36896  1.0000
  H   H7        1.0  0.59796  0.47123  0.70325  1.0000
  H   H8        1.0  0.40204  0.52876  0.29675  1.0000
  H   H9        1.0  0.79420  0.64898  0.68046  1.0000
  H   H10       1.0  0.20579  0.35102  0.31954  1.0000
  H   H11       1.0  0.96560  0.74711  0.56415  1.0000
  H   H12       1.0  0.03439  0.25288  0.43585  1.0000
  H   H13       1.0  0.04880  0.73957  0.37806  1.0000
  H   H14       1.0  0.95119  0.26042  0.62194  1.0000
  H   H15       1.0  0.08392  0.54707  0.10430  1.0000
  H   H16       1.0  0.91609  0.45294  0.89571  1.0000
  H   H17       1.0  0.27336  0.51260  0.13648  1.0000
  H   H18       1.0  0.72664  0.48741  0.86352  1.0000
  H   H19       1.0  0.31387  0.91331  0.31425  1.0000
  H   H20       1.0  0.68613  0.08670  0.68576  1.0000
  H   H21       1.0  0.16288  0.10232  0.31768  1.0000
  H   H22       1.0  0.83713  0.89769  0.68232  1.0000
  H   H23       1.0  0.99371  0.70814  0.03891  1.0000
  H   H24       1.0  0.00629  0.29187  0.96109  1.0000
  H   H25       1.0  0.76677  0.68867  0.99989  1.0000
  H   H26       1.0  0.23323  0.31133  0.00011  1.0000
  H   H27       1.0  0.84003  0.76161  0.89270  1.0000
  H   H28       1.0  0.15998  0.23839  0.10731  1.0000
  H   H29       1.0  0.92956  0.55516  0.22911  1.0000
  H   H30       1.0  0.07043  0.44484  0.77089  1.0000
  H   H31       1.0  0.36210  0.03522  0.82222  1.0000
  H   H32       1.0  0.63791  0.96479  0.17778  1.0000
  H   H33       1.0  0.40226  0.18692  0.83305  1.0000
  H   H34       1.0  0.59775  0.81309  0.16695  1.0000
  C   C1        1.0  0.51353  0.15348  0.37033  1.0000
  C   C2        1.0  0.48647  0.84651  0.62967  1.0000
  C   C3        1.0  0.45251  0.14716  0.46759  1.0000
  C   C4        1.0  0.54748  0.85283  0.53241  1.0000
  C   C5        1.0  0.49362  0.24915  0.55397  1.0000
  C   C6        1.0  0.50638  0.75084  0.44603  1.0000
  C   C7        1.0  0.59513  0.35863  0.54261  1.0000
  C   C8        1.0  0.40487  0.64135  0.45739  1.0000
  C   C9        1.0  0.64505  0.46837  0.62742  1.0000
  C   C10       1.0  0.35495  0.53162  0.37258  1.0000
  C   C11       1.0  0.75046  0.56806  0.61428  1.0000
  C   C12       1.0  0.24954  0.43193  0.38572  1.0000
  C   C13       1.0  0.80863  0.56849  0.51334  1.0000
  C   C14       1.0  0.19136  0.43150  0.48666  1.0000
  C   C15       1.0  0.91829  0.66910  0.49621  1.0000
  C   C16       1.0  0.08170  0.33090  0.50379  1.0000
  C   C17       1.0  0.96463  0.66415  0.39506  1.0000
  C   C18       1.0  0.03537  0.33585  0.60494  1.0000
  C   C19       1.0  0.75443  0.46508  0.42500  1.0000
  C   C20       1.0  0.24556  0.53491  0.57500  1.0000
  C   C21       1.0  0.65000  0.35663  0.44129  1.0000
  C   C22       1.0  0.34999  0.64336  0.55871  1.0000
  C   C23       1.0  0.22709  0.58420  0.98530  1.0000
  C   C24       1.0  0.77290  0.41580  0.01471  1.0000
  C   C25       1.0  0.20418  0.58314  0.10435  1.0000
  C   C26       1.0  0.79582  0.41687  0.89565  1.0000
  C   C27       1.0  0.16118  0.79929  0.17748  1.0000
  C   C28       1.0  0.83882  0.20071  0.82252  1.0000
  C   C29       1.0  0.20986  0.91063  0.25705  1.0000
  C   C30       1.0  0.79015  0.08937  0.74295  1.0000
  C   C31       1.0  0.12536  0.01374  0.25814  1.0000
  C   C32       1.0  0.87464  0.98627  0.74185  1.0000
  C   C33       1.0  0.99013  0.01028  0.18502  1.0000
  C   C34       1.0  0.00987  0.98972  0.81497  1.0000
  C   C35       1.0  0.94337  0.89727  0.10494  1.0000
  C   C36       1.0  0.05663  0.10273  0.89506  1.0000
  C   C37       1.0  0.02983  0.79354  0.10105  1.0000
  C   C38       1.0  0.97018  0.20647  0.89895  1.0000
  C   C39       1.0  0.90820  0.12688  0.19905  1.0000
  C   C40       1.0  0.09181  0.87312  0.80094  1.0000
  C   C41       1.0  0.76507  0.77261  0.95514  1.0000
  C   C42       1.0  0.23494  0.22739  0.04487  1.0000
  C   C43       1.0  0.60401  0.77310  0.89954  1.0000
  C   C44       1.0  0.39600  0.22690  0.10045  1.0000
  C   C45       1.0  0.90109  0.55989  0.31114  1.0000
  C   C46       1.0  0.09891  0.44011  0.68886  1.0000
  N   N1        1.0  0.60964  0.25538  0.35795  1.0000
  N   N2        1.0  0.39036  0.74462  0.64205  1.0000
  N   N3        1.0  0.79840  0.46306  0.32513  1.0000
  N   N4        1.0  0.20160  0.53694  0.67487  1.0000
  O   O1        1.0  0.76077  0.11026  0.17537  1.0000
  O   O2        1.0  0.23923  0.88975  0.82463  1.0000
  O   O3        1.0  0.53719  0.66506  0.84289  1.0000
  O   O4        1.0  0.46282  0.33494  0.15711  1.0000
  O   O5        1.0  0.54367  0.87635  0.91182  1.0000
  O   O6        1.0  0.45634  0.12365  0.08817  1.0000
  O   O7        1.0  0.81560  0.89364  0.03002  1.0000
  O   O8        1.0  0.18441  0.10636  0.96998  1.0000
  O   O9        1.0  0.98289  0.23735  0.23649  1.0000
  O   O10       1.0  0.01711  0.76266  0.76351  1.0000
  O   O11       1.0  0.25126  0.70261  0.17922  1.0000
  O   O12       1.0  0.74875  0.29740  0.82078  1.0000
  O   O13       1.0  0.27236  0.69272  0.95502  1.0000
  O   O14       1.0  0.72764  0.30728  0.04498  1.0000
  O   O15       1.0  0.19648  0.47483  0.92584  1.0000
  O   O16       1.0  0.80351  0.52517  0.07417  1.0000
  O   O17       1.0  0.44443  0.10602  0.81755  1.0000
  O   O18       1.0  0.55558  0.89399  0.18245  1.0000
