data_image0
_chemical_formula_structural       Cd4H28C28N20O8
_chemical_formula_sum              "Cd4 H28 C28 N20 O8"
_cell_length_a       7.00765
_cell_length_b       8.40906
_cell_length_c       16.0607
_cell_angle_alpha    89.9999
_cell_angle_beta     90
_cell_angle_gamma    113.771

_space_group_name_H-M_alt    "P 1"
_space_group_IT_number       1

loop_
  _space_group_symop_operation_xyz
  'x, y, z'

loop_
  _atom_site_type_symbol
  _atom_site_label
  _atom_site_symmetry_multiplicity
  _atom_site_fract_x
  _atom_site_fract_y
  _atom_site_fract_z
  _atom_site_occupancy
  Cd  Cd1       1.0  0.38299  0.65174  0.69337  1.0000
  Cd  Cd2       1.0  0.11701  0.34826  0.19337  1.0000
  Cd  Cd3       1.0  0.61701  0.34826  0.30663  1.0000
  Cd  Cd4       1.0  0.88299  0.65174  0.80663  1.0000
  H   H1        1.0  0.75760  0.88005  0.98963  1.0000
  H   H2        1.0  0.74240  0.11995  0.48963  1.0000
  H   H3        1.0  0.24240  0.11995  0.01037  1.0000
  H   H4        1.0  0.25760  0.88005  0.51037  1.0000
  H   H5        1.0  0.83466  0.39431  0.06288  1.0000
  H   H6        1.0  0.66535  0.60569  0.56288  1.0000
  H   H7        1.0  0.16535  0.60569  0.93712  1.0000
  H   H8        1.0  0.33465  0.39431  0.43712  1.0000
  H   H9        1.0  0.58512  0.19874  0.82110  1.0000
  H   H10       1.0  0.91488  0.80126  0.32110  1.0000
  H   H11       1.0  0.41488  0.80126  0.17890  1.0000
  H   H12       1.0  0.08512  0.19873  0.67890  1.0000
  H   H13       1.0  0.91423  0.00891  0.11889  1.0000
  H   H14       1.0  0.58577  0.99110  0.61889  1.0000
  H   H15       1.0  0.08577  0.99110  0.88111  1.0000
  H   H16       1.0  0.41423  0.00890  0.38111  1.0000
  H   H17       1.0  0.75209  0.08823  0.15798  1.0000
  H   H18       1.0  0.74791  0.91177  0.65798  1.0000
  H   H19       1.0  0.24791  0.91177  0.84202  1.0000
  H   H20       1.0  0.25209  0.08823  0.34202  1.0000
  H   H21       1.0  0.72580  0.55430  0.97248  1.0000
  H   H22       1.0  0.77420  0.44570  0.47248  1.0000
  H   H23       1.0  0.27420  0.44570  0.02752  1.0000
  H   H24       1.0  0.22580  0.55430  0.52752  1.0000
  H   H25       1.0  0.54870  0.45370  0.89983  1.0000
  H   H26       1.0  0.95130  0.54631  0.39983  1.0000
  H   H27       1.0  0.45130  0.54631  0.10017  1.0000
  H   H28       1.0  0.04870  0.45369  0.60017  1.0000
  C   C1        1.0  0.58017  0.87850  0.83919  1.0000
  C   C2        1.0  0.91983  0.12150  0.33919  1.0000
  C   C3        1.0  0.41983  0.12150  0.16081  1.0000
  C   C4        1.0  0.08017  0.87850  0.66081  1.0000
  C   C5        1.0  0.66914  0.02737  0.89872  1.0000
  C   C6        1.0  0.83086  0.97263  0.39872  1.0000
  C   C7        1.0  0.33086  0.97263  0.10127  1.0000
  C   C8        1.0  0.16914  0.02736  0.60127  1.0000
  C   C9        1.0  0.75132  0.00423  0.97500  1.0000
  C   C10       1.0  0.74868  0.99577  0.47500  1.0000
  C   C11       1.0  0.24868  0.99577  0.02500  1.0000
  C   C12       1.0  0.25133  0.00423  0.52500  1.0000
  C   C13       1.0  0.80868  0.13636  0.03450  1.0000
  C   C14       1.0  0.69132  0.86364  0.53450  1.0000
  C   C15       1.0  0.19132  0.86364  0.96550  1.0000
  C   C16       1.0  0.30868  0.13636  0.46550  1.0000
  C   C17       1.0  0.79180  0.29242  0.01613  1.0000
  C   C18       1.0  0.70821  0.70758  0.51613  1.0000
  C   C19       1.0  0.20821  0.70759  0.98387  1.0000
  C   C20       1.0  0.29180  0.29241  0.48386  1.0000
  C   C21       1.0  0.71257  0.31617  0.93963  1.0000
  C   C22       1.0  0.78743  0.68383  0.43963  1.0000
  C   C23       1.0  0.28743  0.68383  0.06037  1.0000
  C   C24       1.0  0.21257  0.31617  0.56037  1.0000
  C   C25       1.0  0.65067  0.18324  0.88053  1.0000
  C   C26       1.0  0.84933  0.81676  0.38053  1.0000
  C   C27       1.0  0.34933  0.81676  0.11947  1.0000
  C   C28       1.0  0.15067  0.18324  0.61947  1.0000
  N   N1        1.0  0.87397  0.11315  0.11635  1.0000
  N   N2        1.0  0.62603  0.88685  0.61635  1.0000
  N   N3        1.0  0.12603  0.88685  0.88365  1.0000
  N   N4        1.0  0.37397  0.11315  0.38365  1.0000
  N   N5        1.0  0.69545  0.47511  0.92132  1.0000
  N   N6        1.0  0.80455  0.52489  0.42132  1.0000
  N   N7        1.0  0.30455  0.52489  0.07869  1.0000
  N   N8        1.0  0.19545  0.47511  0.57868  1.0000
  N   N9        1.0  0.60978  0.48512  0.71377  1.0000
  N   N10       1.0  0.89021  0.51488  0.21377  1.0000
  N   N11       1.0  0.39021  0.51487  0.28623  1.0000
  N   N12       1.0  0.10979  0.48512  0.78623  1.0000
  N   N13       1.0  0.66213  0.40507  0.66305  1.0000
  N   N14       1.0  0.83787  0.59493  0.16305  1.0000
  N   N15       1.0  0.33787  0.59494  0.33696  1.0000
  N   N16       1.0  0.16213  0.40506  0.83696  1.0000
  N   N17       1.0  0.71554  0.32836  0.61398  1.0000
  N   N18       1.0  0.78446  0.67164  0.11397  1.0000
  N   N19       1.0  0.28446  0.67164  0.38603  1.0000
  N   N20       1.0  0.21554  0.32836  0.88603  1.0000
  O   O1        1.0  0.46391  0.89384  0.78052  1.0000
  O   O2        1.0  0.03608  0.10616  0.28052  1.0000
  O   O3        1.0  0.53608  0.10616  0.21948  1.0000
  O   O4        1.0  0.96392  0.89384  0.71947  1.0000
  O   O5        1.0  0.61222  0.74216  0.84994  1.0000
  O   O6        1.0  0.88778  0.25784  0.34994  1.0000
  O   O7        1.0  0.38778  0.25784  0.15006  1.0000
  O   O8        1.0  0.11222  0.74216  0.65006  1.0000
