data_image0
_chemical_formula_structural       Mn4H24C28N16O8
_chemical_formula_sum              "Mn4 H24 C28 N16 O8"
_cell_length_a       7.8687
_cell_length_b       9.1794
_cell_length_c       10.9322
_cell_angle_alpha    89.9999
_cell_angle_beta     89.9999
_cell_angle_gamma    102.678

_space_group_name_H-M_alt    "P 1"
_space_group_IT_number       1

loop_
  _space_group_symop_operation_xyz
  'x, y, z'

loop_
  _atom_site_type_symbol
  _atom_site_label
  _atom_site_symmetry_multiplicity
  _atom_site_fract_x
  _atom_site_fract_y
  _atom_site_fract_z
  _atom_site_occupancy
  Mn  Mn1       1.0  0.37542  0.51177  0.87084  1.0000
  Mn  Mn2       1.0  0.12458  0.48824  0.37084  1.0000
  Mn  Mn3       1.0  0.62457  0.48823  0.12916  1.0000
  Mn  Mn4       1.0  0.87542  0.51177  0.62916  1.0000
  H   H1        1.0  0.19830  0.33024  0.04718  1.0000
  H   H2        1.0  0.30170  0.66976  0.54718  1.0000
  H   H3        1.0  0.80171  0.66975  0.95282  1.0000
  H   H4        1.0  0.69828  0.33025  0.45282  1.0000
  H   H5        1.0  0.05867  0.35677  0.93772  1.0000
  H   H6        1.0  0.44134  0.64323  0.43772  1.0000
  H   H7        1.0  0.94134  0.64323  0.06229  1.0000
  H   H8        1.0  0.55866  0.35677  0.56229  1.0000
  H   H9        1.0  0.30295  0.86077  0.99728  1.0000
  H   H10       1.0  0.19705  0.13923  0.49729  1.0000
  H   H11       1.0  0.69706  0.13923  0.00272  1.0000
  H   H12       1.0  0.80295  0.86078  0.50271  1.0000
  H   H13       1.0  0.32445  0.12466  0.06140  1.0000
  H   H14       1.0  0.17555  0.87534  0.56140  1.0000
  H   H15       1.0  0.67555  0.87534  0.93860  1.0000
  H   H16       1.0  0.82446  0.12466  0.43860  1.0000
  H   H17       1.0  0.98852  0.18511  0.76314  1.0000
  H   H18       1.0  0.51149  0.81490  0.26314  1.0000
  H   H19       1.0  0.01148  0.81490  0.23686  1.0000
  H   H20       1.0  0.48851  0.18510  0.73686  1.0000
  H   H21       1.0  0.98024  0.92747  0.69412  1.0000
  H   H22       1.0  0.51976  0.07254  0.19412  1.0000
  H   H23       1.0  0.01976  0.07253  0.30588  1.0000
  H   H24       1.0  0.48024  0.92746  0.80588  1.0000
  C   C1        1.0  0.13080  0.72117  0.79940  1.0000
  C   C2        1.0  0.36920  0.27883  0.29940  1.0000
  C   C3        1.0  0.86920  0.27883  0.20060  1.0000
  C   C4        1.0  0.63080  0.72117  0.70059  1.0000
  C   C5        1.0  0.14011  0.87629  0.84073  1.0000
  C   C6        1.0  0.35989  0.12371  0.34073  1.0000
  C   C7        1.0  0.85988  0.12371  0.15927  1.0000
  C   C8        1.0  0.64011  0.87629  0.65927  1.0000
  C   C9        1.0  0.23631  0.93287  0.94527  1.0000
  C   C10       1.0  0.26369  0.06714  0.44527  1.0000
  C   C11       1.0  0.76369  0.06713  0.05473  1.0000
  C   C12       1.0  0.73631  0.93287  0.55473  1.0000
  C   C13       1.0  0.24878  0.07964  0.98123  1.0000
  C   C14       1.0  0.25122  0.92036  0.48123  1.0000
  C   C15       1.0  0.75122  0.92036  0.01877  1.0000
  C   C16       1.0  0.74878  0.07964  0.51877  1.0000
  C   C17       1.0  0.15930  0.17148  0.91631  1.0000
  C   C18       1.0  0.34071  0.82853  0.41631  1.0000
  C   C19       1.0  0.84071  0.82852  0.08370  1.0000
  C   C20       1.0  0.65929  0.17147  0.58369  1.0000
  C   C21       1.0  0.06215  0.11602  0.81231  1.0000
  C   C22       1.0  0.43785  0.88399  0.31231  1.0000
  C   C23       1.0  0.93785  0.88398  0.18769  1.0000
  C   C24       1.0  0.56215  0.11601  0.68769  1.0000
  C   C25       1.0  0.05562  0.97066  0.77457  1.0000
  C   C26       1.0  0.44439  0.02935  0.27457  1.0000
  C   C27       1.0  0.94438  0.02934  0.22543  1.0000
  C   C28       1.0  0.55562  0.97065  0.72543  1.0000
  N   N1        1.0  0.17035  0.32035  0.95576  1.0000
  N   N2        1.0  0.32965  0.67965  0.45576  1.0000
  N   N3        1.0  0.82965  0.67965  0.04425  1.0000
  N   N4        1.0  0.67035  0.32035  0.54425  1.0000
  N   N5        1.0  0.42251  0.60418  0.07022  1.0000
  N   N6        1.0  0.07749  0.39582  0.57022  1.0000
  N   N7        1.0  0.57749  0.39582  0.92978  1.0000
  N   N8        1.0  0.92251  0.60418  0.42977  1.0000
  N   N9        1.0  0.29634  0.59831  0.13233  1.0000
  N   N10       1.0  0.20366  0.40169  0.63233  1.0000
  N   N11       1.0  0.70366  0.40169  0.86767  1.0000
  N   N12       1.0  0.79634  0.59831  0.36766  1.0000
  N   N13       1.0  0.17058  0.59063  0.19325  1.0000
  N   N14       1.0  0.32941  0.40937  0.69325  1.0000
  N   N15       1.0  0.82942  0.40937  0.80675  1.0000
  N   N16       1.0  0.67058  0.59062  0.30675  1.0000
  O   O1        1.0  0.18174  0.63028  0.87212  1.0000
  O   O2        1.0  0.31826  0.36972  0.37212  1.0000
  O   O3        1.0  0.81826  0.36971  0.12788  1.0000
  O   O4        1.0  0.68174  0.63028  0.62788  1.0000
  O   O5        1.0  0.07190  0.68443  0.69138  1.0000
  O   O6        1.0  0.42809  0.31557  0.19138  1.0000
  O   O7        1.0  0.92810  0.31557  0.30862  1.0000
  O   O8        1.0  0.57191  0.68443  0.80862  1.0000
