data_image0
_chemical_formula_structural       Ho2H28C42S4N12
_chemical_formula_sum              "Ho2 H28 C42 S4 N12"
_cell_length_a       9.96773
_cell_length_b       10.2238
_cell_length_c       10.4972
_cell_angle_alpha    88.4501
_cell_angle_beta     84.4214
_cell_angle_gamma    67.2937

_space_group_name_H-M_alt    "P 1"
_space_group_IT_number       1

loop_
  _space_group_symop_operation_xyz
  'x, y, z'

loop_
  _atom_site_type_symbol
  _atom_site_label
  _atom_site_symmetry_multiplicity
  _atom_site_fract_x
  _atom_site_fract_y
  _atom_site_fract_z
  _atom_site_occupancy
  Ho  Ho1       1.0  0.81650  0.44533  0.03212  1.0000
  Ho  Ho2       1.0  0.18350  0.55467  0.96788  1.0000
  H   H1        1.0  0.01679  0.97033  0.24563  1.0000
  H   H2        1.0  0.98321  0.02967  0.75437  1.0000
  H   H3        1.0  0.19309  0.04966  0.95908  1.0000
  H   H4        1.0  0.80691  0.95034  0.04092  1.0000
  H   H5        1.0  0.18047  0.96409  0.46416  1.0000
  H   H6        1.0  0.81953  0.03591  0.53584  1.0000
  H   H7        1.0  0.25575  0.12813  0.58579  1.0000
  H   H8        1.0  0.74425  0.87187  0.41421  1.0000
  H   H9        1.0  0.18310  0.37995  0.52544  1.0000
  H   H10       1.0  0.81690  0.62005  0.47456  1.0000
  H   H11       1.0  0.03003  0.47896  0.34641  1.0000
  H   H12       1.0  0.96997  0.52104  0.65359  1.0000
  H   H13       1.0  0.39143  0.85820  0.12555  1.0000
  H   H14       1.0  0.60857  0.14181  0.87445  1.0000
  H   H15       1.0  0.56024  0.85982  0.28479  1.0000
  H   H16       1.0  0.43976  0.14018  0.71521  1.0000
  H   H17       1.0  0.59389  0.08020  0.33428  1.0000
  H   H18       1.0  0.40611  0.91980  0.66572  1.0000
  H   H19       1.0  0.45648  0.30805  0.22936  1.0000
  H   H20       1.0  0.54352  0.69195  0.77064  1.0000
  H   H21       1.0  0.87063  0.32271  0.66127  1.0000
  H   H22       1.0  0.12937  0.67729  0.33873  1.0000
  H   H23       1.0  0.79301  0.26708  0.45856  1.0000
  H   H24       1.0  0.20699  0.73292  0.54144  1.0000
  H   H25       1.0  0.53651  0.29969  0.43935  1.0000
  H   H26       1.0  0.46349  0.70031  0.56065  1.0000
  H   H27       1.0  0.34515  0.39711  0.62164  1.0000
  H   H28       1.0  0.65485  0.60289  0.37836  1.0000
  C   C1        1.0  0.92646  0.17782  0.17223  1.0000
  C   C2        1.0  0.07354  0.82218  0.82777  1.0000
  C   C3        1.0  0.06032  0.13306  0.33981  1.0000
  C   C4        1.0  0.93969  0.86694  0.66019  1.0000
  C   C5        1.0  0.14542  0.07603  0.44064  1.0000
  C   C6        1.0  0.85458  0.92396  0.55936  1.0000
  C   C7        1.0  0.18784  0.16825  0.50698  1.0000
  C   C8        1.0  0.81216  0.83174  0.49302  1.0000
  C   C9        1.0  0.14677  0.31128  0.47287  1.0000
  C   C10       1.0  0.85323  0.68872  0.52713  1.0000
  C   C11       1.0  0.06105  0.36808  0.37220  1.0000
  C   C12       1.0  0.93895  0.63192  0.62780  1.0000
  C   C13       1.0  0.01718  0.27767  0.30527  1.0000
  C   C14       1.0  0.98282  0.72233  0.69473  1.0000
  C   C15       1.0  0.18951  0.25945  0.97409  1.0000
  C   C16       1.0  0.81048  0.74056  0.02591  1.0000
  C   C17       1.0  0.32910  0.08363  0.09011  1.0000
  C   C18       1.0  0.67091  0.91637  0.90989  1.0000
  C   C19       1.0  0.40491  0.95541  0.14826  1.0000
  C   C20       1.0  0.59509  0.04459  0.85174  1.0000
  C   C21       1.0  0.50000  0.95763  0.23644  1.0000
  C   C22       1.0  0.50000  0.04237  0.76356  1.0000
  C   C23       1.0  0.51858  0.08298  0.26461  1.0000
  C   C24       1.0  0.48143  0.91702  0.73539  1.0000
  C   C25       1.0  0.44232  0.21117  0.20674  1.0000
  C   C26       1.0  0.55768  0.78883  0.79326  1.0000
  C   C27       1.0  0.34594  0.21099  0.11852  1.0000
  C   C28       1.0  0.65406  0.78901  0.88148  1.0000
  C   C29       1.0  0.51962  0.47530  0.93460  1.0000
  C   C30       1.0  0.48039  0.52470  0.06540  1.0000
  C   C31       1.0  0.64965  0.39202  0.75671  1.0000
  C   C32       1.0  0.35035  0.60798  0.24329  1.0000
  C   C33       1.0  0.75704  0.33819  0.65392  1.0000
  C   C34       1.0  0.24296  0.66181  0.34608  1.0000
  C   C35       1.0  0.71265  0.30623  0.54091  1.0000
  C   C36       1.0  0.28735  0.69377  0.45909  1.0000
  C   C37       1.0  0.56643  0.32544  0.52965  1.0000
  C   C38       1.0  0.43357  0.67456  0.47035  1.0000
  C   C39       1.0  0.45874  0.37969  0.63050  1.0000
  C   C40       1.0  0.54126  0.62031  0.36950  1.0000
  C   C41       1.0  0.50084  0.41387  0.74419  1.0000
  C   C42       1.0  0.49916  0.58613  0.25581  1.0000
  S   S1        1.0  0.83735  0.16365  0.04584  1.0000
  S   S2        1.0  0.16265  0.83635  0.95416  1.0000
  S   S3        1.0  0.07494  0.35851  0.86222  1.0000
  S   S4        1.0  0.92506  0.64149  0.13778  1.0000
  N   N1        1.0  0.93349  0.30272  0.20197  1.0000
  N   N2        1.0  0.06651  0.69728  0.79803  1.0000
  N   N3        1.0  0.00081  0.07402  0.25401  1.0000
  N   N4        1.0  0.99920  0.92598  0.74599  1.0000
  N   N5        1.0  0.25615  0.31906  0.04528  1.0000
  N   N6        1.0  0.74385  0.68094  0.95472  1.0000
  N   N7        1.0  0.22957  0.11903  0.99879  1.0000
  N   N8        1.0  0.77043  0.88097  0.00121  1.0000
  N   N9        1.0  0.41964  0.46832  0.85895  1.0000
  N   N10       1.0  0.58036  0.53168  0.14105  1.0000
  N   N11       1.0  0.65830  0.43236  0.87954  1.0000
  N   N12       1.0  0.34170  0.56764  0.12045  1.0000
