data_image0
_chemical_formula_structural       Yb2H28C42S4N12
_chemical_formula_sum              "Yb2 H28 C42 S4 N12"
_cell_length_a       9.82914
_cell_length_b       10.1632
_cell_length_c       10.592
_cell_angle_alpha    88.2702
_cell_angle_beta     84.3262
_cell_angle_gamma    67.4355

_space_group_name_H-M_alt    "P 1"
_space_group_IT_number       1

loop_
  _space_group_symop_operation_xyz
  'x, y, z'

loop_
  _atom_site_type_symbol
  _atom_site_label
  _atom_site_symmetry_multiplicity
  _atom_site_fract_x
  _atom_site_fract_y
  _atom_site_fract_z
  _atom_site_occupancy
  Yb  Yb1       1.0  0.81602  0.44538  0.02935  1.0000
  Yb  Yb2       1.0  0.18399  0.55462  0.97065  1.0000
  H   H1        1.0  0.01462  0.97006  0.23981  1.0000
  H   H2        1.0  0.98538  0.02994  0.76019  1.0000
  H   H3        1.0  0.80477  0.95102  0.03716  1.0000
  H   H4        1.0  0.19522  0.04898  0.96284  1.0000
  H   H5        1.0  0.17438  0.96471  0.45948  1.0000
  H   H6        1.0  0.82562  0.03530  0.54052  1.0000
  H   H7        1.0  0.24982  0.12908  0.58136  1.0000
  H   H8        1.0  0.75018  0.87092  0.41864  1.0000
  H   H9        1.0  0.17867  0.38207  0.52062  1.0000
  H   H10       1.0  0.82133  0.61793  0.47937  1.0000
  H   H11       1.0  0.02661  0.48184  0.34172  1.0000
  H   H12       1.0  0.97339  0.51816  0.65828  1.0000
  H   H13       1.0  0.60547  0.14166  0.87020  1.0000
  H   H14       1.0  0.39452  0.85835  0.12980  1.0000
  H   H15       1.0  0.43673  0.13809  0.71113  1.0000
  H   H16       1.0  0.56327  0.86191  0.28887  1.0000
  H   H17       1.0  0.40323  0.91579  0.66318  1.0000
  H   H18       1.0  0.59677  0.08421  0.33682  1.0000
  H   H19       1.0  0.54098  0.68796  0.76943  1.0000
  H   H20       1.0  0.45902  0.31204  0.23057  1.0000
  H   H21       1.0  0.12811  0.67705  0.33790  1.0000
  H   H22       1.0  0.87190  0.32295  0.66210  1.0000
  H   H23       1.0  0.20916  0.73171  0.53796  1.0000
  H   H24       1.0  0.79084  0.26829  0.46204  1.0000
  H   H25       1.0  0.47022  0.69705  0.55504  1.0000
  H   H26       1.0  0.52978  0.30295  0.44496  1.0000
  H   H27       1.0  0.66243  0.59858  0.37317  1.0000
  H   H28       1.0  0.33757  0.40141  0.62683  1.0000
  C   C1        1.0  0.92344  0.17879  0.16688  1.0000
  C   C2        1.0  0.07656  0.82121  0.83312  1.0000
  C   C3        1.0  0.05596  0.13426  0.33463  1.0000
  C   C4        1.0  0.94404  0.86574  0.66537  1.0000
  C   C5        1.0  0.14020  0.07701  0.43566  1.0000
  C   C6        1.0  0.85980  0.92299  0.56434  1.0000
  C   C7        1.0  0.18251  0.16953  0.50227  1.0000
  C   C8        1.0  0.81748  0.83047  0.49773  1.0000
  C   C9        1.0  0.14205  0.31320  0.46815  1.0000
  C   C10       1.0  0.85795  0.68680  0.53185  1.0000
  C   C11       1.0  0.05690  0.37040  0.36732  1.0000
  C   C12       1.0  0.94310  0.62960  0.63268  1.0000
  C   C13       1.0  0.01324  0.27960  0.30002  1.0000
  C   C14       1.0  0.98676  0.72041  0.69998  1.0000
  C   C15       1.0  0.80887  0.73981  0.02360  1.0000
  C   C16       1.0  0.19113  0.26019  0.97640  1.0000
  C   C17       1.0  0.66834  0.91514  0.90691  1.0000
  C   C18       1.0  0.33166  0.08486  0.09309  1.0000
  C   C19       1.0  0.59223  0.04349  0.84807  1.0000
  C   C20       1.0  0.40777  0.95651  0.15194  1.0000
  C   C21       1.0  0.49728  0.04013  0.75983  1.0000
  C   C22       1.0  0.50271  0.95987  0.24017  1.0000
  C   C23       1.0  0.47874  0.91372  0.73274  1.0000
  C   C24       1.0  0.52126  0.08628  0.26726  1.0000
  C   C25       1.0  0.55532  0.78544  0.79138  1.0000
  C   C26       1.0  0.44468  0.21455  0.20862  1.0000
  C   C27       1.0  0.65199  0.78649  0.87937  1.0000
  C   C28       1.0  0.34801  0.21351  0.12063  1.0000
  C   C29       1.0  0.48103  0.52353  0.06504  1.0000
  C   C30       1.0  0.51898  0.47647  0.93496  1.0000
  C   C31       1.0  0.35134  0.60615  0.24213  1.0000
  C   C32       1.0  0.64866  0.39385  0.75787  1.0000
  C   C33       1.0  0.24365  0.66026  0.34469  1.0000
  C   C34       1.0  0.75635  0.33974  0.65531  1.0000
  C   C35       1.0  0.29009  0.69180  0.45610  1.0000
  C   C36       1.0  0.70991  0.30820  0.54390  1.0000
  C   C37       1.0  0.43869  0.67185  0.46595  1.0000
  C   C38       1.0  0.56131  0.32815  0.53405  1.0000
  C   C39       1.0  0.54697  0.61671  0.36548  1.0000
  C   C40       1.0  0.45303  0.38329  0.63452  1.0000
  C   C41       1.0  0.50274  0.58305  0.25346  1.0000
  C   C42       1.0  0.49726  0.41695  0.74654  1.0000
  S   S1        1.0  0.83502  0.16542  0.04034  1.0000
  S   S2        1.0  0.16499  0.83458  0.95966  1.0000
  S   S3        1.0  0.92417  0.64066  0.13496  1.0000
  S   S4        1.0  0.07583  0.35934  0.86503  1.0000
  N   N1        1.0  0.93038  0.30442  0.19640  1.0000
  N   N2        1.0  0.06962  0.69559  0.80360  1.0000
  N   N3        1.0  0.99693  0.07462  0.24886  1.0000
  N   N4        1.0  0.00306  0.92539  0.75115  1.0000
  N   N5        1.0  0.74256  0.67866  0.95304  1.0000
  N   N6        1.0  0.25744  0.32134  0.04696  1.0000
  N   N7        1.0  0.76809  0.88080  0.99823  1.0000
  N   N8        1.0  0.23191  0.11920  0.00176  1.0000
  N   N9        1.0  0.58357  0.52892  0.13917  1.0000
  N   N10       1.0  0.41643  0.47108  0.86083  1.0000
  N   N11       1.0  0.34102  0.56657  0.12056  1.0000
  N   N12       1.0  0.65898  0.43343  0.87944  1.0000
