data_image0
_chemical_formula_structural       Zn4H36C52N12O16
_chemical_formula_sum              "Zn4 H36 C52 N12 O16"
_cell_length_a       7.74323
_cell_length_b       14.8015
_cell_length_c       16.0447
_cell_angle_alpha    107.764
_cell_angle_beta     90
_cell_angle_gamma    90

_space_group_name_H-M_alt    "P 1"
_space_group_IT_number       1

loop_
  _space_group_symop_operation_xyz
  'x, y, z'

loop_
  _atom_site_type_symbol
  _atom_site_label
  _atom_site_symmetry_multiplicity
  _atom_site_fract_x
  _atom_site_fract_y
  _atom_site_fract_z
  _atom_site_occupancy
  Zn  Zn1       1.0  0.00433  0.63639  0.80908  1.0000
  Zn  Zn2       1.0  0.50433  0.36361  0.69092  1.0000
  Zn  Zn3       1.0  0.99567  0.36361  0.19093  1.0000
  Zn  Zn4       1.0  0.49568  0.63639  0.30908  1.0000
  H   H1        1.0  0.02116  0.48722  0.85693  1.0000
  H   H2        1.0  0.52116  0.51278  0.64307  1.0000
  H   H3        1.0  0.97884  0.51278  0.14307  1.0000
  H   H4        1.0  0.47884  0.48721  0.35693  1.0000
  H   H5        1.0  0.16626  0.47467  0.77775  1.0000
  H   H6        1.0  0.66626  0.52533  0.72225  1.0000
  H   H7        1.0  0.83374  0.52534  0.22225  1.0000
  H   H8        1.0  0.33374  0.47466  0.27775  1.0000
  H   H9        1.0  0.02717  0.76009  0.99771  1.0000
  H   H10       1.0  0.52717  0.23991  0.50229  1.0000
  H   H11       1.0  0.97283  0.23991  0.00229  1.0000
  H   H12       1.0  0.47283  0.76010  0.49771  1.0000
  H   H13       1.0  0.10164  0.55189  0.00984  1.0000
  H   H14       1.0  0.60165  0.44811  0.49016  1.0000
  H   H15       1.0  0.89835  0.44811  0.99016  1.0000
  H   H16       1.0  0.39836  0.55189  0.50984  1.0000
  H   H17       1.0  0.42923  0.57387  0.80048  1.0000
  H   H18       1.0  0.92923  0.42613  0.69952  1.0000
  H   H19       1.0  0.57077  0.42613  0.19952  1.0000
  H   H20       1.0  0.07077  0.57387  0.30048  1.0000
  H   H21       1.0  0.26355  0.75763  0.76621  1.0000
  H   H22       1.0  0.76354  0.24237  0.73379  1.0000
  H   H23       1.0  0.73646  0.24237  0.23379  1.0000
  H   H24       1.0  0.23646  0.75763  0.26621  1.0000
  H   H25       1.0  0.45502  0.89624  0.84215  1.0000
  H   H26       1.0  0.95502  0.10376  0.65784  1.0000
  H   H27       1.0  0.54497  0.10376  0.15784  1.0000
  H   H28       1.0  0.04498  0.89625  0.34215  1.0000
  H   H29       1.0  0.21226  0.89952  0.08498  1.0000
  H   H30       1.0  0.71226  0.10048  0.41502  1.0000
  H   H31       1.0  0.78774  0.10048  0.91502  1.0000
  H   H32       1.0  0.28774  0.89953  0.58498  1.0000
  H   H33       1.0  0.62416  0.65077  0.06444  1.0000
  H   H34       1.0  0.12416  0.34923  0.43556  1.0000
  H   H35       1.0  0.37584  0.34923  0.93556  1.0000
  H   H36       1.0  0.87584  0.65077  0.56444  1.0000
  C   C1        1.0  0.12311  0.79375  0.96721  1.0000
  C   C2        1.0  0.62311  0.20625  0.53279  1.0000
  C   C3        1.0  0.87689  0.20625  0.03279  1.0000
  C   C4        1.0  0.37689  0.79376  0.46721  1.0000
  C   C5        1.0  0.25387  0.55544  0.89791  1.0000
  C   C6        1.0  0.75387  0.44456  0.60210  1.0000
  C   C7        1.0  0.74612  0.44456  0.10210  1.0000
  C   C8        1.0  0.24613  0.55544  0.39790  1.0000
  C   C9        1.0  0.22605  0.56874  0.98669  1.0000
  C   C10       1.0  0.72604  0.43127  0.51331  1.0000
  C   C11       1.0  0.77395  0.43126  0.01331  1.0000
  C   C12       1.0  0.27396  0.56873  0.48669  1.0000
  C   C13       1.0  0.41286  0.57992  0.86935  1.0000
  C   C14       1.0  0.91286  0.42008  0.63065  1.0000
  C   C15       1.0  0.58714  0.42008  0.13065  1.0000
  C   C16       1.0  0.08714  0.57992  0.36935  1.0000
  C   C17       1.0  0.33355  0.61310  0.14182  1.0000
  C   C18       1.0  0.83355  0.38690  0.35818  1.0000
  C   C19       1.0  0.66645  0.38690  0.85818  1.0000
  C   C20       1.0  0.16645  0.61310  0.64182  1.0000
  C   C21       1.0  0.35905  0.60417  0.04693  1.0000
  C   C22       1.0  0.85905  0.39584  0.45307  1.0000
  C   C23       1.0  0.64095  0.39583  0.95307  1.0000
  C   C24       1.0  0.14095  0.60416  0.54693  1.0000
  C   C25       1.0  0.25518  0.79275  0.83642  1.0000
  C   C26       1.0  0.75518  0.20725  0.66358  1.0000
  C   C27       1.0  0.74482  0.20725  0.16358  1.0000
  C   C28       1.0  0.24482  0.79275  0.33642  1.0000
  C   C29       1.0  0.36098  0.86834  0.87832  1.0000
  C   C30       1.0  0.86098  0.13166  0.62168  1.0000
  C   C31       1.0  0.63902  0.13166  0.12168  1.0000
  C   C32       1.0  0.13903  0.86835  0.37832  1.0000
  C   C33       1.0  0.34512  0.90782  0.96936  1.0000
  C   C34       1.0  0.84512  0.09218  0.53064  1.0000
  C   C35       1.0  0.65488  0.09217  0.03064  1.0000
  C   C36       1.0  0.15488  0.90783  0.46936  1.0000
  C   C37       1.0  0.22459  0.86975  0.01425  1.0000
  C   C38       1.0  0.72459  0.13025  0.48575  1.0000
  C   C39       1.0  0.77541  0.13025  0.98575  1.0000
  C   C40       1.0  0.27541  0.86976  0.51425  1.0000
  C   C41       1.0  0.72303  0.63238  0.90058  1.0000
  C   C42       1.0  0.22303  0.36761  0.59942  1.0000
  C   C43       1.0  0.27697  0.36762  0.09942  1.0000
  C   C44       1.0  0.77697  0.63239  0.40059  1.0000
  C   C45       1.0  0.54654  0.61395  0.92926  1.0000
  C   C46       1.0  0.04654  0.38606  0.57074  1.0000
  C   C47       1.0  0.45346  0.38605  0.07074  1.0000
  C   C48       1.0  0.95346  0.61395  0.42926  1.0000
  C   C49       1.0  0.51903  0.62632  0.01818  1.0000
  C   C50       1.0  0.01904  0.37368  0.48182  1.0000
  C   C51       1.0  0.48097  0.37368  0.98182  1.0000
  C   C52       1.0  0.98097  0.62632  0.51818  1.0000
  N   N1        1.0  0.11868  0.52185  0.83507  1.0000
  N   N2        1.0  0.61868  0.47815  0.66493  1.0000
  N   N3        1.0  0.88132  0.47815  0.16493  1.0000
  N   N4        1.0  0.38132  0.52185  0.33507  1.0000
  N   N5        1.0  0.13786  0.75642  0.87979  1.0000
  N   N6        1.0  0.63786  0.24358  0.62021  1.0000
  N   N7        1.0  0.86214  0.24358  0.12021  1.0000
  N   N8        1.0  0.36214  0.75642  0.37979  1.0000
  N   N9        1.0  0.44399  0.98518  0.02131  1.0000
  N   N10       1.0  0.94399  0.01482  0.47869  1.0000
  N   N11       1.0  0.55601  0.01482  0.97869  1.0000
  N   N12       1.0  0.05602  0.98518  0.52131  1.0000
  O   O1        1.0  0.46733  0.64515  0.19064  1.0000
  O   O2        1.0  0.96732  0.35484  0.30936  1.0000
  O   O3        1.0  0.53267  0.35484  0.80936  1.0000
  O   O4        1.0  0.03267  0.64515  0.69064  1.0000
  O   O5        1.0  0.19267  0.59062  0.16886  1.0000
  O   O6        1.0  0.69266  0.40938  0.33114  1.0000
  O   O7        1.0  0.80733  0.40938  0.83114  1.0000
  O   O8        1.0  0.30734  0.59062  0.66886  1.0000
  O   O9        1.0  0.74711  0.62367  0.81787  1.0000
  O   O10       1.0  0.24711  0.37633  0.68213  1.0000
  O   O11       1.0  0.25289  0.37633  0.18213  1.0000
  O   O12       1.0  0.75289  0.62367  0.31787  1.0000
  O   O13       1.0  0.84414  0.65359  0.95507  1.0000
  O   O14       1.0  0.34414  0.34641  0.54493  1.0000
  O   O15       1.0  0.15585  0.34641  0.04493  1.0000
  O   O16       1.0  0.65586  0.65359  0.45507  1.0000
