data_image0
_chemical_formula_structural       Ca4H32C28N8O36
_chemical_formula_sum              "Ca4 H32 C28 N8 O36"
_cell_length_a       7.91212
_cell_length_b       11.0683
_cell_length_c       13.4
_cell_angle_alpha    90
_cell_angle_beta     90
_cell_angle_gamma    98.5534

_space_group_name_H-M_alt    "P 1"
_space_group_IT_number       1

loop_
  _space_group_symop_operation_xyz
  'x, y, z'

loop_
  _atom_site_type_symbol
  _atom_site_label
  _atom_site_symmetry_multiplicity
  _atom_site_fract_x
  _atom_site_fract_y
  _atom_site_fract_z
  _atom_site_occupancy
  Ca  Ca1       1.0  0.80621  0.54791  0.21320  1.0000
  Ca  Ca2       1.0  0.69380  0.95209  0.71320  1.0000
  Ca  Ca3       1.0  0.19379  0.45209  0.78680  1.0000
  Ca  Ca4       1.0  0.30620  0.04792  0.28680  1.0000
  H   H1        1.0  0.51429  0.28846  0.54908  1.0000
  H   H2        1.0  0.98571  0.21154  0.04909  1.0000
  H   H3        1.0  0.48571  0.71154  0.45092  1.0000
  H   H4        1.0  0.01429  0.78846  0.95092  1.0000
  H   H5        1.0  0.67010  0.42260  0.68301  1.0000
  H   H6        1.0  0.82991  0.07740  0.18302  1.0000
  H   H7        1.0  0.32991  0.57740  0.31699  1.0000
  H   H8        1.0  0.17009  0.92260  0.81699  1.0000
  H   H9        1.0  0.87151  0.60885  0.62855  1.0000
  H   H10       1.0  0.62849  0.89115  0.12855  1.0000
  H   H11       1.0  0.12849  0.39115  0.37145  1.0000
  H   H12       1.0  0.37152  0.10885  0.87145  1.0000
  H   H13       1.0  0.53804  0.28571  0.20596  1.0000
  H   H14       1.0  0.96196  0.21429  0.70596  1.0000
  H   H15       1.0  0.46196  0.71429  0.79404  1.0000
  H   H16       1.0  0.03804  0.78571  0.29404  1.0000
  H   H17       1.0  0.53663  0.72191  0.22687  1.0000
  H   H18       1.0  0.96337  0.77809  0.72687  1.0000
  H   H19       1.0  0.46336  0.27809  0.77313  1.0000
  H   H20       1.0  0.03663  0.22191  0.27313  1.0000
  H   H21       1.0  0.54288  0.67107  0.11905  1.0000
  H   H22       1.0  0.95712  0.82893  0.61905  1.0000
  H   H23       1.0  0.45712  0.32893  0.88095  1.0000
  H   H24       1.0  0.04287  0.17107  0.38095  1.0000
  H   H25       1.0  0.64086  0.38920  0.04181  1.0000
  H   H26       1.0  0.85915  0.11080  0.54181  1.0000
  H   H27       1.0  0.35914  0.61080  0.95819  1.0000
  H   H28       1.0  0.14086  0.88920  0.45819  1.0000
  H   H29       1.0  0.79083  0.47896  0.99369  1.0000
  H   H30       1.0  0.70917  0.02104  0.49369  1.0000
  H   H31       1.0  0.20916  0.52104  0.00631  1.0000
  H   H32       1.0  0.29084  0.97896  0.50631  1.0000
  C   C1        1.0  0.63465  0.40148  0.43082  1.0000
  C   C2        1.0  0.86535  0.09852  0.93082  1.0000
  C   C3        1.0  0.36536  0.59851  0.56918  1.0000
  C   C4        1.0  0.13464  0.90148  0.06918  1.0000
  C   C5        1.0  0.60456  0.36952  0.53085  1.0000
  C   C6        1.0  0.89544  0.13048  0.03086  1.0000
  C   C7        1.0  0.39544  0.63048  0.46915  1.0000
  C   C8        1.0  0.10455  0.86952  0.96915  1.0000
  C   C9        1.0  0.69027  0.44433  0.60411  1.0000
  C   C10       1.0  0.80973  0.05567  0.10412  1.0000
  C   C11       1.0  0.30973  0.55567  0.39589  1.0000
  C   C12       1.0  0.19027  0.94433  0.89589  1.0000
  C   C13       1.0  0.80061  0.54821  0.57439  1.0000
  C   C14       1.0  0.69939  0.95179  0.07439  1.0000
  C   C15       1.0  0.19939  0.45179  0.42561  1.0000
  C   C16       1.0  0.30061  0.04821  0.92561  1.0000
  C   C17       1.0  0.82254  0.57312  0.47261  1.0000
  C   C18       1.0  0.67746  0.92687  0.97261  1.0000
  C   C19       1.0  0.17746  0.42687  0.52738  1.0000
  C   C20       1.0  0.32254  0.07312  0.02739  1.0000
  C   C21       1.0  0.54665  0.32311  0.34992  1.0000
  C   C22       1.0  0.95335  0.17690  0.84992  1.0000
  C   C23       1.0  0.45335  0.67689  0.65008  1.0000
  C   C24       1.0  0.04665  0.82310  0.15008  1.0000
  C   C25       1.0  0.94109  0.68309  0.43572  1.0000
  C   C26       1.0  0.55891  0.81691  0.93572  1.0000
  C   C27       1.0  0.05891  0.31691  0.56428  1.0000
  C   C28       1.0  0.44109  0.18309  0.06428  1.0000
  N   N1        1.0  0.74215  0.50049  0.40164  1.0000
  N   N2        1.0  0.75785  0.99951  0.90164  1.0000
  N   N3        1.0  0.25785  0.49951  0.59836  1.0000
  N   N4        1.0  0.24215  0.00049  0.09836  1.0000
  N   N5        1.0  0.08880  0.40651  0.16340  1.0000
  N   N6        1.0  0.41120  0.09349  0.66340  1.0000
  N   N7        1.0  0.91120  0.59349  0.83660  1.0000
  N   N8        1.0  0.58880  0.90652  0.33660  1.0000
  O   O1        1.0  0.44108  0.23211  0.37009  1.0000
  O   O2        1.0  0.05892  0.26790  0.87010  1.0000
  O   O3        1.0  0.55891  0.76790  0.62991  1.0000
  O   O4        1.0  0.94109  0.73210  0.12991  1.0000
  O   O5        1.0  0.59221  0.35893  0.25859  1.0000
  O   O6        1.0  0.90780  0.14107  0.75859  1.0000
  O   O7        1.0  0.40780  0.64106  0.74141  1.0000
  O   O8        1.0  0.09220  0.85894  0.24141  1.0000
  O   O9        1.0  0.00525  0.76357  0.49597  1.0000
  O   O10       1.0  0.49475  0.73643  0.99597  1.0000
  O   O11       1.0  0.99475  0.23642  0.50403  1.0000
  O   O12       1.0  0.50525  0.26357  0.00402  1.0000
  O   O13       1.0  0.96868  0.68364  0.34073  1.0000
  O   O14       1.0  0.53133  0.81636  0.84073  1.0000
  O   O15       1.0  0.03133  0.31636  0.65927  1.0000
  O   O16       1.0  0.46868  0.18364  0.15927  1.0000
  O   O17       1.0  0.56253  0.65009  0.18930  1.0000
  O   O18       1.0  0.93747  0.84991  0.68930  1.0000
  O   O19       1.0  0.43747  0.34991  0.81070  1.0000
  O   O20       1.0  0.06253  0.15009  0.31070  1.0000
  O   O21       1.0  0.72908  0.46082  0.05700  1.0000
  O   O22       1.0  0.77092  0.03918  0.55700  1.0000
  O   O23       1.0  0.27091  0.53918  0.94300  1.0000
  O   O24       1.0  0.22909  0.96082  0.44300  1.0000
  O   O25       1.0  0.09121  0.51475  0.13021  1.0000
  O   O26       1.0  0.40879  0.98525  0.63021  1.0000
  O   O27       1.0  0.90879  0.48525  0.86979  1.0000
  O   O28       1.0  0.59121  0.01475  0.36979  1.0000
  O   O29       1.0  0.97439  0.36905  0.22976  1.0000
  O   O30       1.0  0.52561  0.13095  0.72976  1.0000
  O   O31       1.0  0.02561  0.63095  0.77024  1.0000
  O   O32       1.0  0.47439  0.86905  0.27024  1.0000
  O   O33       1.0  0.18981  0.33874  0.13350  1.0000
  O   O34       1.0  0.31019  0.16126  0.63351  1.0000
  O   O35       1.0  0.81019  0.66126  0.86649  1.0000
  O   O36       1.0  0.68981  0.83874  0.36650  1.0000
