data_image0
_chemical_formula_structural       Cu2H8C16Se4S4N4Cl3
_chemical_formula_sum              "Cu2 H8 C16 Se4 S4 N4 Cl3"
_cell_length_a       6.91779
_cell_length_b       7.48861
_cell_length_c       11.6978
_cell_angle_alpha    84.1544
_cell_angle_beta     89.8013
_cell_angle_gamma    75.7193

_space_group_name_H-M_alt    "P 1"
_space_group_IT_number       1

loop_
  _space_group_symop_operation_xyz
  'x, y, z'

loop_
  _atom_site_type_symbol
  _atom_site_label
  _atom_site_symmetry_multiplicity
  _atom_site_fract_x
  _atom_site_fract_y
  _atom_site_fract_z
  _atom_site_occupancy
  Cu  Cu1       1.0  0.70324  0.94048  0.93943  1.0000
  Cu  Cu2       1.0  0.29676  0.05954  0.06056  1.0000
  H   H1        1.0  0.79250  0.53256  0.96836  1.0000
  H   H2        1.0  0.20749  0.46745  0.03165  1.0000
  H   H3        1.0  0.86491  0.28007  0.83560  1.0000
  H   H4        1.0  0.13510  0.71993  0.16441  1.0000
  H   H5        1.0  0.65014  0.54265  0.24258  1.0000
  H   H6        1.0  0.34986  0.45735  0.75742  1.0000
  H   H7        1.0  0.72171  0.27199  0.11259  1.0000
  H   H8        1.0  0.27828  0.72802  0.88741  1.0000
  C   C1        1.0  0.79757  0.56342  0.87562  1.0000
  C   C2        1.0  0.20244  0.43655  0.12437  1.0000
  C   C3        1.0  0.83486  0.42579  0.80181  1.0000
  C   C4        1.0  0.16515  0.57421  0.19818  1.0000
  C   C5        1.0  0.76321  0.78611  0.72112  1.0000
  C   C6        1.0  0.23678  0.21390  0.27887  1.0000
  C   C7        1.0  0.80010  0.64418  0.64769  1.0000
  C   C8        1.0  0.19989  0.35584  0.35230  1.0000
  C   C9        1.0  0.75462  0.96930  0.50669  1.0000
  C   C10       1.0  0.24538  0.03069  0.49331  1.0000
  C   C11       1.0  0.74042  0.09699  0.41232  1.0000
  C   C12       1.0  0.25958  0.90300  0.58768  1.0000
  C   C13       1.0  0.68416  0.39589  0.27443  1.0000
  C   C14       1.0  0.31584  0.60411  0.72558  1.0000
  C   C15       1.0  0.72098  0.25671  0.20620  1.0000
  C   C16       1.0  0.27903  0.74328  0.79380  1.0000
  Se  Se1       1.0  0.71757  0.03777  0.65920  1.0000
  Se  Se2       1.0  0.28243  0.96222  0.34079  1.0000
  Se  Se3       1.0  0.80730  0.71373  0.48667  1.0000
  Se  Se4       1.0  0.19269  0.28626  0.51334  1.0000
  S   S1        1.0  0.68736  0.33538  0.42088  1.0000
  S   S2        1.0  0.31264  0.66461  0.57912  1.0000
  S   S3        1.0  0.77030  0.03352  0.27244  1.0000
  S   S4        1.0  0.22970  0.96648  0.72755  1.0000
  N   N1        1.0  0.76062  0.74541  0.83548  1.0000
  N   N2        1.0  0.23939  0.25459  0.16451  1.0000
  N   N3        1.0  0.83441  0.46633  0.68679  1.0000
  N   N4        1.0  0.16558  0.53368  0.31322  1.0000
  Cl  Cl1       1.0  0.46544  0.21269  0.91040  1.0000
  Cl  Cl2       1.0  0.53456  0.78732  0.08960  1.0000
  Cl  Cl3       1.0  1.00000  0.00000  1.00000  1.0000
