data_image0
_chemical_formula_structural       H28Pb2C26Br4N4
_chemical_formula_sum              "H28 Pb2 C26 Br4 N4"
_cell_length_a       4.33777
_cell_length_b       10.9902
_cell_length_c       15.4217
_cell_angle_alpha    90.0054
_cell_angle_beta     90.011
_cell_angle_gamma    96.5422

_space_group_name_H-M_alt    "P 1"
_space_group_IT_number       1

loop_
  _space_group_symop_operation_xyz
  'x, y, z'

loop_
  _atom_site_type_symbol
  _atom_site_label
  _atom_site_symmetry_multiplicity
  _atom_site_fract_x
  _atom_site_fract_y
  _atom_site_fract_z
  _atom_site_occupancy
  H   H1        1.0  0.37402  0.55762  0.57219  1.0000
  H   H2        1.0  0.62595  0.44242  0.07219  1.0000
  H   H3        1.0  0.62592  0.44240  0.42782  1.0000
  H   H4        1.0  0.37404  0.55760  0.92779  1.0000
  H   H5        1.0  0.14698  0.59188  0.42599  1.0000
  H   H6        1.0  0.85298  0.40813  0.92602  1.0000
  H   H7        1.0  0.85303  0.40813  0.57401  1.0000
  H   H8        1.0  0.14703  0.59187  0.07397  1.0000
  H   H9        1.0  0.65855  0.95197  0.42695  1.0000
  H   H10       1.0  0.34150  0.04803  0.92690  1.0000
  H   H11       1.0  0.34150  0.04804  0.57306  1.0000
  H   H12       1.0  0.65845  0.95200  0.07308  1.0000
  H   H13       1.0  0.87347  0.90142  0.57223  1.0000
  H   H14       1.0  0.12664  0.09859  0.07218  1.0000
  H   H15       1.0  0.12647  0.09859  0.42780  1.0000
  H   H16       1.0  0.87342  0.90141  0.92782  1.0000
  H   H17       1.0  0.18554  0.90104  0.33013  1.0000
  H   H18       1.0  0.81446  0.09895  0.83013  1.0000
  H   H19       1.0  0.81452  0.09896  0.66986  1.0000
  H   H20       1.0  0.18553  0.90105  0.16986  1.0000
  H   H21       1.0  0.00016  0.74846  0.32804  1.0000
  H   H22       1.0  0.99985  0.25153  0.82809  1.0000
  H   H23       1.0  0.99988  0.25155  0.67196  1.0000
  H   H24       1.0  0.00014  0.74847  0.17190  1.0000
  H   H25       1.0  0.63566  0.83609  0.25001  1.0000
  H   H26       1.0  0.36434  0.16390  0.74997  1.0000
  H   H27       1.0  0.46158  0.68137  0.24999  1.0000
  H   H28       1.0  0.53841  0.31863  0.75000  1.0000
  Pb  Pb1       1.0  0.69107  0.70921  0.75000  1.0000
  Pb  Pb2       1.0  0.30902  0.29072  0.25000  1.0000
  C   C1        1.0  0.43600  0.64311  0.53697  1.0000
  C   C2        1.0  0.56400  0.35691  0.03697  1.0000
  C   C3        1.0  0.56397  0.35690  0.46304  1.0000
  C   C4        1.0  0.43601  0.64310  0.96302  1.0000
  C   C5        1.0  0.30822  0.66295  0.45619  1.0000
  C   C6        1.0  0.69176  0.33706  0.95620  1.0000
  C   C7        1.0  0.69179  0.33706  0.54381  1.0000
  C   C8        1.0  0.30824  0.66294  0.04379  1.0000
  C   C9        1.0  0.38000  0.77627  0.41498  1.0000
  C   C10       1.0  0.62001  0.22374  0.91498  1.0000
  C   C11       1.0  0.62003  0.22374  0.58502  1.0000
  C   C12       1.0  0.37998  0.77627  0.08501  1.0000
  C   C13       1.0  0.59264  0.86272  0.45669  1.0000
  C   C14       1.0  0.40740  0.13728  0.95666  1.0000
  C   C15       1.0  0.40737  0.13729  0.54333  1.0000
  C   C16       1.0  0.59258  0.86274  0.04333  1.0000
  C   C17       1.0  0.71207  0.83524  0.53718  1.0000
  C   C18       1.0  0.28800  0.16478  0.03714  1.0000
  C   C19       1.0  0.28789  0.16478  0.46284  1.0000
  C   C20       1.0  0.71203  0.83523  0.96285  1.0000
  C   C21       1.0  0.22720  0.80396  0.33119  1.0000
  C   C22       1.0  0.77280  0.19603  0.83120  1.0000
  C   C23       1.0  0.77284  0.19604  0.66881  1.0000
  C   C24       1.0  0.22719  0.80397  0.16879  1.0000
  C   C25       1.0  0.41292  0.77756  0.25000  1.0000
  C   C26       1.0  0.58709  0.22243  0.74999  1.0000
  Br  Br1       1.0  0.12558  0.51339  0.75002  1.0000
  Br  Br2       1.0  0.87438  0.48653  0.25002  1.0000
  Br  Br3       1.0  0.23176  0.90397  0.74999  1.0000
  Br  Br4       1.0  0.76819  0.09594  0.25000  1.0000
  N   N1        1.0  0.63307  0.72778  0.57762  1.0000
  N   N2        1.0  0.36697  0.27224  0.07760  1.0000
  N   N3        1.0  0.36688  0.27224  0.42239  1.0000
  N   N4        1.0  0.63307  0.72776  0.92239  1.0000
