data_image0
_chemical_formula_structural       Cu4H20C24N8O8
_chemical_formula_sum              "Cu4 H20 C24 N8 O8"
_cell_length_a       6.5103
_cell_length_b       9.64946
_cell_length_c       9.88493
_cell_angle_alpha    101.592
_cell_angle_beta     90.0003
_cell_angle_gamma    90.0002

_space_group_name_H-M_alt    "P 1"
_space_group_IT_number       1

loop_
  _space_group_symop_operation_xyz
  'x, y, z'

loop_
  _atom_site_type_symbol
  _atom_site_label
  _atom_site_symmetry_multiplicity
  _atom_site_fract_x
  _atom_site_fract_y
  _atom_site_fract_z
  _atom_site_occupancy
  Cu  Cu1       1.0  0.97826  0.03023  0.65978  1.0000
  Cu  Cu2       1.0  0.47826  0.46977  0.84022  1.0000
  Cu  Cu3       1.0  0.02174  0.96977  0.34022  1.0000
  Cu  Cu4       1.0  0.52174  0.53023  0.15978  1.0000
  H   H1        1.0  0.66604  0.20659  0.56833  1.0000
  H   H2        1.0  0.16604  0.29340  0.93166  1.0000
  H   H3        1.0  0.33396  0.79341  0.43166  1.0000
  H   H4        1.0  0.83396  0.70660  0.06834  1.0000
  H   H5        1.0  0.29135  0.91622  0.83475  1.0000
  H   H6        1.0  0.79134  0.58378  0.66525  1.0000
  H   H7        1.0  0.70865  0.08378  0.16524  1.0000
  H   H8        1.0  0.20865  0.41622  0.33475  1.0000
  H   H9        1.0  0.81054  0.82227  0.78714  1.0000
  H   H10       1.0  0.31053  0.67773  0.71286  1.0000
  H   H11       1.0  0.18946  0.17773  0.21286  1.0000
  H   H12       1.0  0.68946  0.32227  0.28714  1.0000
  H   H13       1.0  0.61220  0.83692  0.91337  1.0000
  H   H14       1.0  0.11219  0.66308  0.58663  1.0000
  H   H15       1.0  0.38780  0.16308  0.08663  1.0000
  H   H16       1.0  0.88780  0.33692  0.41337  1.0000
  H   H17       1.0  0.81379  0.96722  0.92858  1.0000
  H   H18       1.0  0.31379  0.53278  0.57142  1.0000
  H   H19       1.0  0.18621  0.03278  0.07142  1.0000
  H   H20       1.0  0.68621  0.46722  0.42858  1.0000
  C   C1        1.0  0.37013  0.13322  0.62056  1.0000
  C   C2        1.0  0.87013  0.36678  0.87944  1.0000
  C   C3        1.0  0.62987  0.86678  0.37944  1.0000
  C   C4        1.0  0.12987  0.63322  0.12056  1.0000
  C   C5        1.0  0.58278  0.14110  0.62747  1.0000
  C   C6        1.0  0.08278  0.35890  0.87253  1.0000
  C   C7        1.0  0.41722  0.85890  0.37253  1.0000
  C   C8        1.0  0.91722  0.64110  0.12748  1.0000
  C   C9        1.0  0.59008  0.98208  0.77568  1.0000
  C   C10       1.0  0.09007  0.51793  0.72433  1.0000
  C   C11       1.0  0.40992  0.01793  0.22432  1.0000
  C   C12       1.0  0.90993  0.48208  0.27568  1.0000
  C   C13       1.0  0.37572  0.97964  0.77322  1.0000
  C   C14       1.0  0.87572  0.52037  0.72679  1.0000
  C   C15       1.0  0.62428  0.02036  0.22678  1.0000
  C   C16       1.0  0.12429  0.47963  0.27321  1.0000
  C   C17       1.0  0.25252  0.20431  0.52142  1.0000
  C   C18       1.0  0.75252  0.29569  0.97858  1.0000
  C   C19       1.0  0.74748  0.79569  0.47857  1.0000
  C   C20       1.0  0.24748  0.70431  0.02142  1.0000
  C   C21       1.0  0.71189  0.89714  0.85673  1.0000
  C   C22       1.0  0.21188  0.60286  0.64327  1.0000
  C   C23       1.0  0.28811  0.10286  0.14327  1.0000
  C   C24       1.0  0.78812  0.39714  0.35673  1.0000
  N   N1        1.0  0.26558  0.05078  0.69348  1.0000
  N   N2        1.0  0.76558  0.44922  0.80652  1.0000
  N   N3        1.0  0.73442  0.94921  0.30651  1.0000
  N   N4        1.0  0.23443  0.55078  0.19348  1.0000
  N   N5        1.0  0.69405  0.06260  0.69979  1.0000
  N   N6        1.0  0.19405  0.43740  0.80021  1.0000
  N   N7        1.0  0.30595  0.93740  0.30020  1.0000
  N   N8        1.0  0.80595  0.56260  0.19979  1.0000
  O   O1        1.0  0.06373  0.16325  0.49839  1.0000
  O   O2        1.0  0.56373  0.33675  0.00161  1.0000
  O   O3        1.0  0.93627  0.83675  0.50161  1.0000
  O   O4        1.0  0.43627  0.66326  0.99839  1.0000
  O   O5        1.0  0.34590  0.29125  0.46604  1.0000
  O   O6        1.0  0.84589  0.20873  0.03395  1.0000
  O   O7        1.0  0.65411  0.70875  0.53396  1.0000
  O   O8        1.0  0.15410  0.79126  0.96604  1.0000
