data_image0
_chemical_formula_structural       Dy2H24C16S2N2O26
_chemical_formula_sum              "Dy2 H24 C16 S2 N2 O26"
_cell_length_a       7.86577
_cell_length_b       9.8534
_cell_length_c       11.1292
_cell_angle_alpha    62.2982
_cell_angle_beta     86.4726
_cell_angle_gamma    80.2704

_space_group_name_H-M_alt    "P 1"
_space_group_IT_number       1

loop_
  _space_group_symop_operation_xyz
  'x, y, z'

loop_
  _atom_site_type_symbol
  _atom_site_label
  _atom_site_symmetry_multiplicity
  _atom_site_fract_x
  _atom_site_fract_y
  _atom_site_fract_z
  _atom_site_occupancy
  Dy  Dy1       1.0  0.21154  0.14602  0.77510  1.0000
  Dy  Dy2       1.0  0.78847  0.85400  0.22490  1.0000
  H   H1        1.0  0.22783  0.48128  0.34964  1.0000
  H   H2        1.0  0.77217  0.51872  0.65036  1.0000
  H   H3        1.0  0.42836  0.52949  0.37604  1.0000
  H   H4        1.0  0.57164  0.47052  0.62395  1.0000
  H   H5        1.0  0.59201  0.33418  0.31233  1.0000
  H   H6        1.0  0.40798  0.66584  0.68766  1.0000
  H   H7        1.0  0.45013  0.24262  0.44872  1.0000
  H   H8        1.0  0.54987  0.75738  0.55128  1.0000
  H   H9        1.0  0.55511  0.98261  0.72907  1.0000
  H   H10       1.0  0.44487  0.01738  0.27094  1.0000
  H   H11       1.0  0.40213  0.95848  0.66176  1.0000
  H   H12       1.0  0.59785  0.04152  0.33825  1.0000
  H   H13       1.0  0.53240  0.22523  0.86255  1.0000
  H   H14       1.0  0.46762  0.77476  0.13747  1.0000
  H   H15       1.0  0.57690  0.05431  0.88016  1.0000
  H   H16       1.0  0.42310  0.94569  0.11984  1.0000
  H   H17       1.0  0.07773  0.07672  0.58946  1.0000
  H   H18       1.0  0.92226  0.92327  0.41058  1.0000
  H   H19       1.0  0.99717  0.25637  0.51964  1.0000
  H   H20       1.0  0.00282  0.74362  0.48038  1.0000
  H   H21       1.0  0.85813  0.04595  0.82267  1.0000
  H   H22       1.0  0.14188  0.95404  0.17733  1.0000
  H   H23       1.0  0.87167  0.14013  0.90103  1.0000
  H   H24       1.0  0.12831  0.85987  0.09897  1.0000
  C   C1        1.0  0.24358  0.63908  0.96503  1.0000
  C   C2        1.0  0.75642  0.36090  0.03496  1.0000
  C   C3        1.0  0.31078  0.54640  0.09612  1.0000
  C   C4        1.0  0.68921  0.45360  0.90388  1.0000
  C   C5        1.0  0.36337  0.48528  0.32087  1.0000
  C   C6        1.0  0.63664  0.51473  0.67912  1.0000
  C   C7        1.0  0.45662  0.32929  0.34238  1.0000
  C   C8        1.0  0.54339  0.67072  0.65761  1.0000
  C   C9        1.0  0.31539  0.38471  0.13985  1.0000
  C   C10       1.0  0.68461  0.61529  0.86014  1.0000
  C   C11       1.0  0.24955  0.35777  0.04074  1.0000
  C   C12       1.0  0.75043  0.64222  0.95927  1.0000
  C   C13       1.0  0.22654  0.21168  0.04499  1.0000
  C   C14       1.0  0.77346  0.78829  0.95503  1.0000
  C   C15       1.0  0.21670  0.80864  0.88761  1.0000
  C   C16       1.0  0.78330  0.19135  0.11237  1.0000
  S   S1        1.0  0.18539  0.52887  0.89569  1.0000
  S   S2        1.0  0.81460  0.47112  0.10431  1.0000
  N   N1        1.0  0.18928  0.48029  0.60432  1.0000
  N   N2        1.0  0.81075  0.51972  0.39568  1.0000
  O   O1        1.0  0.36581  0.59931  0.17757  1.0000
  O   O2        1.0  0.63419  0.40069  0.82242  1.0000
  O   O3        1.0  0.37505  0.27257  0.26353  1.0000
  O   O4        1.0  0.62495  0.72745  0.73647  1.0000
  O   O5        1.0  0.15420  0.21996  0.94127  1.0000
  O   O6        1.0  0.84580  0.78001  0.05875  1.0000
  O   O7        1.0  0.27664  0.08310  0.15071  1.0000
  O   O8        1.0  0.72335  0.91689  0.84932  1.0000
  O   O9        1.0  0.24792  0.88706  0.94810  1.0000
  O   O10       1.0  0.75208  0.11296  0.05186  1.0000
  O   O11       1.0  0.16672  0.87555  0.76406  1.0000
  O   O12       1.0  0.83330  0.12443  0.23591  1.0000
  O   O13       1.0  0.05119  0.42598  0.65318  1.0000
  O   O14       1.0  0.94884  0.57403  0.34684  1.0000
  O   O15       1.0  0.32755  0.38124  0.62622  1.0000
  O   O16       1.0  0.67247  0.61877  0.37377  1.0000
  O   O17       1.0  0.19408  0.62235  0.53890  1.0000
  O   O18       1.0  0.80594  0.37767  0.46109  1.0000
  O   O19       1.0  0.44548  0.03743  0.67562  1.0000
  O   O20       1.0  0.55450  0.96258  0.32438  1.0000
  O   O21       1.0  0.48074  0.13971  0.86529  1.0000
  O   O22       1.0  0.51927  0.86030  0.13470  1.0000
  O   O23       1.0  0.10301  0.18032  0.56427  1.0000
  O   O24       1.0  0.89699  0.81968  0.43574  1.0000
  O   O25       1.0  0.92146  0.12544  0.82313  1.0000
  O   O26       1.0  0.07854  0.87456  0.17686  1.0000
