data_image0
_chemical_formula_structural       Cu2H48C24N4O8
_chemical_formula_sum              "Cu2 H48 C24 N4 O8"
_cell_length_a       5.09776
_cell_length_b       10.3074
_cell_length_c       18.6366
_cell_angle_alpha    90.0292
_cell_angle_beta     90.0314
_cell_angle_gamma    125.08

_space_group_name_H-M_alt    "P 1"
_space_group_IT_number       1

loop_
  _space_group_symop_operation_xyz
  'x, y, z'

loop_
  _atom_site_type_symbol
  _atom_site_label
  _atom_site_symmetry_multiplicity
  _atom_site_fract_x
  _atom_site_fract_y
  _atom_site_fract_z
  _atom_site_occupancy
  Cu  Cu1       1.0  0.99996  0.99998  0.00000  1.0000
  Cu  Cu2       1.0  0.50003  0.50002  0.50000  1.0000
  H   H1        1.0  0.05179  0.84445  0.30301  1.0000
  H   H2        1.0  0.44819  0.65546  0.80307  1.0000
  H   H3        1.0  0.94820  0.15556  0.69700  1.0000
  H   H4        1.0  0.55180  0.34452  0.19693  1.0000
  H   H5        1.0  0.28012  0.68946  0.30980  1.0000
  H   H6        1.0  0.21954  0.81031  0.80986  1.0000
  H   H7        1.0  0.71991  0.31055  0.69020  1.0000
  H   H8        1.0  0.78043  0.18967  0.19013  1.0000
  H   H9        1.0  0.66222  0.85602  0.28658  1.0000
  H   H10       1.0  0.83749  0.64365  0.78649  1.0000
  H   H11       1.0  0.33780  0.14401  0.71342  1.0000
  H   H12       1.0  0.16247  0.35631  0.21351  1.0000
  H   H13       1.0  0.72704  0.98460  0.40250  1.0000
  H   H14       1.0  0.77304  0.51530  0.90235  1.0000
  H   H15       1.0  0.27292  0.01543  0.59750  1.0000
  H   H16       1.0  0.22701  0.48467  0.09765  1.0000
  H   H17       1.0  0.31299  0.84790  0.42220  1.0000
  H   H18       1.0  0.18718  0.65202  0.92219  1.0000
  H   H19       1.0  0.68697  0.15210  0.57780  1.0000
  H   H20       1.0  0.81288  0.34800  0.07780  1.0000
  H   H21       1.0  0.41124  0.99325  0.06896  1.0000
  H   H22       1.0  0.08882  0.50668  0.56887  1.0000
  H   H23       1.0  0.58867  0.00670  0.93104  1.0000
  H   H24       1.0  0.91126  0.49336  0.43113  1.0000
  H   H25       1.0  0.06717  0.81551  0.06467  1.0000
  H   H26       1.0  0.43281  0.68442  0.56477  1.0000
  H   H27       1.0  0.93272  0.18444  0.93534  1.0000
  H   H28       1.0  0.56726  0.31562  0.43524  1.0000
  H   H29       1.0  0.23590  0.06554  0.16980  1.0000
  H   H30       1.0  0.26433  0.43444  0.66970  1.0000
  H   H31       1.0  0.76411  0.93446  0.83019  1.0000
  H   H32       1.0  0.73576  0.56559  0.33029  1.0000
  H   H33       1.0  0.86461  0.87767  0.16693  1.0000
  H   H34       1.0  0.63552  0.62227  0.66705  1.0000
  H   H35       1.0  0.13536  0.12234  0.83308  1.0000
  H   H36       1.0  0.36456  0.37777  0.33294  1.0000
  H   H37       1.0  0.13077  0.74211  0.18602  1.0000
  H   H38       1.0  0.36942  0.75783  0.68612  1.0000
  H   H39       1.0  0.86913  0.25787  0.81399  1.0000
  H   H40       1.0  0.63064  0.24219  0.31389  1.0000
  H   H41       1.0  0.51127  0.92231  0.17729  1.0000
  H   H42       1.0  0.98890  0.57764  0.67711  1.0000
  H   H43       1.0  0.48866  0.07765  0.82270  1.0000
  H   H44       1.0  0.01116  0.42237  0.32288  1.0000
  H   H45       1.0  0.43361  0.02189  0.29147  1.0000
  H   H46       1.0  0.06649  0.47796  0.79128  1.0000
  H   H47       1.0  0.56636  0.97811  0.70852  1.0000
  H   H48       1.0  0.93351  0.52203  0.20871  1.0000
  C   C1        1.0  0.12179  0.94036  0.15590  1.0000
  C   C2        1.0  0.37838  0.55958  0.65588  1.0000
  C   C3        1.0  0.87817  0.05963  0.84411  1.0000
  C   C4        1.0  0.62170  0.44045  0.34411  1.0000
  C   C5        1.0  0.26810  0.86983  0.19836  1.0000
  C   C6        1.0  0.23204  0.63009  0.69833  1.0000
  C   C7        1.0  0.73183  0.13015  0.80164  1.0000
  C   C8        1.0  0.76803  0.36992  0.30167  1.0000
  C   C9        1.0  0.28969  0.89400  0.27953  1.0000
  C   C10       1.0  0.21024  0.60585  0.77949  1.0000
  C   C11       1.0  0.71030  0.10600  0.72047  1.0000
  C   C12       1.0  0.78976  0.39414  0.22051  1.0000
  C   C13       1.0  0.44153  0.81904  0.31566  1.0000
  C   C14       1.0  0.05832  0.68074  0.81564  1.0000
  C   C15       1.0  0.55849  0.18098  0.68434  1.0000
  C   C16       1.0  0.94166  0.31923  0.18436  1.0000
  C   C17       1.0  0.51996  0.86121  0.39532  1.0000
  C   C18       1.0  0.98017  0.63867  0.89526  1.0000
  C   C19       1.0  0.48004  0.13882  0.60467  1.0000
  C   C20       1.0  0.01986  0.36132  0.10474  1.0000
  C   C21       1.0  0.59095  0.75469  0.43394  1.0000
  C   C22       1.0  0.90927  0.74522  0.93388  1.0000
  C   C23       1.0  0.40910  0.24534  0.56606  1.0000
  C   C24       1.0  0.09063  0.25472  0.06612  1.0000
  N   N1        1.0  0.16674  0.93137  0.07821  1.0000
  N   N2        1.0  0.33343  0.56860  0.57819  1.0000
  N   N3        1.0  0.83317  0.06859  0.92179  1.0000
  N   N4        1.0  0.66665  0.43144  0.42180  1.0000
  O   O1        1.0  0.35776  0.60285  0.43326  1.0000
  O   O2        1.0  0.14216  0.89712  0.93323  1.0000
  O   O3        1.0  0.64229  0.39720  0.56674  1.0000
  O   O4        1.0  0.85775  0.10285  0.06677  1.0000
  O   O5        1.0  0.34975  0.30772  0.03456  1.0000
  O   O6        1.0  0.14968  0.19233  0.53449  1.0000
  O   O7        1.0  0.65021  0.69222  0.96543  1.0000
  O   O8        1.0  0.85039  0.80771  0.46549  1.0000
