data_image0
_chemical_formula_structural       Cu6H72C48N18
_chemical_formula_sum              "Cu6 H72 C48 N18"
_cell_length_a       12.1718
_cell_length_b       12.1907
_cell_length_c       12.324
_cell_angle_alpha    106.277
_cell_angle_beta     106.303
_cell_angle_gamma    105.911

_space_group_name_H-M_alt    "P 1"
_space_group_IT_number       1

loop_
  _space_group_symop_operation_xyz
  'x, y, z'

loop_
  _atom_site_type_symbol
  _atom_site_label
  _atom_site_symmetry_multiplicity
  _atom_site_fract_x
  _atom_site_fract_y
  _atom_site_fract_z
  _atom_site_occupancy
  Cu  Cu1       1.0  0.97850  0.60009  0.11250  1.0000
  Cu  Cu2       1.0  0.11156  0.97631  0.59881  1.0000
  Cu  Cu3       1.0  0.60028  0.11142  0.97867  1.0000
  Cu  Cu4       1.0  0.02150  0.39991  0.88750  1.0000
  Cu  Cu5       1.0  0.88844  0.02369  0.40119  1.0000
  Cu  Cu6       1.0  0.39972  0.88858  0.02133  1.0000
  H   H1        1.0  0.16119  0.85725  0.24085  1.0000
  H   H2        1.0  0.24176  0.15996  0.85650  1.0000
  H   H3        1.0  0.85729  0.24278  0.16236  1.0000
  H   H4        1.0  0.83880  0.14275  0.75915  1.0000
  H   H5        1.0  0.75824  0.84003  0.14351  1.0000
  H   H6        1.0  0.14271  0.75724  0.83765  1.0000
  H   H7        1.0  0.32161  0.91288  0.27122  1.0000
  H   H8        1.0  0.27232  0.32024  0.91173  1.0000
  H   H9        1.0  0.91375  0.27306  0.32110  1.0000
  H   H10       1.0  0.67839  0.08712  0.72878  1.0000
  H   H11       1.0  0.72768  0.67975  0.08826  1.0000
  H   H12       1.0  0.08625  0.72694  0.67891  1.0000
  H   H13       1.0  0.23490  0.06664  0.23025  1.0000
  H   H14       1.0  0.23070  0.23492  0.06354  1.0000
  H   H15       1.0  0.06693  0.23055  0.23509  1.0000
  H   H16       1.0  0.76511  0.93336  0.76976  1.0000
  H   H17       1.0  0.76930  0.76508  0.93646  1.0000
  H   H18       1.0  0.93307  0.76946  0.76491  1.0000
  H   H19       1.0  0.12497  0.95380  0.08398  1.0000
  H   H20       1.0  0.08325  0.12483  0.95164  1.0000
  H   H21       1.0  0.95338  0.08375  0.12567  1.0000
  H   H22       1.0  0.87503  0.04620  0.91602  1.0000
  H   H23       1.0  0.91675  0.87517  0.04836  1.0000
  H   H24       1.0  0.04661  0.91626  0.87434  1.0000
  H   H25       1.0  0.28590  0.00747  0.11317  1.0000
  H   H26       1.0  0.11180  0.28549  0.00477  1.0000
  H   H27       1.0  0.00769  0.11197  0.28468  1.0000
  H   H28       1.0  0.71410  0.99254  0.88684  1.0000
  H   H29       1.0  0.88820  0.71451  0.99523  1.0000
  H   H30       1.0  0.99231  0.88804  0.71532  1.0000
  H   H31       1.0  0.27775  0.62801  0.80208  1.0000
  H   H32       1.0  0.79992  0.27939  0.62714  1.0000
  H   H33       1.0  0.62742  0.80114  0.27727  1.0000
  H   H34       1.0  0.72226  0.37200  0.19792  1.0000
  H   H35       1.0  0.20007  0.72061  0.37286  1.0000
  H   H36       1.0  0.37258  0.19886  0.72274  1.0000
  H   H37       1.0  0.21947  0.48349  0.81289  1.0000
  H   H38       1.0  0.81191  0.22036  0.48445  1.0000
  H   H39       1.0  0.48291  0.81334  0.21956  1.0000
  H   H40       1.0  0.78053  0.51652  0.18710  1.0000
  H   H41       1.0  0.18810  0.77963  0.51555  1.0000
  H   H42       1.0  0.51709  0.18665  0.78043  1.0000
  H   H43       1.0  0.44812  0.55008  0.86120  1.0000
  H   H44       1.0  0.86093  0.44890  0.55068  1.0000
  H   H45       1.0  0.55002  0.86028  0.44519  1.0000
  H   H46       1.0  0.55188  0.44992  0.13880  1.0000
  H   H47       1.0  0.13907  0.55110  0.44932  1.0000
  H   H48       1.0  0.44997  0.13972  0.55481  1.0000
  H   H49       1.0  0.42037  0.54817  0.99532  1.0000
  H   H50       1.0  0.99648  0.42010  0.54944  1.0000
  H   H51       1.0  0.54803  0.99648  0.41908  1.0000
  H   H52       1.0  0.57962  0.45182  0.00468  1.0000
  H   H53       1.0  0.00352  0.57990  0.45056  1.0000
  H   H54       1.0  0.45197  0.00351  0.58091  1.0000
  H   H55       1.0  0.47773  0.69098  0.97965  1.0000
  H   H56       1.0  0.97996  0.47820  0.69062  1.0000
  H   H57       1.0  0.69107  0.97972  0.47572  1.0000
  H   H58       1.0  0.52227  0.30902  0.02035  1.0000
  H   H59       1.0  0.02004  0.52180  0.30938  1.0000
  H   H60       1.0  0.30892  0.02028  0.52428  1.0000
  H   H61       1.0  0.23030  0.56813  0.19777  1.0000
  H   H62       1.0  0.19814  0.23083  0.56808  1.0000
  H   H63       1.0  0.56819  0.19867  0.23156  1.0000
  H   H64       1.0  0.76970  0.43186  0.80223  1.0000
  H   H65       1.0  0.80187  0.76917  0.43193  1.0000
  H   H66       1.0  0.43181  0.80133  0.76844  1.0000
  H   H67       1.0  0.46979  0.49173  0.31171  1.0000
  H   H68       1.0  0.31120  0.46884  0.49181  1.0000
  H   H69       1.0  0.49213  0.31104  0.46900  1.0000
  H   H70       1.0  0.53021  0.50826  0.68829  1.0000
  H   H71       1.0  0.68880  0.53117  0.50821  1.0000
  H   H72       1.0  0.50787  0.68897  0.53100  1.0000
  C   C1        1.0  0.20849  0.76328  0.10086  1.0000
  C   C2        1.0  0.10076  0.20768  0.76264  1.0000
  C   C3        1.0  0.76345  0.10197  0.20895  1.0000
  C   C4        1.0  0.79152  0.23673  0.89914  1.0000
  C   C5        1.0  0.89925  0.79231  0.23736  1.0000
  C   C6        1.0  0.23655  0.89804  0.79106  1.0000
  C   C7        1.0  0.22857  0.87977  0.19922  1.0000
  C   C8        1.0  0.19954  0.22757  0.87851  1.0000
  C   C9        1.0  0.88012  0.20054  0.22894  1.0000
  C   C10       1.0  0.77143  0.12023  0.80078  1.0000
  C   C11       1.0  0.80046  0.77243  0.12149  1.0000
  C   C12       1.0  0.11987  0.79947  0.77107  1.0000
  C   C13       1.0  0.21770  0.98285  0.15395  1.0000
  C   C14       1.0  0.15347  0.21737  0.98041  1.0000
  C   C15       1.0  0.98295  0.15388  0.21774  1.0000
  C   C16       1.0  0.78230  0.01716  0.84605  1.0000
  C   C17       1.0  0.84653  0.78263  0.01959  1.0000
  C   C18       1.0  0.01705  0.84612  0.78226  1.0000
  C   C19       1.0  0.23103  0.63431  0.95663  1.0000
  C   C20       1.0  0.95619  0.23152  0.63447  1.0000
  C   C21       1.0  0.63406  0.95759  0.23145  1.0000
  C   C22       1.0  0.76897  0.36570  0.04337  1.0000
  C   C23       1.0  0.04381  0.76848  0.36553  1.0000
  C   C24       1.0  0.36594  0.04241  0.76855  1.0000
  C   C25       1.0  0.28131  0.58099  0.86678  1.0000
  C   C26       1.0  0.86585  0.28227  0.58121  1.0000
  C   C27       1.0  0.58065  0.86707  0.28099  1.0000
  C   C28       1.0  0.71869  0.41901  0.13322  1.0000
  C   C29       1.0  0.13415  0.71773  0.41879  1.0000
  C   C30       1.0  0.41935  0.13293  0.71901  1.0000
  C   C31       1.0  0.41478  0.59317  0.92927  1.0000
  C   C32       1.0  0.92941  0.41520  0.59363  1.0000
  C   C33       1.0  0.59309  0.92949  0.41304  1.0000
  C   C34       1.0  0.58522  0.40683  0.07072  1.0000
  C   C35       1.0  0.07059  0.58480  0.40638  1.0000
  C   C36       1.0  0.40690  0.07051  0.58696  1.0000
  C   C37       1.0  0.30690  0.54436  0.23628  1.0000
  C   C38       1.0  0.23638  0.30705  0.54446  1.0000
  C   C39       1.0  0.54460  0.23671  0.30757  1.0000
  C   C40       1.0  0.69310  0.45563  0.76372  1.0000
  C   C41       1.0  0.76363  0.69293  0.45552  1.0000
  C   C42       1.0  0.45540  0.76329  0.69243  1.0000
  C   C43       1.0  0.39319  0.51665  0.27702  1.0000
  C   C44       1.0  0.27670  0.39264  0.51655  1.0000
  C   C45       1.0  0.51695  0.27691  0.39306  1.0000
  C   C46       1.0  0.60680  0.48334  0.72298  1.0000
  C   C47       1.0  0.72332  0.60736  0.48344  1.0000
  C   C48       1.0  0.48305  0.72309  0.60694  1.0000
  N   N1        1.0  0.12012  0.65227  0.06803  1.0000
  N   N2        1.0  0.06796  0.11932  0.65244  1.0000
  N   N3        1.0  0.65251  0.06823  0.12019  1.0000
  N   N4        1.0  0.87988  0.34773  0.93197  1.0000
  N   N5        1.0  0.93204  0.88068  0.34756  1.0000
  N   N6        1.0  0.34749  0.93178  0.87981  1.0000
  N   N7        1.0  0.13502  0.56945  0.97537  1.0000
  N   N8        1.0  0.97513  0.13511  0.57017  1.0000
  N   N9        1.0  0.56944  0.97550  0.13506  1.0000
  N   N10       1.0  0.86498  0.43055  0.02463  1.0000
  N   N11       1.0  0.02487  0.86489  0.42983  1.0000
  N   N12       1.0  0.43056  0.02450  0.86495  1.0000
  N   N13       1.0  0.27866  0.75567  0.03263  1.0000
  N   N14       1.0  0.03232  0.27872  0.75493  1.0000
  N   N15       1.0  0.75552  0.03440  0.27949  1.0000
  N   N16       1.0  0.72134  0.24433  0.96737  1.0000
  N   N17       1.0  0.96768  0.72128  0.24507  1.0000
  N   N18       1.0  0.24448  0.96560  0.72051  1.0000
