data_image0
_chemical_formula_structural       Cu6H60C42N18O12
_chemical_formula_sum              "Cu6 H60 C42 N18 O12"
_cell_length_a       12.2048
_cell_length_b       12.208
_cell_length_c       12.2791
_cell_angle_alpha    106.163
_cell_angle_beta     106.167
_cell_angle_gamma    105.986

_space_group_name_H-M_alt    "P 1"
_space_group_IT_number       1

loop_
  _space_group_symop_operation_xyz
  'x, y, z'

loop_
  _atom_site_type_symbol
  _atom_site_label
  _atom_site_symmetry_multiplicity
  _atom_site_fract_x
  _atom_site_fract_y
  _atom_site_fract_z
  _atom_site_occupancy
  Cu  Cu1       1.0  0.97754  0.60050  0.11313  1.0000
  Cu  Cu2       1.0  0.11263  0.97631  0.59988  1.0000
  Cu  Cu3       1.0  0.60051  0.11261  0.97745  1.0000
  Cu  Cu4       1.0  0.02246  0.39950  0.88687  1.0000
  Cu  Cu5       1.0  0.88737  0.02369  0.40012  1.0000
  Cu  Cu6       1.0  0.39949  0.88739  0.02255  1.0000
  H   H1        1.0  0.16388  0.85441  0.24685  1.0000
  H   H2        1.0  0.24720  0.16322  0.85411  1.0000
  H   H3        1.0  0.85466  0.24791  0.16434  1.0000
  H   H4        1.0  0.83612  0.14559  0.75316  1.0000
  H   H5        1.0  0.75280  0.83678  0.14589  1.0000
  H   H6        1.0  0.14534  0.75209  0.83566  1.0000
  H   H7        1.0  0.32274  0.91234  0.27323  1.0000
  H   H8        1.0  0.27364  0.32210  0.91171  1.0000
  H   H9        1.0  0.91270  0.27417  0.32236  1.0000
  H   H10       1.0  0.67726  0.08766  0.72677  1.0000
  H   H11       1.0  0.72636  0.67790  0.08829  1.0000
  H   H12       1.0  0.08730  0.72583  0.67763  1.0000
  H   H13       1.0  0.23135  0.06226  0.23171  1.0000
  H   H14       1.0  0.23161  0.23137  0.06069  1.0000
  H   H15       1.0  0.06243  0.23183  0.23158  1.0000
  H   H16       1.0  0.76865  0.93774  0.76830  1.0000
  H   H17       1.0  0.76838  0.76863  0.93931  1.0000
  H   H18       1.0  0.93757  0.76817  0.76842  1.0000
  H   H19       1.0  0.11862  0.94754  0.08906  1.0000
  H   H20       1.0  0.08842  0.11856  0.94638  1.0000
  H   H21       1.0  0.94736  0.08890  0.11901  1.0000
  H   H22       1.0  0.88139  0.05246  0.91095  1.0000
  H   H23       1.0  0.91158  0.88144  0.05362  1.0000
  H   H24       1.0  0.05264  0.91110  0.88098  1.0000
  H   H25       1.0  0.27650  0.00084  0.10941  1.0000
  H   H26       1.0  0.10854  0.27644  0.99935  1.0000
  H   H27       1.0  0.00075  0.10875  0.27596  1.0000
  H   H28       1.0  0.72350  0.99916  0.89059  1.0000
  H   H29       1.0  0.89146  0.72356  0.00065  1.0000
  H   H30       1.0  0.99925  0.89125  0.72404  1.0000
  H   H31       1.0  0.28206  0.63070  0.80744  1.0000
  H   H32       1.0  0.80634  0.28270  0.63029  1.0000
  H   H33       1.0  0.63041  0.80702  0.28184  1.0000
  H   H34       1.0  0.71793  0.36930  0.19256  1.0000
  H   H35       1.0  0.19367  0.71730  0.36971  1.0000
  H   H36       1.0  0.36959  0.19298  0.71816  1.0000
  H   H37       1.0  0.22089  0.48450  0.81407  1.0000
  H   H38       1.0  0.81356  0.22121  0.48505  1.0000
  H   H39       1.0  0.48434  0.81427  0.22080  1.0000
  H   H40       1.0  0.77910  0.51550  0.18593  1.0000
  H   H41       1.0  0.18644  0.77879  0.51495  1.0000
  H   H42       1.0  0.51566  0.18573  0.77921  1.0000
  H   H43       1.0  0.44943  0.54978  0.86401  1.0000
  H   H44       1.0  0.86353  0.44975  0.55010  1.0000
  H   H45       1.0  0.54961  0.86372  0.44798  1.0000
  H   H46       1.0  0.55056  0.45022  0.13598  1.0000
  H   H47       1.0  0.13646  0.55025  0.44990  1.0000
  H   H48       1.0  0.45040  0.13628  0.55202  1.0000
  H   H49       1.0  0.41865  0.54241  0.99593  1.0000
  H   H50       1.0  0.99620  0.41860  0.54293  1.0000
  H   H51       1.0  0.54218  0.99660  0.41782  1.0000
  H   H52       1.0  0.58134  0.45759  0.00406  1.0000
  H   H53       1.0  0.00380  0.58140  0.45706  1.0000
  H   H54       1.0  0.45783  0.00340  0.58218  1.0000
  H   H55       1.0  0.47859  0.68750  0.98547  1.0000
  H   H56       1.0  0.98549  0.47891  0.68723  1.0000
  H   H57       1.0  0.68732  0.98577  0.47760  1.0000
  H   H58       1.0  0.52141  0.31250  0.01452  1.0000
  H   H59       1.0  0.01451  0.52109  0.31277  1.0000
  H   H60       1.0  0.31268  0.01423  0.52240  1.0000
  C   C1        1.0  0.20970  0.76120  0.10458  1.0000
  C   C2        1.0  0.10442  0.20926  0.76089  1.0000
  C   C3        1.0  0.76133  0.10508  0.20972  1.0000
  C   C4        1.0  0.79030  0.23880  0.89543  1.0000
  C   C5        1.0  0.89558  0.79074  0.23911  1.0000
  C   C6        1.0  0.23866  0.89492  0.79027  1.0000
  C   C7        1.0  0.22888  0.87723  0.20271  1.0000
  C   C8        1.0  0.20273  0.22837  0.87659  1.0000
  C   C9        1.0  0.87745  0.20338  0.22893  1.0000
  C   C10       1.0  0.77112  0.12277  0.79730  1.0000
  C   C11       1.0  0.79727  0.77163  0.12341  1.0000
  C   C12       1.0  0.12256  0.79662  0.77106  1.0000
  C   C13       1.0  0.21306  0.97796  0.15556  1.0000
  C   C14       1.0  0.15511  0.21294  0.97668  1.0000
  C   C15       1.0  0.97798  0.15550  0.21311  1.0000
  C   C16       1.0  0.78694  0.02204  0.84444  1.0000
  C   C17       1.0  0.84488  0.78706  0.02331  1.0000
  C   C18       1.0  0.02202  0.84449  0.78689  1.0000
  C   C19       1.0  0.23310  0.63342  0.96039  1.0000
  C   C20       1.0  0.96016  0.23332  0.63352  1.0000
  C   C21       1.0  0.63339  0.96087  0.23319  1.0000
  C   C22       1.0  0.76690  0.36658  0.03961  1.0000
  C   C23       1.0  0.03984  0.76668  0.36648  1.0000
  C   C24       1.0  0.36661  0.03913  0.76681  1.0000
  C   C25       1.0  0.28336  0.58105  0.87003  1.0000
  C   C26       1.0  0.86952  0.28377  0.58118  1.0000
  C   C27       1.0  0.58091  0.87024  0.28315  1.0000
  C   C28       1.0  0.71663  0.41895  0.12997  1.0000
  C   C29       1.0  0.13048  0.71623  0.41882  1.0000
  C   C30       1.0  0.41909  0.12976  0.71685  1.0000
  C   C31       1.0  0.41524  0.59058  0.93249  1.0000
  C   C32       1.0  0.93234  0.41549  0.59078  1.0000
  C   C33       1.0  0.59041  0.93272  0.41432  1.0000
  C   C34       1.0  0.58475  0.40942  0.06751  1.0000
  C   C35       1.0  0.06765  0.58451  0.40922  1.0000
  C   C36       1.0  0.40959  0.06728  0.58568  1.0000
  C   C37       1.0  0.27877  0.52103  0.22738  1.0000
  C   C38       1.0  0.22764  0.27886  0.52136  1.0000
  C   C39       1.0  0.52100  0.22768  0.27830  1.0000
  C   C40       1.0  0.72125  0.47898  0.77262  1.0000
  C   C41       1.0  0.77236  0.72115  0.47864  1.0000
  C   C42       1.0  0.47900  0.77232  0.72171  1.0000
  N   N1        1.0  0.12340  0.64991  0.07350  1.0000
  N   N2        1.0  0.07345  0.12295  0.65007  1.0000
  N   N3        1.0  0.65013  0.07359  0.12323  1.0000
  N   N4        1.0  0.87660  0.35009  0.92650  1.0000
  N   N5        1.0  0.92655  0.87706  0.34993  1.0000
  N   N6        1.0  0.34987  0.92642  0.87677  1.0000
  N   N7        1.0  0.13893  0.56758  0.98089  1.0000
  N   N8        1.0  0.98084  0.13895  0.56802  1.0000
  N   N9        1.0  0.56770  0.98101  0.13884  1.0000
  N   N10       1.0  0.86106  0.43242  0.01911  1.0000
  N   N11       1.0  0.01916  0.86106  0.43198  1.0000
  N   N12       1.0  0.43230  0.01899  0.86117  1.0000
  N   N13       1.0  0.27918  0.75472  0.03523  1.0000
  N   N14       1.0  0.03495  0.27917  0.75435  1.0000
  N   N15       1.0  0.75472  0.03605  0.27944  1.0000
  N   N16       1.0  0.72082  0.24527  0.96477  1.0000
  N   N17       1.0  0.96505  0.72084  0.24565  1.0000
  N   N18       1.0  0.24528  0.96394  0.72056  1.0000
  O   O1        1.0  0.19034  0.45492  0.23081  1.0000
  O   O2        1.0  0.23134  0.19051  0.45539  1.0000
  O   O3        1.0  0.45528  0.23174  0.19031  1.0000
  O   O4        1.0  0.80968  0.54510  0.76919  1.0000
  O   O5        1.0  0.76865  0.80949  0.54462  1.0000
  O   O6        1.0  0.54472  0.76825  0.80969  1.0000
  O   O7        1.0  0.36885  0.58668  0.22592  1.0000
  O   O8        1.0  0.22590  0.36886  0.58690  1.0000
  O   O9        1.0  0.58627  0.22562  0.36794  1.0000
  O   O10       1.0  0.63117  0.41332  0.77408  1.0000
  O   O11       1.0  0.77411  0.63115  0.41310  1.0000
  O   O12       1.0  0.41373  0.77438  0.63207  1.0000
