data_image0
_chemical_formula_structural       Bi4H30C34S4Br12
_chemical_formula_sum              "Bi4 H30 C34 S4 Br12"
_cell_length_a       10.4543
_cell_length_b       10.979
_cell_length_c       13.8994
_cell_angle_alpha    99.3464
_cell_angle_beta     96.528
_cell_angle_gamma    92.4518

_space_group_name_H-M_alt    "P 1"
_space_group_IT_number       1

loop_
  _space_group_symop_operation_xyz
  'x, y, z'

loop_
  _atom_site_type_symbol
  _atom_site_label
  _atom_site_symmetry_multiplicity
  _atom_site_fract_x
  _atom_site_fract_y
  _atom_site_fract_z
  _atom_site_occupancy
  Bi  Bi1       1.0  0.34513  0.89534  0.55465  1.0000
  Bi  Bi2       1.0  0.65486  0.10469  0.44534  1.0000
  Bi  Bi3       1.0  0.24270  0.09566  0.28501  1.0000
  Bi  Bi4       1.0  0.75730  0.90436  0.71499  1.0000
  H   H1        1.0  0.49194  0.36689  0.12606  1.0000
  H   H2        1.0  0.50806  0.63310  0.87394  1.0000
  H   H3        1.0  0.53378  0.49942  0.27192  1.0000
  H   H4        1.0  0.46622  0.50058  0.72808  1.0000
  H   H5        1.0  0.42766  0.54158  0.42184  1.0000
  H   H6        1.0  0.57234  0.45842  0.57817  1.0000
  H   H7        1.0  0.12496  0.71419  0.26400  1.0000
  H   H8        1.0  0.87503  0.28581  0.73600  1.0000
  H   H9        1.0  0.22931  0.66938  0.11502  1.0000
  H   H10       1.0  0.77069  0.33061  0.88498  1.0000
  H   H11       1.0  0.04054  0.78647  0.40300  1.0000
  H   H12       1.0  0.95946  0.21353  0.59700  1.0000
  H   H13       1.0  0.00165  0.71982  0.50594  1.0000
  H   H14       1.0  0.99835  0.28018  0.49406  1.0000
  H   H15       1.0  0.98688  0.62463  0.38682  1.0000
  H   H16       1.0  0.01312  0.37537  0.61318  1.0000
  H   H17       1.0  0.43491  0.19853  0.84204  1.0000
  H   H18       1.0  0.56510  0.80147  0.15796  1.0000
  H   H19       1.0  0.48003  0.97791  0.81516  1.0000
  H   H20       1.0  0.51997  0.02209  0.18484  1.0000
  H   H21       1.0  0.78076  0.04882  0.06207  1.0000
  H   H22       1.0  0.21924  0.95118  0.93793  1.0000
  H   H23       1.0  0.72519  0.26597  0.09410  1.0000
  H   H24       1.0  0.27481  0.73403  0.90590  1.0000
  H   H25       1.0  0.79251  0.83233  0.05171  1.0000
  H   H26       1.0  0.20750  0.16767  0.94829  1.0000
  H   H27       1.0  0.84079  0.72920  0.95011  1.0000
  H   H28       1.0  0.15921  0.27080  0.04989  1.0000
  H   H29       1.0  0.89269  0.89026  0.96940  1.0000
  H   H30       1.0  0.10731  0.10974  0.03060  1.0000
  C   C1        1.0  0.49860  0.42761  0.07185  1.0000
  C   C2        1.0  0.50140  0.57238  0.92815  1.0000
  C   C3        1.0  0.54627  0.38009  0.98426  1.0000
  C   C4        1.0  0.45373  0.61991  0.01574  1.0000
  C   C5        1.0  0.45003  0.54532  0.08968  1.0000
  C   C6        1.0  0.54998  0.45468  0.91032  1.0000
  C   C7        1.0  0.39018  0.58065  0.18114  1.0000
  C   C8        1.0  0.60982  0.41934  0.81885  1.0000
  C   C9        1.0  0.44385  0.54620  0.26952  1.0000
  C   C10       1.0  0.55615  0.45380  0.73048  1.0000
  C   C11       1.0  0.38443  0.56989  0.35453  1.0000
  C   C12       1.0  0.61557  0.43012  0.64547  1.0000
  C   C13       1.0  0.26890  0.63003  0.35342  1.0000
  C   C14       1.0  0.73110  0.36997  0.64658  1.0000
  C   C15       1.0  0.21377  0.66585  0.26665  1.0000
  C   C16       1.0  0.78622  0.33415  0.73335  1.0000
  C   C17       1.0  0.27422  0.64106  0.18181  1.0000
  C   C18       1.0  0.72577  0.35893  0.81818  1.0000
  C   C19       1.0  0.04219  0.70219  0.43586  1.0000
  C   C20       1.0  0.95781  0.29781  0.56414  1.0000
  C   C21       1.0  0.57907  0.24893  0.96860  1.0000
  C   C22       1.0  0.42093  0.75107  0.03140  1.0000
  C   C23       1.0  0.51037  0.16581  0.89058  1.0000
  C   C24       1.0  0.48963  0.83418  0.10942  1.0000
  C   C25       1.0  0.53716  0.04192  0.87430  1.0000
  C   C26       1.0  0.46284  0.95807  0.12570  1.0000
  C   C27       1.0  0.63730  0.99991  0.93392  1.0000
  C   C28       1.0  0.36270  0.00009  0.06608  1.0000
  C   C29       1.0  0.70440  0.08027  0.01371  1.0000
  C   C30       1.0  0.29560  0.91973  0.98629  1.0000
  C   C31       1.0  0.67310  0.20360  0.03147  1.0000
  C   C32       1.0  0.32690  0.79640  0.96853  1.0000
  C   C33       1.0  0.81428  0.82349  0.97561  1.0000
  C   C34       1.0  0.18573  0.17651  0.02439  1.0000
  S   S1        1.0  0.20395  0.65846  0.46676  1.0000
  S   S2        1.0  0.79605  0.34154  0.53324  1.0000
  S   S3        1.0  0.67145  0.84431  0.89681  1.0000
  S   S4        1.0  0.32856  0.15569  0.10319  1.0000
  Br  Br1       1.0  0.21455  0.90737  0.71000  1.0000
  Br  Br2       1.0  0.78544  0.09264  0.29000  1.0000
  Br  Br3       1.0  0.46983  0.90207  0.36268  1.0000
  Br  Br4       1.0  0.53018  0.09793  0.63733  1.0000
  Br  Br5       1.0  0.15560  0.04969  0.46489  1.0000
  Br  Br6       1.0  0.84439  0.95031  0.53511  1.0000
  Br  Br7       1.0  0.06219  0.93561  0.17036  1.0000
  Br  Br8       1.0  0.93781  0.06439  0.82965  1.0000
  Br  Br9       1.0  0.52091  0.72992  0.61962  1.0000
  Br  Br10      1.0  0.47908  0.27010  0.38042  1.0000
  Br  Br11      1.0  0.10998  0.29768  0.29089  1.0000
  Br  Br12      1.0  0.89002  0.70231  0.70911  1.0000
