data_image0
_chemical_formula_structural       Bi4H48C54S6Br12
_chemical_formula_sum              "Bi4 H48 C54 S6 Br12"
_cell_length_a       9.10386
_cell_length_b       14.1793
_cell_length_c       14.7725
_cell_angle_alpha    107.606
_cell_angle_beta     107.776
_cell_angle_gamma    98.517

_space_group_name_H-M_alt    "P 1"
_space_group_IT_number       1

loop_
  _space_group_symop_operation_xyz
  'x, y, z'

loop_
  _atom_site_type_symbol
  _atom_site_label
  _atom_site_symmetry_multiplicity
  _atom_site_fract_x
  _atom_site_fract_y
  _atom_site_fract_z
  _atom_site_occupancy
  Bi  Bi1       1.0  0.30530  0.50901  0.37557  1.0000
  Bi  Bi2       1.0  0.69470  0.49098  0.62441  1.0000
  Bi  Bi3       1.0  0.06718  0.70585  0.28886  1.0000
  Bi  Bi4       1.0  0.93281  0.29414  0.71115  1.0000
  H   H1        1.0  0.07812  0.19834  0.40512  1.0000
  H   H2        1.0  0.92188  0.80167  0.59489  1.0000
  H   H3        1.0  0.09285  0.32918  0.47268  1.0000
  H   H4        1.0  0.90716  0.67083  0.52732  1.0000
  H   H5        1.0  0.26912  0.29300  0.46313  1.0000
  H   H6        1.0  0.73088  0.70700  0.53687  1.0000
  H   H7        1.0  0.99629  0.22576  0.09382  1.0000
  H   H8        1.0  0.00372  0.77424  0.90618  1.0000
  H   H9        1.0  0.06561  0.09411  0.97546  1.0000
  H   H10       1.0  0.93439  0.90589  0.02455  1.0000
  H   H11       1.0  0.40062  0.05385  0.23087  1.0000
  H   H12       1.0  0.59938  0.94613  0.76913  1.0000
  H   H13       1.0  0.33451  0.18677  0.34948  1.0000
  H   H14       1.0  0.66548  0.81322  0.65051  1.0000
  H   H15       1.0  0.20765  0.03928  0.89906  1.0000
  H   H16       1.0  0.79234  0.96071  0.10094  1.0000
  H   H17       1.0  0.29902  0.07028  0.79027  1.0000
  H   H18       1.0  0.70097  0.92972  0.20973  1.0000
  H   H19       1.0  0.30146  0.07359  0.62708  1.0000
  H   H20       1.0  0.69853  0.92641  0.37292  1.0000
  H   H21       1.0  0.07839  0.99505  0.43303  1.0000
  H   H22       1.0  0.92160  0.00494  0.56698  1.0000
  H   H23       1.0  0.16984  0.99808  0.34174  1.0000
  H   H24       1.0  0.83015  0.00193  0.65827  1.0000
  H   H25       1.0  0.27143  0.08332  0.47251  1.0000
  H   H26       1.0  0.72856  0.91669  0.52750  1.0000
  H   H27       1.0  0.26586  0.74843  0.52119  1.0000
  H   H28       1.0  0.73415  0.25157  0.47881  1.0000
  H   H29       1.0  0.26049  0.74476  0.68325  1.0000
  H   H30       1.0  0.73951  0.25524  0.31675  1.0000
  H   H31       1.0  0.39164  0.77496  0.83326  1.0000
  H   H32       1.0  0.60836  0.22504  0.16674  1.0000
  H   H33       1.0  0.36028  0.90626  0.12683  1.0000
  H   H34       1.0  0.63972  0.09373  0.87317  1.0000
  H   H35       1.0  0.61998  0.77257  0.93051  1.0000
  H   H36       1.0  0.38003  0.22743  0.06949  1.0000
  H   H37       1.0  0.77865  0.66091  0.98684  1.0000
  H   H38       1.0  0.22136  0.33910  0.01317  1.0000
  H   H39       1.0  0.50294  0.62173  0.17166  1.0000
  H   H40       1.0  0.49707  0.37828  0.82834  1.0000
  H   H41       1.0  0.34272  0.73143  0.11265  1.0000
  H   H42       1.0  0.65729  0.26859  0.88736  1.0000
  H   H43       1.0  0.68637  0.55341  0.25658  1.0000
  H   H44       1.0  0.31363  0.44660  0.74342  1.0000
  H   H45       1.0  0.75053  0.44322  0.20364  1.0000
  H   H46       1.0  0.24948  0.55679  0.79637  1.0000
  H   H47       1.0  0.56025  0.45569  0.13351  1.0000
  H   H48       1.0  0.43976  0.54432  0.86649  1.0000
  C   C1        1.0  0.14008  0.27808  0.42356  1.0000
  C   C2        1.0  0.85992  0.72193  0.57643  1.0000
  C   C3        1.0  0.15823  0.21412  0.22966  1.0000
  C   C4        1.0  0.84178  0.78587  0.77034  1.0000
  C   C5        1.0  0.08629  0.18881  0.12389  1.0000
  C   C6        1.0  0.91371  0.81118  0.87611  1.0000
  C   C7        1.0  0.12618  0.11400  0.05726  1.0000
  C   C8        1.0  0.87382  0.88599  0.94273  1.0000
  C   C9        1.0  0.23739  0.06188  0.09310  1.0000
  C   C10       1.0  0.76261  0.93811  0.90690  1.0000
  C   C11       1.0  0.31020  0.08990  0.19963  1.0000
  C   C12       1.0  0.68979  0.91008  0.80037  1.0000
  C   C13       1.0  0.27278  0.16561  0.26754  1.0000
  C   C14       1.0  0.72722  0.83438  0.73245  1.0000
  C   C15       1.0  0.27660  0.98138  0.02087  1.0000
  C   C16       1.0  0.72339  0.01862  0.97912  1.0000
  C   C17       1.0  0.25399  0.98011  0.92204  1.0000
  C   C18       1.0  0.74601  0.01989  0.07796  1.0000
  C   C19       1.0  0.29289  0.90558  0.85291  1.0000
  C   C20       1.0  0.70711  0.09442  0.14708  1.0000
  C   C21       1.0  0.28065  0.90731  0.75138  1.0000
  C   C22       1.0  0.71934  0.09269  0.24862  1.0000
  C   C23       1.0  0.28915  0.99848  0.73144  1.0000
  C   C24       1.0  0.71084  0.00151  0.26855  1.0000
  C   C25       1.0  0.29152  0.00082  0.63820  1.0000
  C   C26       1.0  0.70846  0.99918  0.36180  1.0000
  C   C27       1.0  0.28313  0.91104  0.56120  1.0000
  C   C28       1.0  0.71688  0.08896  0.43880  1.0000
  C   C29       1.0  0.19210  0.00701  0.42155  1.0000
  C   C30       1.0  0.80789  0.99299  0.57846  1.0000
  C   C31       1.0  0.27300  0.81943  0.57958  1.0000
  C   C32       1.0  0.72700  0.18057  0.42042  1.0000
  C   C33       1.0  0.27115  0.81790  0.67268  1.0000
  C   C34       1.0  0.72885  0.18210  0.32732  1.0000
  C   C35       1.0  0.35611  0.83159  0.88477  1.0000
  C   C36       1.0  0.64390  0.16841  0.11523  1.0000
  C   C37       1.0  0.38282  0.83178  0.98332  1.0000
  C   C38       1.0  0.61719  0.16822  0.01668  1.0000
  C   C39       1.0  0.33990  0.90597  0.05018  1.0000
  C   C40       1.0  0.66010  0.09403  0.94982  1.0000
  C   C41       1.0  0.47003  0.76121  0.01765  1.0000
  C   C42       1.0  0.52998  0.23879  0.98235  1.0000
  C   C43       1.0  0.59316  0.73914  0.98281  1.0000
  C   C44       1.0  0.40684  0.26086  0.01719  1.0000
  C   C45       1.0  0.68416  0.67692  0.01513  1.0000
  C   C46       1.0  0.31585  0.32308  0.98487  1.0000
  C   C47       1.0  0.65334  0.63455  0.08395  1.0000
  C   C48       1.0  0.34667  0.36546  0.91605  1.0000
  C   C49       1.0  0.53010  0.65450  0.11897  1.0000
  C   C50       1.0  0.46991  0.34550  0.88102  1.0000
  C   C51       1.0  0.43959  0.71739  0.08579  1.0000
  C   C52       1.0  0.56042  0.28262  0.91421  1.0000
  C   C53       1.0  0.68330  0.49739  0.18568  1.0000
  C   C54       1.0  0.31671  0.50262  0.81432  1.0000
  S   S1        1.0  0.09078  0.30431  0.30773  1.0000
  S   S2        1.0  0.90923  0.69569  0.69226  1.0000
  S   S3        1.0  0.29075  0.90985  0.44229  1.0000
  S   S4        1.0  0.70925  0.09016  0.55771  1.0000
  S   S5        1.0  0.77882  0.55801  0.12013  1.0000
  S   S6        1.0  0.22119  0.44200  0.87988  1.0000
  Br  Br1       1.0  0.58384  0.42871  0.39235  1.0000
  Br  Br2       1.0  0.41616  0.57129  0.60762  1.0000
  Br  Br3       1.0  0.15650  0.48190  0.17158  1.0000
  Br  Br4       1.0  0.84338  0.51812  0.82839  1.0000
  Br  Br5       1.0  0.02840  0.55916  0.40404  1.0000
  Br  Br6       1.0  0.97160  0.44082  0.59595  1.0000
  Br  Br7       1.0  0.45186  0.70785  0.39316  1.0000
  Br  Br8       1.0  0.54810  0.29213  0.60684  1.0000
  Br  Br9       1.0  0.85329  0.77988  0.35822  1.0000
  Br  Br10      1.0  0.14672  0.22012  0.64181  1.0000
  Br  Br11      1.0  0.08266  0.80757  0.16244  1.0000
  Br  Br12      1.0  0.91739  0.19243  0.83758  1.0000
