data_image0
_chemical_formula_structural       Na4H16C12N24Cl4O8
_chemical_formula_sum              "Na4 H16 C12 N24 Cl4 O8"
_cell_length_a       8.31226
_cell_length_b       9.48502
_cell_length_c       10.2431
_cell_angle_alpha    90
_cell_angle_beta     109.167
_cell_angle_gamma    90

_space_group_name_H-M_alt    "P 1"
_space_group_IT_number       1

loop_
  _space_group_symop_operation_xyz
  'x, y, z'

loop_
  _atom_site_type_symbol
  _atom_site_label
  _atom_site_symmetry_multiplicity
  _atom_site_fract_x
  _atom_site_fract_y
  _atom_site_fract_z
  _atom_site_occupancy
  Na  Na1       1.0  0.97730  0.18634  0.92355  1.0000
  Na  Na2       1.0  0.52270  0.68634  0.07645  1.0000
  Na  Na3       1.0  0.02271  0.81366  0.07645  1.0000
  Na  Na4       1.0  0.47730  0.31366  0.92355  1.0000
  H   H1        1.0  0.83165  0.30740  0.32510  1.0000
  H   H2        1.0  0.66835  0.80740  0.67490  1.0000
  H   H3        1.0  0.16835  0.69260  0.67490  1.0000
  H   H4        1.0  0.33165  0.19260  0.32510  1.0000
  H   H5        1.0  0.61800  0.27933  0.31785  1.0000
  H   H6        1.0  0.88200  0.77933  0.68215  1.0000
  H   H7        1.0  0.38200  0.72067  0.68215  1.0000
  H   H8        1.0  0.11800  0.22067  0.31785  1.0000
  H   H9        1.0  0.93838  0.16709  0.54591  1.0000
  H   H10       1.0  0.56162  0.66709  0.45409  1.0000
  H   H11       1.0  0.06162  0.83291  0.45409  1.0000
  H   H12       1.0  0.43838  0.33291  0.54591  1.0000
  H   H13       1.0  0.81490  0.31624  0.56089  1.0000
  H   H14       1.0  0.68510  0.81624  0.43911  1.0000
  H   H15       1.0  0.18510  0.68376  0.43911  1.0000
  H   H16       1.0  0.31490  0.18376  0.56089  1.0000
  C   C1        1.0  0.74661  0.23465  0.35457  1.0000
  C   C2        1.0  0.75339  0.73465  0.64543  1.0000
  C   C3        1.0  0.25339  0.76535  0.64543  1.0000
  C   C4        1.0  0.24661  0.26535  0.35457  1.0000
  C   C5        1.0  0.60879  0.02276  0.20574  1.0000
  C   C6        1.0  0.89121  0.52275  0.79426  1.0000
  C   C7        1.0  0.39121  0.97724  0.79426  1.0000
  C   C8        1.0  0.10879  0.47724  0.20574  1.0000
  C   C9        1.0  0.81140  0.21435  0.50982  1.0000
  C   C10       1.0  0.68860  0.71435  0.49018  1.0000
  C   C11       1.0  0.18860  0.78565  0.49018  1.0000
  C   C12       1.0  0.31140  0.28565  0.50982  1.0000
  N   N1        1.0  0.74390  0.10325  0.28082  1.0000
  N   N2        1.0  0.75610  0.60325  0.71918  1.0000
  N   N3        1.0  0.25610  0.89675  0.71918  1.0000
  N   N4        1.0  0.24390  0.39675  0.28082  1.0000
  N   N5        1.0  0.67338  0.90632  0.16589  1.0000
  N   N6        1.0  0.82662  0.40632  0.83411  1.0000
  N   N7        1.0  0.32662  0.09368  0.83411  1.0000
  N   N8        1.0  0.17338  0.59368  0.16589  1.0000
  N   N9        1.0  0.88944  0.03821  0.28517  1.0000
  N   N10       1.0  0.61056  0.53821  0.71483  1.0000
  N   N11       1.0  0.11056  0.96179  0.71483  1.0000
  N   N12       1.0  0.38944  0.46179  0.28517  1.0000
  N   N13       1.0  0.44963  0.07474  0.18468  1.0000
  N   N14       1.0  0.05037  0.57474  0.81532  1.0000
  N   N15       1.0  0.55037  0.92526  0.81532  1.0000
  N   N16       1.0  0.94963  0.42526  0.18468  1.0000
  N   N17       1.0  0.84553  0.92140  0.21595  1.0000
  N   N18       1.0  0.65447  0.42140  0.78405  1.0000
  N   N19       1.0  0.15447  0.07860  0.78405  1.0000
  N   N20       1.0  0.34553  0.57860  0.21595  1.0000
  N   N21       1.0  0.31704  0.99664  0.11866  1.0000
  N   N22       1.0  0.18296  0.49663  0.88134  1.0000
  N   N23       1.0  0.68296  0.00337  0.88134  1.0000
  N   N24       1.0  0.81704  0.50337  0.11866  1.0000
  Cl  Cl1       1.0  0.67653  0.09945  0.56688  1.0000
  Cl  Cl2       1.0  0.82347  0.59945  0.43312  1.0000
  Cl  Cl3       1.0  0.32347  0.90055  0.43312  1.0000
  Cl  Cl4       1.0  0.17653  0.40055  0.56688  1.0000
  O   O1        1.0  0.17160  0.05009  0.10331  1.0000
  O   O2        1.0  0.32840  0.55009  0.89669  1.0000
  O   O3        1.0  0.82840  0.94991  0.89669  1.0000
  O   O4        1.0  0.67160  0.44991  0.10331  1.0000
  O   O5        1.0  0.32529  0.87305  0.07351  1.0000
  O   O6        1.0  0.17471  0.37305  0.92649  1.0000
  O   O7        1.0  0.67471  0.12695  0.92649  1.0000
  O   O8        1.0  0.82529  0.62695  0.07351  1.0000
