data_image0
_chemical_formula_structural       K6H24C18N54O12
_chemical_formula_sum              "K6 H24 C18 N54 O12"
_cell_length_a       6.85701
_cell_length_b       11.047
_cell_length_c       18.1776
_cell_angle_alpha    96.4002
_cell_angle_beta     97.0657
_cell_angle_gamma    95.9408

_space_group_name_H-M_alt    "P 1"
_space_group_IT_number       1

loop_
  _space_group_symop_operation_xyz
  'x, y, z'

loop_
  _atom_site_type_symbol
  _atom_site_label
  _atom_site_symmetry_multiplicity
  _atom_site_fract_x
  _atom_site_fract_y
  _atom_site_fract_z
  _atom_site_occupancy
  K   K1        1.0  0.56057  0.81589  0.43104  1.0000
  K   K2        1.0  0.43943  0.18410  0.56896  1.0000
  K   K3        1.0  0.95242  0.09822  0.38124  1.0000
  K   K4        1.0  0.04758  0.90176  0.61876  1.0000
  K   K5        1.0  0.09131  0.79921  0.23906  1.0000
  K   K6        1.0  0.90868  0.20080  0.76094  1.0000
  H   H1        1.0  0.70103  0.70048  0.96145  1.0000
  H   H2        1.0  0.29897  0.29952  0.03855  1.0000
  H   H3        1.0  0.96010  0.75082  0.98176  1.0000
  H   H4        1.0  0.03989  0.24918  0.01824  1.0000
  H   H5        1.0  0.16469  0.71415  0.86355  1.0000
  H   H6        1.0  0.83530  0.28585  0.13644  1.0000
  H   H7        1.0  0.41279  0.68131  0.88361  1.0000
  H   H8        1.0  0.58720  0.31869  0.11639  1.0000
  H   H9        1.0  0.89263  0.90381  0.08672  1.0000
  H   H10       1.0  0.10737  0.09619  0.91328  1.0000
  H   H11       1.0  0.78279  0.92787  0.99621  1.0000
  H   H12       1.0  0.21721  0.07213  0.00379  1.0000
  H   H13       1.0  0.27306  0.87514  0.78632  1.0000
  H   H14       1.0  0.72693  0.12487  0.21368  1.0000
  H   H15       1.0  0.38328  0.90101  0.88175  1.0000
  H   H16       1.0  0.61671  0.09899  0.11825  1.0000
  H   H17       1.0  0.27497  0.39382  0.43321  1.0000
  H   H18       1.0  0.72504  0.60618  0.56680  1.0000
  H   H19       1.0  0.35397  0.54573  0.41761  1.0000
  H   H20       1.0  0.64604  0.45428  0.58240  1.0000
  H   H21       1.0  0.41427  0.38485  0.31778  1.0000
  H   H22       1.0  0.58575  0.61516  0.68222  1.0000
  H   H23       1.0  0.15356  0.33797  0.29709  1.0000
  H   H24       1.0  0.84646  0.66204  0.70291  1.0000
  C   C1        1.0  0.62287  0.87828  0.73677  1.0000
  C   C2        1.0  0.37712  0.12172  0.26323  1.0000
  C   C3        1.0  0.99045  0.61422  0.41144  1.0000
  C   C4        1.0  0.00956  0.38577  0.58856  1.0000
  C   C5        1.0  0.53894  0.85411  0.13512  1.0000
  C   C6        1.0  0.46106  0.14589  0.86488  1.0000
  C   C7        1.0  0.82095  0.74033  0.00578  1.0000
  C   C8        1.0  0.17905  0.25968  0.99422  1.0000
  C   C9        1.0  0.30714  0.71306  0.84164  1.0000
  C   C10       1.0  0.69285  0.28694  0.15836  1.0000
  C   C11       1.0  0.78082  0.86581  0.03919  1.0000
  C   C12       1.0  0.21918  0.13419  0.96081  1.0000
  C   C13       1.0  0.37588  0.84246  0.82848  1.0000
  C   C14       1.0  0.62412  0.15754  0.17152  1.0000
  C   C15       1.0  0.24654  0.46512  0.39733  1.0000
  C   C16       1.0  0.75347  0.53488  0.60267  1.0000
  C   C17       1.0  0.26707  0.41613  0.31768  1.0000
  C   C18       1.0  0.73294  0.58387  0.68232  1.0000
  N   N1        1.0  0.58800  0.86223  0.06512  1.0000
  N   N2        1.0  0.41200  0.13777  0.93488  1.0000
  N   N3        1.0  0.12026  0.71056  0.40003  1.0000
  N   N4        1.0  0.87974  0.28944  0.59997  1.0000
  N   N5        1.0  0.05091  0.50009  0.40568  1.0000
  N   N6        1.0  0.94910  0.49990  0.59432  1.0000
  N   N7        1.0  0.82214  0.88851  0.74329  1.0000
  N   N8        1.0  0.17786  0.11148  0.25671  1.0000
  N   N9        1.0  0.48123  0.89729  0.68111  1.0000
  N   N10       1.0  0.51877  0.10271  0.31889  1.0000
  N   N11       1.0  0.34072  0.85182  0.13035  1.0000
  N   N12       1.0  0.65928  0.14818  0.86965  1.0000
  N   N13       1.0  0.68851  0.86253  0.19290  1.0000
  N   N14       1.0  0.31149  0.13747  0.80710  1.0000
  N   N15       1.0  0.79720  0.60078  0.41987  1.0000
  N   N16       1.0  0.20281  0.39922  0.58013  1.0000
  N   N17       1.0  0.51728  0.87161  0.61145  1.0000
  N   N18       1.0  0.48272  0.12839  0.38855  1.0000
  N   N19       1.0  0.08474  0.82283  0.42403  1.0000
  N   N20       1.0  0.91526  0.17716  0.57597  1.0000
  N   N21       1.0  0.73702  0.84996  0.85180  1.0000
  N   N22       1.0  0.26297  0.15004  0.14820  1.0000
  N   N23       1.0  0.42047  0.86430  0.01771  1.0000
  N   N24       1.0  0.57953  0.13570  0.98229  1.0000
  N   N25       1.0  0.88509  0.86997  0.81466  1.0000
  N   N26       1.0  0.11490  0.13003  0.18534  1.0000
  N   N27       1.0  0.74543  0.47802  0.41834  1.0000
  N   N28       1.0  0.25458  0.52197  0.58166  1.0000
  N   N29       1.0  0.89516  0.41646  0.41013  1.0000
  N   N30       1.0  0.10485  0.58353  0.58987  1.0000
  N   N31       1.0  0.57070  0.85505  0.80427  1.0000
  N   N32       1.0  0.42929  0.14495  0.19573  1.0000
  N   N33       1.0  0.64242  0.83959  0.25875  1.0000
  N   N34       1.0  0.35758  0.16041  0.74125  1.0000
  N   N35       1.0  0.27536  0.85875  0.05746  1.0000
  N   N36       1.0  0.72463  0.14125  0.94254  1.0000
  N   N37       1.0  0.24444  0.52042  0.77395  1.0000
  N   N38       1.0  0.75556  0.47958  0.22605  1.0000
  N   N39       1.0  0.84113  0.65916  0.06512  1.0000
  N   N40       1.0  0.15887  0.34084  0.93488  1.0000
  N   N41       1.0  0.27846  0.49224  0.20431  1.0000
  N   N42       1.0  0.72154  0.50776  0.79569  1.0000
  N   N43       1.0  0.28390  0.63032  0.77063  1.0000
  N   N44       1.0  0.71609  0.36969  0.22937  1.0000
  N   N45       1.0  0.24564  0.51395  0.26891  1.0000
  N   N46       1.0  0.75437  0.48606  0.73110  1.0000
  N   N47       1.0  0.81239  0.54854  0.04459  1.0000
  N   N48       1.0  0.18761  0.45146  0.95541  1.0000
  N   N49       1.0  0.20795  0.41555  0.76930  1.0000
  N   N50       1.0  0.79206  0.58445  0.23069  1.0000
  N   N51       1.0  0.30501  0.48474  0.14260  1.0000
  N   N52       1.0  0.69498  0.51526  0.85740  1.0000
  N   N53       1.0  0.78828  0.44311  0.03223  1.0000
  N   N54       1.0  0.21172  0.55689  0.96778  1.0000
  O   O1        1.0  0.78397  0.86233  0.31257  1.0000
  O   O2        1.0  0.21603  0.13767  0.68743  1.0000
  O   O3        1.0  0.95940  0.84576  0.46738  1.0000
  O   O4        1.0  0.04060  0.15423  0.53262  1.0000
  O   O5        1.0  0.65680  0.81296  0.59354  1.0000
  O   O6        1.0  0.34319  0.18704  0.40646  1.0000
  O   O7        1.0  0.47361  0.79554  0.27036  1.0000
  O   O8        1.0  0.52639  0.20446  0.72963  1.0000
  O   O9        1.0  0.18899  0.90921  0.40105  1.0000
  O   O10       1.0  0.81101  0.09079  0.59895  1.0000
  O   O11       1.0  0.39738  0.90596  0.56108  1.0000
  O   O12       1.0  0.60262  0.09404  0.43892  1.0000
