data_image0
_chemical_formula_structural       Mg4H24C32O20
_chemical_formula_sum              "Mg4 H24 C32 O20"
_cell_length_a       6.95808
_cell_length_b       9.56421
_cell_length_c       11.8758
_cell_angle_alpha    90.0004
_cell_angle_beta     90.0009
_cell_angle_gamma    90.0004

_space_group_name_H-M_alt    "P 1"
_space_group_IT_number       1

loop_
  _space_group_symop_operation_xyz
  'x, y, z'

loop_
  _atom_site_type_symbol
  _atom_site_label
  _atom_site_symmetry_multiplicity
  _atom_site_fract_x
  _atom_site_fract_y
  _atom_site_fract_z
  _atom_site_occupancy
  Mg  Mg1       1.0  0.04120  0.77519  0.20580  1.0000
  Mg  Mg2       1.0  0.95879  0.22481  0.70581  1.0000
  Mg  Mg3       1.0  0.45879  0.27519  0.70581  1.0000
  Mg  Mg4       1.0  0.54120  0.72481  0.20580  1.0000
  H   H1        1.0  0.81376  0.67963  0.86201  1.0000
  H   H2        1.0  0.18634  0.32043  0.36209  1.0000
  H   H3        1.0  0.68634  0.17957  0.36210  1.0000
  H   H4        1.0  0.31375  0.82036  0.86201  1.0000
  H   H5        1.0  0.75811  0.50176  0.83486  1.0000
  H   H6        1.0  0.24189  0.49832  0.33490  1.0000
  H   H7        1.0  0.74189  0.00169  0.33490  1.0000
  H   H8        1.0  0.25812  0.99823  0.83486  1.0000
  H   H9        1.0  0.90595  0.59303  0.73968  1.0000
  H   H10       1.0  0.09413  0.40696  0.23972  1.0000
  H   H11       1.0  0.59413  0.09305  0.23972  1.0000
  H   H12       1.0  0.40595  0.90696  0.73967  1.0000
  H   H13       1.0  0.80969  0.39748  0.14502  1.0000
  H   H14       1.0  0.19024  0.60252  0.64493  1.0000
  H   H15       1.0  0.69025  0.89748  0.64495  1.0000
  H   H16       1.0  0.30968  0.10253  0.14502  1.0000
  H   H17       1.0  0.71270  0.31912  0.01941  1.0000
  H   H18       1.0  0.28734  0.68092  0.51937  1.0000
  H   H19       1.0  0.78733  0.81910  0.51938  1.0000
  H   H20       1.0  0.21268  0.18090  0.01942  1.0000
  H   H21       1.0  0.59028  0.29928  0.15201  1.0000
  H   H22       1.0  0.40965  0.70071  0.65202  1.0000
  H   H23       1.0  0.90967  0.79929  0.65202  1.0000
  H   H24       1.0  0.09026  0.20071  0.15203  1.0000
  C   C1        1.0  0.25789  0.57252  0.06891  1.0000
  C   C2        1.0  0.74209  0.42749  0.56891  1.0000
  C   C3        1.0  0.24209  0.07252  0.56892  1.0000
  C   C4        1.0  0.75789  0.92748  0.06891  1.0000
  C   C5        1.0  0.08111  0.60493  0.00038  1.0000
  C   C6        1.0  0.91889  0.39508  0.50040  1.0000
  C   C7        1.0  0.41889  0.10493  0.50040  1.0000
  C   C8        1.0  0.58111  0.89506  0.00038  1.0000
  C   C9        1.0  0.04682  0.54086  0.89496  1.0000
  C   C10       1.0  0.95319  0.45916  0.39498  1.0000
  C   C11       1.0  0.45320  0.04085  0.39498  1.0000
  C   C12       1.0  0.54683  0.95914  0.89496  1.0000
  C   C13       1.0  0.18518  0.44732  0.85587  1.0000
  C   C14       1.0  0.81485  0.55268  0.35587  1.0000
  C   C15       1.0  0.31485  0.94732  0.35587  1.0000
  C   C16       1.0  0.68518  0.05267  0.85587  1.0000
  C   C17       1.0  0.37671  0.42751  0.91816  1.0000
  C   C18       1.0  0.62330  0.57250  0.41815  1.0000
  C   C19       1.0  0.12330  0.92751  0.41816  1.0000
  C   C20       1.0  0.87671  0.07248  0.91816  1.0000
  C   C21       1.0  0.40594  0.49273  0.02374  1.0000
  C   C22       1.0  0.59405  0.50727  0.52372  1.0000
  C   C23       1.0  0.09404  0.99274  0.52373  1.0000
  C   C24       1.0  0.90593  0.00726  0.02373  1.0000
  C   C25       1.0  0.87176  0.58101  0.82941  1.0000
  C   C26       1.0  0.12827  0.41904  0.32946  1.0000
  C   C27       1.0  0.62827  0.08096  0.32947  1.0000
  C   C28       1.0  0.37176  0.91899  0.82940  1.0000
  C   C29       1.0  0.67838  0.36936  0.09985  1.0000
  C   C30       1.0  0.32160  0.63065  0.59982  1.0000
  C   C31       1.0  0.82161  0.86936  0.59981  1.0000
  C   C32       1.0  0.17834  0.13064  0.09986  1.0000
  O   O1        1.0  0.26973  0.63454  0.16499  1.0000
  O   O2        1.0  0.73025  0.36547  0.66499  1.0000
  O   O3        1.0  0.23025  0.13454  0.66499  1.0000
  O   O4        1.0  0.76973  0.86545  0.16499  1.0000
  O   O5        1.0  0.97261  0.69627  0.04352  1.0000
  O   O6        1.0  0.02738  0.30375  0.54354  1.0000
  O   O7        1.0  0.52737  0.19627  0.54354  1.0000
  O   O8        1.0  0.47260  0.80373  0.04352  1.0000
  O   O9        1.0  0.17398  0.37711  0.76325  1.0000
  O   O10       1.0  0.82604  0.62288  0.26325  1.0000
  O   O11       1.0  0.32603  0.87711  0.26325  1.0000
  O   O12       1.0  0.67398  0.12289  0.76324  1.0000
  O   O13       1.0  0.50098  0.35311  0.86784  1.0000
  O   O14       1.0  0.49904  0.64690  0.36783  1.0000
  O   O15       1.0  0.99903  0.85310  0.36783  1.0000
  O   O16       1.0  0.00098  0.14688  0.86784  1.0000
  O   O17       1.0  0.57838  0.49936  0.08110  1.0000
  O   O18       1.0  0.42160  0.50065  0.58107  1.0000
  O   O19       1.0  0.92160  0.99935  0.58108  1.0000
  O   O20       1.0  0.07837  0.00064  0.08110  1.0000
