data_image0
_chemical_formula_structural       H28Pb4C12Br8N4O8
_chemical_formula_sum              "H28 Pb4 C12 Br8 N4 O8"
_cell_length_a       5.99601
_cell_length_b       8.26895
_cell_length_c       16.5942
_cell_angle_alpha    90.003
_cell_angle_beta     90.0003
_cell_angle_gamma    100.056

_space_group_name_H-M_alt    "P 1"
_space_group_IT_number       1

loop_
  _space_group_symop_operation_xyz
  'x, y, z'

loop_
  _atom_site_type_symbol
  _atom_site_label
  _atom_site_symmetry_multiplicity
  _atom_site_fract_x
  _atom_site_fract_y
  _atom_site_fract_z
  _atom_site_occupancy
  H   H1        1.0  0.28894  0.58741  0.42521  1.0000
  H   H2        1.0  0.71100  0.91259  0.92514  1.0000
  H   H3        1.0  0.71105  0.41254  0.57484  1.0000
  H   H4        1.0  0.28898  0.08737  0.07478  1.0000
  H   H5        1.0  0.26114  0.74175  0.35866  1.0000
  H   H6        1.0  0.73877  0.75821  0.85861  1.0000
  H   H7        1.0  0.73873  0.25806  0.64132  1.0000
  H   H8        1.0  0.26123  0.24194  0.14124  1.0000
  H   H9        1.0  0.42021  0.78506  0.44086  1.0000
  H   H10       1.0  0.57979  0.71493  0.94086  1.0000
  H   H11       1.0  0.57975  0.21496  0.55908  1.0000
  H   H12       1.0  0.42033  0.28503  0.05896  1.0000
  H   H13       1.0  0.66179  0.78010  0.32657  1.0000
  H   H14       1.0  0.33817  0.71985  0.82654  1.0000
  H   H15       1.0  0.33814  0.21979  0.67342  1.0000
  H   H16       1.0  0.66192  0.28027  0.17329  1.0000
  H   H17       1.0  0.50236  0.58651  0.29817  1.0000
  H   H18       1.0  0.49744  0.91347  0.79817  1.0000
  H   H19       1.0  0.49753  0.41337  0.70182  1.0000
  H   H20       1.0  0.50246  0.08678  0.20182  1.0000
  H   H21       1.0  0.85963  0.54645  0.35971  1.0000
  H   H22       1.0  0.14019  0.95340  0.85976  1.0000
  H   H23       1.0  0.14029  0.45343  0.64028  1.0000
  H   H24       1.0  0.85963  0.04652  0.14028  1.0000
  H   H25       1.0  0.63169  0.45418  0.42003  1.0000
  H   H26       1.0  0.36822  0.04569  0.92004  1.0000
  H   H27       1.0  0.36826  0.54571  0.57995  1.0000
  H   H28       1.0  0.63178  0.95427  0.07995  1.0000
  Pb  Pb1       1.0  0.96022  0.88268  0.61701  1.0000
  Pb  Pb2       1.0  0.03979  0.61756  0.11709  1.0000
  Pb  Pb3       1.0  0.03955  0.11739  0.38313  1.0000
  Pb  Pb4       1.0  0.96069  0.38286  0.88313  1.0000
  C   C1        1.0  0.83340  0.67118  0.47088  1.0000
  C   C2        1.0  0.16656  0.82877  0.97093  1.0000
  C   C3        1.0  0.16660  0.32878  0.52911  1.0000
  C   C4        1.0  0.83359  0.17124  0.02911  1.0000
  C   C5        1.0  0.57132  0.66265  0.34954  1.0000
  C   C6        1.0  0.42858  0.83728  0.84953  1.0000
  C   C7        1.0  0.42860  0.33725  0.65044  1.0000
  C   C8        1.0  0.57143  0.16277  0.15041  1.0000
  C   C9        1.0  0.72385  0.57346  0.39962  1.0000
  C   C10       1.0  0.27607  0.92641  0.89962  1.0000
  C   C11       1.0  0.27609  0.42644  0.60037  1.0000
  C   C12       1.0  0.72391  0.07354  0.10037  1.0000
  Br  Br1       1.0  0.90210  0.63748  0.74900  1.0000
  Br  Br2       1.0  0.09791  0.86256  0.24913  1.0000
  Br  Br3       1.0  0.09798  0.36226  0.25093  1.0000
  Br  Br4       1.0  0.90234  0.13778  0.75099  1.0000
  Br  Br5       1.0  0.45517  0.88199  0.60177  1.0000
  Br  Br6       1.0  0.54470  0.61805  0.10167  1.0000
  Br  Br7       1.0  0.54473  0.11800  0.39845  1.0000
  Br  Br8       1.0  0.45539  0.38196  0.89842  1.0000
  N   N1        1.0  0.37251  0.69618  0.39730  1.0000
  N   N2        1.0  0.62742  0.80378  0.89725  1.0000
  N   N3        1.0  0.62743  0.30374  0.60270  1.0000
  N   N4        1.0  0.37260  0.19627  0.10262  1.0000
  O   O1        1.0  0.82848  0.60291  0.54010  1.0000
  O   O2        1.0  0.17160  0.89709  0.04012  1.0000
  O   O3        1.0  0.17147  0.39708  0.45992  1.0000
  O   O4        1.0  0.82854  0.10302  0.95988  1.0000
  O   O5        1.0  0.92777  0.82074  0.46098  1.0000
  O   O6        1.0  0.07206  0.67923  0.96107  1.0000
  O   O7        1.0  0.07216  0.17920  0.53901  1.0000
  O   O8        1.0  0.92796  0.32078  0.03906  1.0000
