data_image0
_chemical_formula_structural       CoH14C10N8O2
_chemical_formula_sum              "Co1 H14 C10 N8 O2"
_cell_length_a       7.3915
_cell_length_b       7.52886
_cell_length_c       8.001
_cell_angle_alpha    108.134
_cell_angle_beta     90.0203
_cell_angle_gamma    119.875

_space_group_name_H-M_alt    "P 1"
_space_group_IT_number       1

loop_
  _space_group_symop_operation_xyz
  'x, y, z'

loop_
  _atom_site_type_symbol
  _atom_site_label
  _atom_site_symmetry_multiplicity
  _atom_site_fract_x
  _atom_site_fract_y
  _atom_site_fract_z
  _atom_site_occupancy
  Co  Co1       1.0  0.00000  0.00000  0.50000  1.0000
  H   H1        1.0  0.76702  0.53417  0.23772  1.0000
  H   H2        1.0  0.23298  0.46583  0.76228  1.0000
  H   H3        1.0  0.76384  0.52732  0.71591  1.0000
  H   H4        1.0  0.23616  0.47269  0.28409  1.0000
  H   H5        1.0  0.99525  0.75053  0.87566  1.0000
  H   H6        1.0  0.24488  0.25157  0.12494  1.0000
  H   H7        1.0  0.00475  0.24947  0.12435  1.0000
  H   H8        1.0  0.75511  0.74843  0.87506  1.0000
  H   H9        1.0  0.61111  0.22268  0.01439  1.0000
  H   H10       1.0  0.38889  0.77732  0.98561  1.0000
  H   H11       1.0  0.73244  0.22319  0.82101  1.0000
  H   H12       1.0  0.51079  0.77914  0.17978  1.0000
  H   H13       1.0  0.26756  0.77681  0.17899  1.0000
  H   H14       1.0  0.48921  0.22086  0.82022  1.0000
  C   C1        1.0  0.54077  0.77071  0.57571  1.0000
  C   C2        1.0  0.76651  0.22685  0.42086  1.0000
  C   C3        1.0  0.45923  0.22927  0.42429  1.0000
  C   C4        1.0  0.23349  0.77316  0.57914  1.0000
  C   C5        1.0  0.81728  0.63421  0.15226  1.0000
  C   C6        1.0  0.18272  0.36578  0.84773  1.0000
  C   C7        1.0  0.82206  0.64351  0.85372  1.0000
  C   C8        1.0  0.17793  0.35649  0.14628  1.0000
  C   C9        1.0  0.64169  0.28367  0.90330  1.0000
  C   C10       1.0  0.35831  0.71633  0.09670  1.0000
  N   N1        1.0  0.69737  0.79194  0.52422  1.0000
  N   N2        1.0  0.90128  0.20319  0.46862  1.0000
  N   N3        1.0  0.30263  0.20806  0.47578  1.0000
  N   N4        1.0  0.09871  0.79681  0.53138  1.0000
  N   N5        1.0  0.37299  0.74239  0.64284  1.0000
  N   N6        1.0  0.62700  0.25762  0.35716  1.0000
  N   N7        1.0  0.76161  0.52289  0.97611  1.0000
  N   N8        1.0  0.23839  0.47711  0.02390  1.0000
  O   O1        1.0  0.92085  0.84105  0.21714  1.0000
  O   O2        1.0  0.07916  0.15895  0.78286  1.0000
