data_image0
_chemical_formula_structural       CoH14C10N8O2
_chemical_formula_sum              "Co1 H14 C10 N8 O2"
_cell_length_a       7.39632
_cell_length_b       7.5869
_cell_length_c       7.97367
_cell_angle_alpha    108.7
_cell_angle_beta     89.9415
_cell_angle_gamma    119.494

_space_group_name_H-M_alt    "P 1"
_space_group_IT_number       1

loop_
  _space_group_symop_operation_xyz
  'x, y, z'

loop_
  _atom_site_type_symbol
  _atom_site_label
  _atom_site_symmetry_multiplicity
  _atom_site_fract_x
  _atom_site_fract_y
  _atom_site_fract_z
  _atom_site_occupancy
  Co  Co1       1.0  0.17288  0.00006  0.50000  1.0000
  H   H1        1.0  0.40211  0.46259  0.76005  1.0000
  H   H2        1.0  0.93989  0.53733  0.23996  1.0000
  H   H3        1.0  0.55975  0.77743  0.97481  1.0000
  H   H4        1.0  0.78206  0.22235  0.02511  1.0000
  H   H5        1.0  0.69062  0.79168  0.17172  1.0000
  H   H6        1.0  0.89957  0.20968  0.82847  1.0000
  H   H7        1.0  0.44667  0.78724  0.17382  1.0000
  H   H8        1.0  0.65856  0.21113  0.82587  1.0000
  H   H9        1.0  0.27599  0.43418  0.24590  1.0000
  H   H10       1.0  0.84047  0.56490  0.75461  1.0000
  H   H11       1.0  0.52174  0.44520  0.24650  1.0000
  H   H12       1.0  0.07602  0.55554  0.75292  1.0000
  H   H13       1.0  0.28920  0.21072  0.09393  1.0000
  H   H14       1.0  0.07912  0.78920  0.90601  1.0000
  C   C1        1.0  0.93835  0.22511  0.42113  1.0000
  C   C2        1.0  0.71471  0.77322  0.57622  1.0000
  C   C3        1.0  0.63111  0.22734  0.42456  1.0000
  C   C4        1.0  0.40715  0.77481  0.57829  1.0000
  C   C5        1.0  0.35711  0.36810  0.84883  1.0000
  C   C6        1.0  0.98947  0.63180  0.15115  1.0000
  C   C7        1.0  0.53586  0.72481  0.09013  1.0000
  C   C8        1.0  0.81097  0.27505  0.90983  1.0000
  C   C9        1.0  0.37348  0.38782  0.16012  1.0000
  C   C10       1.0  0.98538  0.61209  0.83985  1.0000
  N   N1        1.0  0.07283  0.20056  0.46784  1.0000
  N   N2        1.0  0.87255  0.79631  0.52651  1.0000
  N   N3        1.0  0.80037  0.25860  0.35945  1.0000
  N   N4        1.0  0.54510  0.74174  0.64072  1.0000
  N   N5        1.0  0.47353  0.20467  0.47458  1.0000
  N   N6        1.0  0.27260  0.79900  0.53121  1.0000
  N   N7        1.0  0.41939  0.48776  0.02510  1.0000
  N   N8        1.0  0.93170  0.51213  0.97488  1.0000
  O   O1        1.0  0.25501  0.16283  0.78557  1.0000
  O   O2        1.0  0.09268  0.83706  0.21438  1.0000
