data_image0
_chemical_formula_structural       Ni2H24C36N4O8
_chemical_formula_sum              "Ni2 H24 C36 N4 O8"
_cell_length_a       9.53225
_cell_length_b       9.53218
_cell_length_c       11.1598
_cell_angle_alpha    67.2448
_cell_angle_beta     67.2446
_cell_angle_gamma    64.8504

_space_group_name_H-M_alt    "P 1"
_space_group_IT_number       1

loop_
  _space_group_symop_operation_xyz
  'x, y, z'

loop_
  _atom_site_type_symbol
  _atom_site_label
  _atom_site_symmetry_multiplicity
  _atom_site_fract_x
  _atom_site_fract_y
  _atom_site_fract_z
  _atom_site_occupancy
  Ni  Ni1       1.0  0.13248  0.13248  0.84130  1.0000
  Ni  Ni2       1.0  0.86752  0.86752  0.15870  1.0000
  H   H1        1.0  0.75495  0.50864  0.82069  1.0000
  H   H2        1.0  0.50864  0.75495  0.82068  1.0000
  H   H3        1.0  0.24505  0.49136  0.17932  1.0000
  H   H4        1.0  0.49135  0.24505  0.17932  1.0000
  H   H5        1.0  0.45996  0.45996  0.74424  1.0000
  H   H6        1.0  0.54005  0.54003  0.25576  1.0000
  H   H7        1.0  0.37343  0.37343  0.43048  1.0000
  H   H8        1.0  0.62658  0.62656  0.56952  1.0000
  H   H9        1.0  0.95164  0.35649  0.01704  1.0000
  H   H10       1.0  0.35648  0.95165  0.01703  1.0000
  H   H11       1.0  0.04836  0.64352  0.98296  1.0000
  H   H12       1.0  0.64352  0.04835  0.98297  1.0000
  H   H13       1.0  0.94760  0.37232  0.23354  1.0000
  H   H14       1.0  0.37232  0.94761  0.23353  1.0000
  H   H15       1.0  0.05240  0.62768  0.76647  1.0000
  H   H16       1.0  0.62768  0.05239  0.76647  1.0000
  H   H17       1.0  0.93841  0.36318  0.41658  1.0000
  H   H18       1.0  0.36317  0.93842  0.41657  1.0000
  H   H19       1.0  0.06159  0.63682  0.58343  1.0000
  H   H20       1.0  0.63683  0.06159  0.58343  1.0000
  H   H21       1.0  0.93036  0.33443  0.64941  1.0000
  H   H22       1.0  0.33443  0.93037  0.64940  1.0000
  H   H23       1.0  0.06964  0.66557  0.35059  1.0000
  H   H24       1.0  0.66557  0.06963  0.35060  1.0000
  C   C1        1.0  0.78284  0.21717  1.00000  1.0000
  C   C2        1.0  0.21716  0.78284  0.00001  1.0000
  C   C3        1.0  0.63655  0.36345  0.00000  1.0000
  C   C4        1.0  0.36345  0.63655  0.00001  1.0000
  C   C5        1.0  0.64242  0.50648  0.89837  1.0000
  C   C6        1.0  0.50647  0.64243  0.89837  1.0000
  C   C7        1.0  0.35758  0.49352  0.10164  1.0000
  C   C8        1.0  0.49352  0.35757  0.10164  1.0000
  C   C9        1.0  0.30622  0.30623  0.69912  1.0000
  C   C10       1.0  0.69378  0.69377  0.30088  1.0000
  C   C11       1.0  0.40682  0.40682  0.59752  1.0000
  C   C12       1.0  0.59320  0.59317  0.40247  1.0000
  C   C13       1.0  0.47761  0.47759  0.63739  1.0000
  C   C14       1.0  0.52241  0.52239  0.36260  1.0000
  C   C15       1.0  0.42925  0.42924  0.46039  1.0000
  C   C16       1.0  0.57076  0.57074  0.53960  1.0000
  C   C17       1.0  0.04057  0.26596  0.07027  1.0000
  C   C18       1.0  0.26595  0.04058  0.07026  1.0000
  C   C19       1.0  0.95943  0.73405  0.92973  1.0000
  C   C20       1.0  0.73405  0.95942  0.92973  1.0000
  C   C21       1.0  0.03880  0.27306  0.19268  1.0000
  C   C22       1.0  0.27305  0.03882  0.19268  1.0000
  C   C23       1.0  0.96119  0.72695  0.80732  1.0000
  C   C24       1.0  0.72694  0.96119  0.80732  1.0000
  C   C25       1.0  0.15461  0.15461  0.25950  1.0000
  C   C26       1.0  0.84539  0.84539  0.74050  1.0000
  C   C27       1.0  0.14992  0.14992  0.39486  1.0000
  C   C28       1.0  0.85008  0.85007  0.60514  1.0000
  C   C29       1.0  0.02875  0.26320  0.46324  1.0000
  C   C30       1.0  0.26320  0.02876  0.46324  1.0000
  C   C31       1.0  0.97125  0.73680  0.53676  1.0000
  C   C32       1.0  0.73680  0.97124  0.53676  1.0000
  C   C33       1.0  0.02362  0.24960  0.59323  1.0000
  C   C34       1.0  0.24960  0.02363  0.59323  1.0000
  C   C35       1.0  0.97638  0.75040  0.40677  1.0000
  C   C36       1.0  0.75040  0.97638  0.40677  1.0000
  N   N1        1.0  0.14913  0.14914  0.01080  1.0000
  N   N2        1.0  0.85087  0.85086  0.98919  1.0000
  N   N3        1.0  0.13129  0.13129  0.65839  1.0000
  N   N4        1.0  0.86871  0.86871  0.34161  1.0000
  O   O1        1.0  0.89229  0.21612  0.88934  1.0000
  O   O2        1.0  0.21612  0.89229  0.88935  1.0000
  O   O3        1.0  0.10770  0.78388  0.11066  1.0000
  O   O4        1.0  0.78388  0.10771  0.11065  1.0000
  O   O5        1.0  0.37299  0.15488  0.73896  1.0000
  O   O6        1.0  0.15488  0.37300  0.73896  1.0000
  O   O7        1.0  0.62701  0.84511  0.26104  1.0000
  O   O8        1.0  0.84513  0.62700  0.26104  1.0000
