data_image0
_chemical_formula_structural       CdH14C10N8O2
_chemical_formula_sum              "Cd1 H14 C10 N8 O2"
_cell_length_a       6.47059
_cell_length_b       7.76603
_cell_length_c       8.16938
_cell_angle_alpha    102.762
_cell_angle_beta     103.638
_cell_angle_gamma    102.88

_space_group_name_H-M_alt    "P 1"
_space_group_IT_number       1

loop_
  _space_group_symop_operation_xyz
  'x, y, z'

loop_
  _atom_site_type_symbol
  _atom_site_label
  _atom_site_symmetry_multiplicity
  _atom_site_fract_x
  _atom_site_fract_y
  _atom_site_fract_z
  _atom_site_occupancy
  Cd  Cd1       1.0  0.50000  0.50000  1.00000  1.0000
  H   H1        1.0  0.31882  0.57883  0.33971  1.0000
  H   H2        1.0  0.68118  0.42118  0.66029  1.0000
  H   H3        1.0  0.38342  0.62358  0.57269  1.0000
  H   H4        1.0  0.61658  0.37644  0.42732  1.0000
  H   H5        1.0  0.45595  0.80821  0.48029  1.0000
  H   H6        1.0  0.54406  0.19180  0.51972  1.0000
  H   H7        1.0  0.92363  0.83835  0.58248  1.0000
  H   H8        1.0  0.07638  0.16166  0.41753  1.0000
  H   H9        1.0  0.20776  0.97016  0.63925  1.0000
  H   H10       1.0  0.79225  0.02984  0.36076  1.0000
  H   H11       1.0  0.13677  0.77706  0.72116  1.0000
  H   H12       1.0  0.86323  0.22295  0.27884  1.0000
  H   H13       1.0  0.98619  0.54125  0.19951  1.0000
  H   H14       1.0  0.01382  0.45875  0.80049  1.0000
  C   C1        1.0  0.73071  0.84581  0.86914  1.0000
  C   C2        1.0  0.26929  0.15417  0.13085  1.0000
  C   C3        1.0  0.33075  0.67842  0.46195  1.0000
  C   C4        1.0  0.66926  0.32159  0.53806  1.0000
  C   C5        1.0  0.09444  0.83077  0.60782  1.0000
  C   C6        1.0  0.90556  0.16924  0.39218  1.0000
  C   C7        1.0  0.94496  0.62860  0.30599  1.0000
  C   C8        1.0  0.05505  0.37140  0.69401  1.0000
  C   C9        1.0  0.71908  0.14638  0.89965  1.0000
  C   C10       1.0  0.28091  0.85361  0.10035  1.0000
  N   N1        1.0  0.72514  0.70289  0.89867  1.0000
  N   N2        1.0  0.27486  0.29710  0.10132  1.0000
  N   N3        1.0  0.74394  0.99332  0.81941  1.0000
  N   N4        1.0  0.25604  0.00666  0.18057  1.0000
  N   N5        1.0  0.11507  0.70927  0.45309  1.0000
  N   N6        1.0  0.88493  0.29073  0.54691  1.0000
  N   N7        1.0  0.70240  0.29335  0.96051  1.0000
  N   N8        1.0  0.29759  0.70664  0.03949  1.0000
  O   O1        1.0  0.75239  0.64594  0.28618  1.0000
  O   O2        1.0  0.24761  0.35406  0.71382  1.0000
