data_image0
_chemical_formula_structural       Er2H32C30O22
_chemical_formula_sum              "Er2 H32 C30 O22"
_cell_length_a       7.40543
_cell_length_b       9.30796
_cell_length_c       13.1002
_cell_angle_alpha    101.639
_cell_angle_beta     100.763
_cell_angle_gamma    107.713

_space_group_name_H-M_alt    "P 1"
_space_group_IT_number       1

loop_
  _space_group_symop_operation_xyz
  'x, y, z'

loop_
  _atom_site_type_symbol
  _atom_site_label
  _atom_site_symmetry_multiplicity
  _atom_site_fract_x
  _atom_site_fract_y
  _atom_site_fract_z
  _atom_site_occupancy
  Er  Er1       1.0  0.84942  0.78625  0.98883  1.0000
  Er  Er2       1.0  0.15061  0.21375  0.01118  1.0000
  H   H1        1.0  0.80481  0.43810  0.90975  1.0000
  H   H2        1.0  0.19519  0.56189  0.09024  1.0000
  H   H3        1.0  0.60983  0.46366  0.84708  1.0000
  H   H4        1.0  0.39017  0.53636  0.15292  1.0000
  H   H5        1.0  0.49630  0.77921  0.01712  1.0000
  H   H6        1.0  0.50368  0.22078  0.98288  1.0000
  H   H7        1.0  0.42482  0.59770  0.99715  1.0000
  H   H8        1.0  0.57519  0.40230  0.00285  1.0000
  H   H9        1.0  0.80735  0.23315  0.27657  1.0000
  H   H10       1.0  0.19268  0.76683  0.72342  1.0000
  H   H11       1.0  0.59967  0.22805  0.18269  1.0000
  H   H12       1.0  0.40036  0.77195  0.81731  1.0000
  H   H13       1.0  0.40096  0.76014  0.25565  1.0000
  H   H14       1.0  0.59899  0.23985  0.74436  1.0000
  H   H15       1.0  0.45560  0.67795  0.42722  1.0000
  H   H16       1.0  0.54439  0.32207  0.57279  1.0000
  H   H17       1.0  0.91804  0.12686  0.58090  1.0000
  H   H18       1.0  0.08197  0.87311  0.41909  1.0000
  H   H19       1.0  0.85207  0.20956  0.41842  1.0000
  H   H20       1.0  0.14793  0.79044  0.58158  1.0000
  H   H21       1.0  0.78514  0.06328  0.71558  1.0000
  H   H22       1.0  0.21488  0.93674  0.28444  1.0000
  H   H23       1.0  0.98188  0.99378  0.70636  1.0000
  H   H24       1.0  0.01812  0.00624  0.29362  1.0000
  H   H25       1.0  0.97484  0.44866  0.19472  1.0000
  H   H26       1.0  0.02515  0.55133  0.80527  1.0000
  H   H27       1.0  0.14444  0.63351  0.28190  1.0000
  H   H28       1.0  0.85556  0.36647  0.71812  1.0000
  H   H29       1.0  0.72070  0.59485  0.46952  1.0000
  H   H30       1.0  0.27928  0.40515  0.53047  1.0000
  H   H31       1.0  0.16813  0.45265  0.35593  1.0000
  H   H32       1.0  0.83185  0.54736  0.64408  1.0000
  C   C1        1.0  0.77166  0.10501  0.11521  1.0000
  C   C2        1.0  0.22835  0.89498  0.88479  1.0000
  C   C3        1.0  0.68499  0.15644  0.20659  1.0000
  C   C4        1.0  0.31501  0.84356  0.79340  1.0000
  C   C5        1.0  0.61965  0.98910  0.32513  1.0000
  C   C6        1.0  0.38033  0.01090  0.67487  1.0000
  C   C7        1.0  0.51300  0.83816  0.32860  1.0000
  C   C8        1.0  0.48696  0.16184  0.67141  1.0000
  C   C9        1.0  0.54450  0.79275  0.42312  1.0000
  C   C10       1.0  0.45548  0.20726  0.57688  1.0000
  C   C11       1.0  0.68776  0.89670  0.51612  1.0000
  C   C12       1.0  0.31222  0.10329  0.48388  1.0000
  C   C13       1.0  0.80138  0.04449  0.51145  1.0000
  C   C14       1.0  0.19860  0.95550  0.48855  1.0000
  C   C15       1.0  0.76599  0.09108  0.41680  1.0000
  C   C16       1.0  0.23401  0.90893  0.58320  1.0000
  C   C17       1.0  0.82441  0.95707  0.70513  1.0000
  C   C18       1.0  0.17560  0.04294  0.29487  1.0000
  C   C19       1.0  0.80258  0.89668  0.80267  1.0000
  C   C20       1.0  0.19744  0.10332  0.19734  1.0000
  C   C21       1.0  0.94025  0.64873  0.15274  1.0000
  C   C22       1.0  0.05979  0.35128  0.84727  1.0000
  C   C23       1.0  0.98901  0.56863  0.23696  1.0000
  C   C24       1.0  0.01098  0.43137  0.76305  1.0000
  C   C25       1.0  0.93651  0.53004  0.40174  1.0000
  C   C26       1.0  0.06345  0.46994  0.59825  1.0000
  C   C27       1.0  0.84113  0.55118  0.48280  1.0000
  C   C28       1.0  0.15884  0.44881  0.51719  1.0000
  C   C29       1.0  0.09533  0.47714  0.41877  1.0000
  C   C30       1.0  0.90464  0.52284  0.58123  1.0000
  O   O1        1.0  0.71236  0.96007  0.06630  1.0000
  O   O2        1.0  0.28764  0.03992  0.93368  1.0000
  O   O3        1.0  0.90210  0.21322  0.09576  1.0000
  O   O4        1.0  0.09791  0.78677  0.90424  1.0000
  O   O5        1.0  0.55864  0.02644  0.23111  1.0000
  O   O6        1.0  0.44136  0.97357  0.76890  1.0000
  O   O7        1.0  0.70445  0.84330  0.60721  1.0000
  O   O8        1.0  0.29554  0.15672  0.39280  1.0000
  O   O9        1.0  0.89557  0.99826  0.89543  1.0000
  O   O10       1.0  0.10448  0.00174  0.10458  1.0000
  O   O11       1.0  0.70942  0.75638  0.79789  1.0000
  O   O12       1.0  0.29059  0.24363  0.20213  1.0000
  O   O13       1.0  0.04996  0.66070  0.08678  1.0000
  O   O14       1.0  0.95011  0.33933  0.91324  1.0000
  O   O15       1.0  0.80223  0.70229  0.14521  1.0000
  O   O16       1.0  0.19779  0.29770  0.85478  1.0000
  O   O17       1.0  0.86809  0.56676  0.30899  1.0000
  O   O18       1.0  0.13189  0.43322  0.69100  1.0000
  O   O19       1.0  0.71691  0.50395  0.91324  1.0000
  O   O20       1.0  0.28309  0.49605  0.08676  1.0000
  O   O21       1.0  0.49077  0.68220  0.96742  1.0000
  O   O22       1.0  0.50923  0.31780  0.03257  1.0000
