data_image0
_chemical_formula_structural       Cd4H24C16O22
_chemical_formula_sum              "Cd4 H24 C16 O22"
_cell_length_a       7.47695
_cell_length_b       7.85978
_cell_length_c       11.962
_cell_angle_alpha    73.203
_cell_angle_beta     86.8074
_cell_angle_gamma    66.806

_space_group_name_H-M_alt    "P 1"
_space_group_IT_number       1

loop_
  _space_group_symop_operation_xyz
  'x, y, z'

loop_
  _atom_site_type_symbol
  _atom_site_label
  _atom_site_symmetry_multiplicity
  _atom_site_fract_x
  _atom_site_fract_y
  _atom_site_fract_z
  _atom_site_occupancy
  Cd  Cd1       1.0  0.11085  0.14291  0.75763  1.0000
  Cd  Cd2       1.0  0.88915  0.85709  0.24237  1.0000
  Cd  Cd3       1.0  0.51043  0.32836  0.76585  1.0000
  Cd  Cd4       1.0  0.48957  0.67164  0.23415  1.0000
  H   H1        1.0  0.06189  0.77282  0.99274  1.0000
  H   H2        1.0  0.93811  0.22718  0.00726  1.0000
  H   H3        1.0  0.06867  0.74035  0.85303  1.0000
  H   H4        1.0  0.93132  0.25966  0.14697  1.0000
  H   H5        1.0  0.84375  0.57331  0.90026  1.0000
  H   H6        1.0  0.15625  0.42669  0.09974  1.0000
  H   H7        1.0  0.57759  0.12668  0.40462  1.0000
  H   H8        1.0  0.42241  0.87332  0.59538  1.0000
  H   H9        1.0  0.25828  0.14285  0.34574  1.0000
  H   H10       1.0  0.74172  0.85715  0.65425  1.0000
  H   H11       1.0  0.15961  0.19579  0.47660  1.0000
  H   H12       1.0  0.84039  0.80421  0.52340  1.0000
  H   H13       1.0  0.13028  0.56293  0.63205  1.0000
  H   H14       1.0  0.86972  0.43707  0.36795  1.0000
  H   H15       1.0  0.27352  0.66053  0.56377  1.0000
  H   H16       1.0  0.72648  0.33947  0.43623  1.0000
  H   H17       1.0  0.08968  0.86541  0.63919  1.0000
  H   H18       1.0  0.91032  0.13459  0.36081  1.0000
  H   H19       1.0  0.89548  0.06687  0.60372  1.0000
  H   H20       1.0  0.10452  0.93312  0.39628  1.0000
  H   H21       1.0  0.48020  0.86526  0.86015  1.0000
  H   H22       1.0  0.51980  0.13474  0.13985  1.0000
  H   H23       1.0  0.37024  0.72088  0.88692  1.0000
  H   H24       1.0  0.62976  0.27911  0.11308  1.0000
  C   C1        1.0  0.80931  0.95828  0.87884  1.0000
  C   C2        1.0  0.19069  0.04172  0.12116  1.0000
  C   C3        1.0  0.97399  0.76389  0.92565  1.0000
  C   C4        1.0  0.02601  0.23611  0.07435  1.0000
  C   C5        1.0  0.91078  0.59518  0.97168  1.0000
  C   C6        1.0  0.08922  0.40482  0.02832  1.0000
  C   C7        1.0  0.76104  0.62963  0.06309  1.0000
  C   C8        1.0  0.23896  0.37036  0.93691  1.0000
  C   C9        1.0  0.49704  0.19442  0.56584  1.0000
  C   C10       1.0  0.50296  0.80558  0.43416  1.0000
  C   C11       1.0  0.47400  0.10932  0.47107  1.0000
  C   C12       1.0  0.52600  0.89068  0.52893  1.0000
  C   C13       1.0  0.26698  0.21128  0.41262  1.0000
  C   C14       1.0  0.73302  0.78873  0.58738  1.0000
  C   C15       1.0  0.21666  0.42261  0.34656  1.0000
  C   C16       1.0  0.78334  0.57739  0.65344  1.0000
  O   O1        1.0  0.84571  0.11191  0.85500  1.0000
  O   O2        1.0  0.15429  0.88809  0.14500  1.0000
  O   O3        1.0  0.63877  0.97211  0.86023  1.0000
  O   O4        1.0  0.36123  0.02789  0.13977  1.0000
  O   O5        1.0  0.21860  0.62680  0.64104  1.0000
  O   O6        1.0  0.78141  0.37320  0.35897  1.0000
  O   O7        1.0  0.37352  0.21260  0.64379  1.0000
  O   O8        1.0  0.62648  0.78740  0.35621  1.0000
  O   O9        1.0  0.03486  0.00753  0.63042  1.0000
  O   O10       1.0  0.96515  0.99246  0.36958  1.0000
  O   O11       1.0  0.64182  0.24179  0.56833  1.0000
  O   O12       1.0  0.35818  0.75821  0.43167  1.0000
  O   O13       1.0  0.35999  0.85068  0.84233  1.0000
  O   O14       1.0  0.64001  0.14932  0.15767  1.0000
  O   O15       1.0  0.77295  0.72144  0.13266  1.0000
  O   O16       1.0  0.22706  0.27856  0.86734  1.0000
  O   O17       1.0  0.63041  0.56143  0.07143  1.0000
  O   O18       1.0  0.36959  0.43857  0.92858  1.0000
  O   O19       1.0  0.34936  0.46134  0.28961  1.0000
  O   O20       1.0  0.65064  0.53866  0.71038  1.0000
  O   O21       1.0  0.04190  0.54229  0.35090  1.0000
  O   O22       1.0  0.95810  0.45771  0.64910  1.0000
