data_image0
_chemical_formula_structural       Zn2H32C16N4O12
_chemical_formula_sum              "Zn2 H32 C16 N4 O12"
_cell_length_a       6.32244
_cell_length_b       7.18919
_cell_length_c       12.046
_cell_angle_alpha    90
_cell_angle_beta     101.472
_cell_angle_gamma    90.0001

_space_group_name_H-M_alt    "P 1"
_space_group_IT_number       1

loop_
  _space_group_symop_operation_xyz
  'x, y, z'

loop_
  _atom_site_type_symbol
  _atom_site_label
  _atom_site_symmetry_multiplicity
  _atom_site_fract_x
  _atom_site_fract_y
  _atom_site_fract_z
  _atom_site_occupancy
  Zn  Zn1       1.0  0.50000  1.00000  0.50000  1.0000
  Zn  Zn2       1.0  0.50000  0.50000  0.00000  1.0000
  H   H1        1.0  0.26479  0.40787  0.53730  1.0000
  H   H2        1.0  0.73520  0.90787  0.96270  1.0000
  H   H3        1.0  0.73521  0.59213  0.46270  1.0000
  H   H4        1.0  0.26480  0.09213  0.03730  1.0000
  H   H5        1.0  0.06485  0.40364  0.41052  1.0000
  H   H6        1.0  0.93515  0.90365  0.08947  1.0000
  H   H7        1.0  0.93515  0.59635  0.58948  1.0000
  H   H8        1.0  0.06485  0.09636  0.91052  1.0000
  H   H9        1.0  0.91797  0.22903  0.56936  1.0000
  H   H10       1.0  0.08204  0.72903  0.93064  1.0000
  H   H11       1.0  0.08204  0.77097  0.43064  1.0000
  H   H12       1.0  0.91797  0.27097  0.06936  1.0000
  H   H13       1.0  0.17742  0.19125  0.65672  1.0000
  H   H14       1.0  0.82258  0.69125  0.84328  1.0000
  H   H15       1.0  0.82258  0.80875  0.34328  1.0000
  H   H16       1.0  0.17742  0.30875  0.15672  1.0000
  H   H17       1.0  0.08267  0.04856  0.31363  1.0000
  H   H18       1.0  0.91733  0.54857  0.18637  1.0000
  H   H19       1.0  0.91733  0.95143  0.68637  1.0000
  H   H20       1.0  0.08267  0.45144  0.81363  1.0000
  H   H21       1.0  0.86258  0.14758  0.36666  1.0000
  H   H22       1.0  0.13742  0.64758  0.13334  1.0000
  H   H23       1.0  0.13742  0.85242  0.63334  1.0000
  H   H24       1.0  0.86258  0.35242  0.86666  1.0000
  H   H25       1.0  0.53349  0.08841  0.72466  1.0000
  H   H26       1.0  0.46651  0.58841  0.77534  1.0000
  H   H27       1.0  0.46651  0.91159  0.27534  1.0000
  H   H28       1.0  0.53349  0.41159  0.22466  1.0000
  H   H29       1.0  0.61188  0.27332  0.66909  1.0000
  H   H30       1.0  0.38812  0.77333  0.83091  1.0000
  H   H31       1.0  0.38812  0.72667  0.33091  1.0000
  H   H32       1.0  0.61188  0.22668  0.16909  1.0000
  C   C1        1.0  0.39207  0.35066  0.39166  1.0000
  C   C2        1.0  0.60793  0.85067  0.10834  1.0000
  C   C3        1.0  0.60793  0.64933  0.60835  1.0000
  C   C4        1.0  0.39207  0.14934  0.89166  1.0000
  C   C5        1.0  0.20986  0.33230  0.45716  1.0000
  C   C6        1.0  0.79014  0.83231  0.04284  1.0000
  C   C7        1.0  0.79014  0.66769  0.54284  1.0000
  C   C8        1.0  0.20986  0.16770  0.95716  1.0000
  C   C9        1.0  0.06050  0.13692  0.58445  1.0000
  C   C10       1.0  0.93949  0.63692  0.91555  1.0000
  C   C11       1.0  0.93950  0.86308  0.41555  1.0000
  C   C12       1.0  0.06050  0.36308  0.08445  1.0000
  C   C13       1.0  0.00585  0.05740  0.38738  1.0000
  C   C14       1.0  0.99416  0.55740  0.11262  1.0000
  C   C15       1.0  0.99416  0.94260  0.61262  1.0000
  C   C16       1.0  0.00584  0.44260  0.88738  1.0000
  N   N1        1.0  0.16233  0.13864  0.48361  1.0000
  N   N2        1.0  0.83767  0.63864  0.01639  1.0000
  N   N3        1.0  0.83767  0.86136  0.51638  1.0000
  N   N4        1.0  0.16233  0.36136  0.98362  1.0000
  O   O1        1.0  0.39129  0.48816  0.32570  1.0000
  O   O2        1.0  0.60871  0.98816  0.17430  1.0000
  O   O3        1.0  0.60872  0.51184  0.67430  1.0000
  O   O4        1.0  0.39128  0.01184  0.82570  1.0000
  O   O5        1.0  0.54235  0.22979  0.40796  1.0000
  O   O6        1.0  0.45765  0.72979  0.09204  1.0000
  O   O7        1.0  0.45765  0.77021  0.59204  1.0000
  O   O8        1.0  0.54234  0.27021  0.90796  1.0000
  O   O9        1.0  0.60003  0.13614  0.66182  1.0000
  O   O10       1.0  0.39997  0.63614  0.83818  1.0000
  O   O11       1.0  0.39997  0.86386  0.33818  1.0000
  O   O12       1.0  0.60003  0.36386  0.16182  1.0000
