data_image0
_chemical_formula_structural       Sr2H16C18N4O12
_chemical_formula_sum              "Sr2 H16 C18 N4 O12"
_cell_length_a       6.96515
_cell_length_b       6.80633
_cell_length_c       12.165
_cell_angle_alpha    78.1695
_cell_angle_beta     75.6533
_cell_angle_gamma    74.6448

_space_group_name_H-M_alt    "P 1"
_space_group_IT_number       1

loop_
  _space_group_symop_operation_xyz
  'x, y, z'

loop_
  _atom_site_type_symbol
  _atom_site_label
  _atom_site_symmetry_multiplicity
  _atom_site_fract_x
  _atom_site_fract_y
  _atom_site_fract_z
  _atom_site_occupancy
  Sr  Sr1       1.0  0.26878  0.24830  0.44751  1.0000
  Sr  Sr2       1.0  0.73122  0.75170  0.55249  1.0000
  H   H1        1.0  0.44473  0.66302  0.35856  1.0000
  H   H2        1.0  0.55526  0.33698  0.64143  1.0000
  H   H3        1.0  0.20277  0.71965  0.37779  1.0000
  H   H4        1.0  0.79722  0.28035  0.62220  1.0000
  H   H5        1.0  0.30591  0.20005  0.18096  1.0000
  H   H6        1.0  0.69408  0.79995  0.81904  1.0000
  H   H7        1.0  0.19896  0.04538  0.27876  1.0000
  H   H8        1.0  0.80104  0.95462  0.72124  1.0000
  H   H9        1.0  0.21280  0.89942  0.08011  1.0000
  H   H10       1.0  0.78722  0.10057  0.91989  1.0000
  H   H11       1.0  0.28105  0.25581  0.86817  1.0000
  H   H12       1.0  0.71894  0.74419  0.13183  1.0000
  H   H13       1.0  0.15998  0.02537  0.84002  1.0000
  H   H14       1.0  0.84005  0.97463  0.15998  1.0000
  H   H15       1.0  0.29050  0.56315  0.20900  1.0000
  H   H16       1.0  0.70950  0.43685  0.79100  1.0000
  C   C1        1.0  0.19853  0.46247  0.66401  1.0000
  C   C2        1.0  0.80146  0.53754  0.33600  1.0000
  C   C3        1.0  0.20920  0.55294  0.76436  1.0000
  C   C4        1.0  0.79081  0.44706  0.23564  1.0000
  C   C5        1.0  0.24661  0.42241  0.86520  1.0000
  C   C6        1.0  0.75338  0.57759  0.13480  1.0000
  C   C7        1.0  0.24387  0.51026  0.95993  1.0000
  C   C8        1.0  0.75614  0.48974  0.04007  1.0000
  C   C9        1.0  0.20798  0.72807  0.95069  1.0000
  C   C10       1.0  0.79202  0.27193  0.04931  1.0000
  C   C11       1.0  0.17501  0.85975  0.84983  1.0000
  C   C12       1.0  0.82502  0.14025  0.15016  1.0000
  C   C13       1.0  0.17720  0.76936  0.75636  1.0000
  C   C14       1.0  0.82281  0.23064  0.24364  1.0000
  C   C15       1.0  0.17553  0.90514  0.64218  1.0000
  C   C16       1.0  0.82447  0.09487  0.35781  1.0000
  C   C17       1.0  0.26796  0.57451  0.12214  1.0000
  C   C18       1.0  0.73203  0.42549  0.87787  1.0000
  N   N1        1.0  0.28027  0.41951  0.06852  1.0000
  N   N2        1.0  0.71972  0.58049  0.93147  1.0000
  N   N3        1.0  0.22466  0.76208  0.05568  1.0000
  N   N4        1.0  0.77536  0.23791  0.94432  1.0000
  O   O1        1.0  0.33291  0.30126  0.63796  1.0000
  O   O2        1.0  0.66708  0.69874  0.36205  1.0000
  O   O3        1.0  0.05666  0.54730  0.60964  1.0000
  O   O4        1.0  0.94333  0.45270  0.39036  1.0000
  O   O5        1.0  0.33898  0.87818  0.56618  1.0000
  O   O6        1.0  0.66103  0.12182  0.43382  1.0000
  O   O7        1.0  0.01823  0.04669  0.62732  1.0000
  O   O8        1.0  0.98177  0.95331  0.37268  1.0000
  O   O9        1.0  0.32276  0.60772  0.36223  1.0000
  O   O10       1.0  0.67722  0.39229  0.63776  1.0000
  O   O11       1.0  0.32113  0.10430  0.25402  1.0000
  O   O12       1.0  0.67887  0.89570  0.74598  1.0000
