data_image0
_chemical_formula_structural       Cd4H28C32N4O20
_chemical_formula_sum              "Cd4 H28 C32 N4 O20"
_cell_length_a       6.97558
_cell_length_b       10.5578
_cell_length_c       12.4659
_cell_angle_alpha    84.5472
_cell_angle_beta     89.9999
_cell_angle_gamma    89.9988

_space_group_name_H-M_alt    "P 1"
_space_group_IT_number       1

loop_
  _space_group_symop_operation_xyz
  'x, y, z'

loop_
  _atom_site_type_symbol
  _atom_site_label
  _atom_site_symmetry_multiplicity
  _atom_site_fract_x
  _atom_site_fract_y
  _atom_site_fract_z
  _atom_site_occupancy
  Cd  Cd1       1.0  0.85570  0.59222  0.39840  1.0000
  Cd  Cd2       1.0  0.35571  0.90778  0.10160  1.0000
  Cd  Cd3       1.0  0.14429  0.40780  0.60158  1.0000
  Cd  Cd4       1.0  0.64429  0.09221  0.89842  1.0000
  H   H1        1.0  0.44600  0.94809  0.76732  1.0000
  H   H2        1.0  0.94600  0.55191  0.73270  1.0000
  H   H3        1.0  0.55401  0.05192  0.23269  1.0000
  H   H4        1.0  0.05401  0.44809  0.26730  1.0000
  H   H5        1.0  0.35900  0.09318  0.73522  1.0000
  H   H6        1.0  0.85902  0.40682  0.76478  1.0000
  H   H7        1.0  0.64100  0.90683  0.26478  1.0000
  H   H8        1.0  0.14099  0.59318  0.23521  1.0000
  H   H9        1.0  0.85820  0.08391  0.37528  1.0000
  H   H10       1.0  0.35820  0.41610  0.12473  1.0000
  H   H11       1.0  0.14181  0.91608  0.62473  1.0000
  H   H12       1.0  0.64181  0.58391  0.87527  1.0000
  H   H13       1.0  0.60414  0.25915  0.63845  1.0000
  H   H14       1.0  0.10417  0.24085  0.86157  1.0000
  H   H15       1.0  0.39585  0.74086  0.36155  1.0000
  H   H16       1.0  0.89582  0.75914  0.13844  1.0000
  H   H17       1.0  0.62387  0.84927  0.64514  1.0000
  H   H18       1.0  0.12387  0.65072  0.85486  1.0000
  H   H19       1.0  0.37615  0.15073  0.35487  1.0000
  H   H20       1.0  0.87616  0.34927  0.14513  1.0000
  H   H21       1.0  0.59421  0.46100  0.30989  1.0000
  H   H22       1.0  0.09421  0.03901  0.19011  1.0000
  H   H23       1.0  0.40579  0.53900  0.69011  1.0000
  H   H24       1.0  0.90581  0.96099  0.80989  1.0000
  H   H25       1.0  0.50650  0.58471  0.24339  1.0000
  H   H26       1.0  0.00651  0.91530  0.25660  1.0000
  H   H27       1.0  0.49350  0.41529  0.75660  1.0000
  H   H28       1.0  0.99351  0.08470  0.74340  1.0000
  C   C1        1.0  0.79787  0.83478  0.45764  1.0000
  C   C2        1.0  0.29787  0.66523  0.04236  1.0000
  C   C3        1.0  0.20213  0.16522  0.54237  1.0000
  C   C4        1.0  0.70214  0.33477  0.95763  1.0000
  C   C5        1.0  0.75239  0.95434  0.50723  1.0000
  C   C6        1.0  0.25240  0.54567  0.99276  1.0000
  C   C7        1.0  0.24761  0.04567  0.49277  1.0000
  C   C8        1.0  0.74761  0.45432  0.00723  1.0000
  C   C9        1.0  0.78997  0.07450  0.45418  1.0000
  C   C10       1.0  0.28998  0.42550  0.04583  1.0000
  C   C11       1.0  0.21004  0.92549  0.54583  1.0000
  C   C12       1.0  0.71003  0.57450  0.95417  1.0000
  C   C13       1.0  0.74058  0.18344  0.50338  1.0000
  C   C14       1.0  0.24060  0.31657  0.99664  1.0000
  C   C15       1.0  0.25943  0.81656  0.49663  1.0000
  C   C16       1.0  0.75939  0.68343  0.00336  1.0000
  C   C17       1.0  0.77503  0.31218  0.44525  1.0000
  C   C18       1.0  0.27504  0.18783  0.05477  1.0000
  C   C19       1.0  0.22497  0.68782  0.55474  1.0000
  C   C20       1.0  0.72493  0.81216  0.94525  1.0000
  C   C21       1.0  0.64622  0.17285  0.60293  1.0000
  C   C22       1.0  0.14624  0.32715  0.89708  1.0000
  C   C23       1.0  0.35378  0.82715  0.39707  1.0000
  C   C24       1.0  0.85376  0.67285  0.10292  1.0000
  C   C25       1.0  0.59772  0.05256  0.65190  1.0000
  C   C26       1.0  0.09774  0.44744  0.84811  1.0000
  C   C27       1.0  0.40228  0.94744  0.34811  1.0000
  C   C28       1.0  0.90225  0.55256  0.15189  1.0000
  C   C29       1.0  0.65712  0.94350  0.60638  1.0000
  C   C30       1.0  0.15714  0.55650  0.89362  1.0000
  C   C31       1.0  0.34288  0.05650  0.39363  1.0000
  C   C32       1.0  0.84287  0.44350  0.10637  1.0000
  N   N1        1.0  0.48368  0.04116  0.74806  1.0000
  N   N2        1.0  0.98370  0.45883  0.75195  1.0000
  N   N3        1.0  0.51632  0.95884  0.25195  1.0000
  N   N4        1.0  0.01631  0.54117  0.24805  1.0000
  O   O1        1.0  0.77789  0.72997  0.51679  1.0000
  O   O2        1.0  0.27787  0.77004  0.98321  1.0000
  O   O3        1.0  0.22211  0.27004  0.48321  1.0000
  O   O4        1.0  0.72214  0.22996  0.01678  1.0000
  O   O5        1.0  0.84917  0.83762  0.35851  1.0000
  O   O6        1.0  0.34918  0.66239  0.14149  1.0000
  O   O7        1.0  0.15082  0.16239  0.64149  1.0000
  O   O8        1.0  0.65083  0.33761  0.85851  1.0000
  O   O9        1.0  0.74456  0.32675  0.34538  1.0000
  O   O10       1.0  0.24451  0.17326  0.15464  1.0000
  O   O11       1.0  0.25539  0.67324  0.65462  1.0000
  O   O12       1.0  0.75540  0.82674  0.84537  1.0000
  O   O13       1.0  0.82972  0.40246  0.50234  1.0000
  O   O14       1.0  0.32974  0.09755  0.99768  1.0000
  O   O15       1.0  0.17029  0.59755  0.49764  1.0000
  O   O16       1.0  0.67026  0.90245  0.00234  1.0000
  O   O17       1.0  0.55428  0.55043  0.31501  1.0000
  O   O18       1.0  0.05427  0.94959  0.18498  1.0000
  O   O19       1.0  0.44573  0.44957  0.68498  1.0000
  O   O20       1.0  0.94573  0.05041  0.81502  1.0000
