data_image0
_chemical_formula_structural       Cd4H28C32N4O20
_chemical_formula_sum              "Cd4 H28 C32 N4 O20"
_cell_length_a       6.91697
_cell_length_b       10.4163
_cell_length_c       12.8328
_cell_angle_alpha    89.6669
_cell_angle_beta     90.0008
_cell_angle_gamma    90.0035

_space_group_name_H-M_alt    "P 1"
_space_group_IT_number       1

loop_
  _space_group_symop_operation_xyz
  'x, y, z'

loop_
  _atom_site_type_symbol
  _atom_site_label
  _atom_site_symmetry_multiplicity
  _atom_site_fract_x
  _atom_site_fract_y
  _atom_site_fract_z
  _atom_site_occupancy
  Cd  Cd1       1.0  0.80467  0.54449  0.38543  1.0000
  Cd  Cd2       1.0  0.30467  0.95551  0.11457  1.0000
  Cd  Cd3       1.0  0.19532  0.45551  0.61456  1.0000
  Cd  Cd4       1.0  0.69532  0.04449  0.88543  1.0000
  H   H1        1.0  0.63729  0.82820  0.62090  1.0000
  H   H2        1.0  0.13729  0.67178  0.87912  1.0000
  H   H3        1.0  0.36273  0.17180  0.37912  1.0000
  H   H4        1.0  0.86269  0.32821  0.12089  1.0000
  H   H5        1.0  0.61920  0.23828  0.65649  1.0000
  H   H6        1.0  0.11920  0.26171  0.84351  1.0000
  H   H7        1.0  0.38080  0.76173  0.34351  1.0000
  H   H8        1.0  0.88081  0.73828  0.15648  1.0000
  H   H9        1.0  0.86101  0.07454  0.37821  1.0000
  H   H10       1.0  0.36100  0.42546  0.12181  1.0000
  H   H11       1.0  0.13900  0.92546  0.62179  1.0000
  H   H12       1.0  0.63900  0.57453  0.87819  1.0000
  H   H13       1.0  0.45266  0.92864  0.75110  1.0000
  H   H14       1.0  0.95270  0.57135  0.74890  1.0000
  H   H15       1.0  0.54734  0.07138  0.24890  1.0000
  H   H16       1.0  0.04730  0.42865  0.25110  1.0000
  H   H17       1.0  0.38855  0.08241  0.74002  1.0000
  H   H18       1.0  0.88855  0.41758  0.75997  1.0000
  H   H19       1.0  0.61146  0.91760  0.25998  1.0000
  H   H20       1.0  0.11146  0.58241  0.24002  1.0000
  H   H21       1.0  0.45330  0.58045  0.25725  1.0000
  H   H22       1.0  0.95330  0.91956  0.24276  1.0000
  H   H23       1.0  0.54670  0.41956  0.74275  1.0000
  H   H24       1.0  0.04670  0.08044  0.75724  1.0000
  H   H25       1.0  0.39520  0.56058  0.37622  1.0000
  H   H26       1.0  0.89521  0.93943  0.12378  1.0000
  H   H27       1.0  0.60480  0.43943  0.62378  1.0000
  H   H28       1.0  0.10479  0.06056  0.87621  1.0000
  C   C1        1.0  0.79575  0.82003  0.43253  1.0000
  C   C2        1.0  0.29575  0.67997  0.06749  1.0000
  C   C3        1.0  0.20426  0.17997  0.56748  1.0000
  C   C4        1.0  0.70424  0.32003  0.93251  1.0000
  C   C5        1.0  0.75790  0.93893  0.49459  1.0000
  C   C6        1.0  0.25789  0.56105  0.00542  1.0000
  C   C7        1.0  0.24211  0.06106  0.50542  1.0000
  C   C8        1.0  0.74210  0.43894  0.99457  1.0000
  C   C9        1.0  0.66916  0.92443  0.59194  1.0000
  C   C10       1.0  0.16915  0.57556  0.90807  1.0000
  C   C11       1.0  0.33086  0.07558  0.40807  1.0000
  C   C12       1.0  0.83084  0.42444  0.09193  1.0000
  C   C13       1.0  0.61334  0.03256  0.64777  1.0000
  C   C14       1.0  0.11334  0.46742  0.85224  1.0000
  C   C15       1.0  0.38667  0.96745  0.35224  1.0000
  C   C16       1.0  0.88665  0.53257  0.14776  1.0000
  C   C17       1.0  0.65945  0.15494  0.61089  1.0000
  C   C18       1.0  0.15944  0.34505  0.88912  1.0000
  C   C19       1.0  0.34056  0.84507  0.38911  1.0000
  C   C20       1.0  0.84056  0.65494  0.11088  1.0000
  C   C21       1.0  0.74851  0.16989  0.51382  1.0000
  C   C22       1.0  0.24850  0.33010  0.98619  1.0000
  C   C23       1.0  0.25150  0.83011  0.48619  1.0000
  C   C24       1.0  0.75150  0.66989  0.01381  1.0000
  C   C25       1.0  0.78189  0.30097  0.46991  1.0000
  C   C26       1.0  0.28189  0.19903  0.03009  1.0000
  C   C27       1.0  0.21811  0.69903  0.53009  1.0000
  C   C28       1.0  0.71811  0.80097  0.96990  1.0000
  C   C29       1.0  0.79510  0.06170  0.45463  1.0000
  C   C30       1.0  0.29508  0.43830  0.04539  1.0000
  C   C31       1.0  0.20492  0.93830  0.54538  1.0000
  C   C32       1.0  0.70491  0.56170  0.95461  1.0000
  N   N1        1.0  0.50414  0.02007  0.74187  1.0000
  N   N2        1.0  0.00415  0.47992  0.75814  1.0000
  N   N3        1.0  0.49586  0.97994  0.25814  1.0000
  N   N4        1.0  0.99584  0.52008  0.24186  1.0000
  O   O1        1.0  0.83075  0.82598  0.33540  1.0000
  O   O2        1.0  0.33076  0.67402  0.16461  1.0000
  O   O3        1.0  0.16927  0.17402  0.66461  1.0000
  O   O4        1.0  0.66923  0.32598  0.83539  1.0000
  O   O5        1.0  0.78214  0.71412  0.48359  1.0000
  O   O6        1.0  0.28214  0.78588  0.01641  1.0000
  O   O7        1.0  0.21784  0.28588  0.51641  1.0000
  O   O8        1.0  0.71786  0.21412  0.98358  1.0000
  O   O9        1.0  0.77125  0.40011  0.53077  1.0000
  O   O10       1.0  0.27123  0.09989  0.96923  1.0000
  O   O11       1.0  0.22875  0.59989  0.46922  1.0000
  O   O12       1.0  0.72877  0.90011  0.03076  1.0000
  O   O13       1.0  0.81609  0.31335  0.37372  1.0000
  O   O14       1.0  0.31611  0.18664  0.12628  1.0000
  O   O15       1.0  0.18391  0.68665  0.62627  1.0000
  O   O16       1.0  0.68388  0.81335  0.87372  1.0000
  O   O17       1.0  0.49210  0.53516  0.32233  1.0000
  O   O18       1.0  0.99211  0.96484  0.17767  1.0000
  O   O19       1.0  0.50789  0.46484  0.67766  1.0000
  O   O20       1.0  0.00788  0.03516  0.82232  1.0000
