data_image0
_chemical_formula_structural       Ni2H28C28N16O8
_chemical_formula_sum              "Ni2 H28 C28 N16 O8"
_cell_length_a       7.67979
_cell_length_b       8.86429
_cell_length_c       12.9
_cell_angle_alpha    89.9989
_cell_angle_beta     90
_cell_angle_gamma    99.1509

_space_group_name_H-M_alt    "P 1"
_space_group_IT_number       1

loop_
  _space_group_symop_operation_xyz
  'x, y, z'

loop_
  _atom_site_type_symbol
  _atom_site_label
  _atom_site_symmetry_multiplicity
  _atom_site_fract_x
  _atom_site_fract_y
  _atom_site_fract_z
  _atom_site_occupancy
  Ni  Ni1       1.0  1.00000  1.00000  1.00000  1.0000
  Ni  Ni2       1.0  1.00000  0.50001  0.50000  1.0000
  H   H1        1.0  0.65220  0.93051  0.96389  1.0000
  H   H2        1.0  0.34781  0.56948  0.46389  1.0000
  H   H3        1.0  0.34779  0.06948  0.03611  1.0000
  H   H4        1.0  0.65220  0.43052  0.53611  1.0000
  H   H5        1.0  0.67053  0.05083  0.05732  1.0000
  H   H6        1.0  0.32947  0.44917  0.55732  1.0000
  H   H7        1.0  0.32947  0.94917  0.94268  1.0000
  H   H8        1.0  0.67053  0.55083  0.44268  1.0000
  H   H9        1.0  0.27199  0.86541  0.56353  1.0000
  H   H10       1.0  0.72802  0.63458  0.06353  1.0000
  H   H11       1.0  0.72801  0.13459  0.43647  1.0000
  H   H12       1.0  0.27197  0.36540  0.93647  1.0000
  H   H13       1.0  0.23635  0.89865  0.75464  1.0000
  H   H14       1.0  0.76366  0.60135  0.25465  1.0000
  H   H15       1.0  0.76365  0.10134  0.24536  1.0000
  H   H16       1.0  0.23634  0.39865  0.74535  1.0000
  H   H17       1.0  0.74913  0.76339  0.79605  1.0000
  H   H18       1.0  0.25087  0.73662  0.29605  1.0000
  H   H19       1.0  0.25088  0.23661  0.20396  1.0000
  H   H20       1.0  0.74913  0.26337  0.70396  1.0000
  H   H21       1.0  0.76895  0.74179  0.60212  1.0000
  H   H22       1.0  0.23106  0.75820  0.10212  1.0000
  H   H23       1.0  0.23106  0.25821  0.39788  1.0000
  H   H24       1.0  0.76894  0.24178  0.89789  1.0000
  H   H25       1.0  0.52812  0.78196  0.50054  1.0000
  H   H26       1.0  0.47189  0.71803  0.00054  1.0000
  H   H27       1.0  0.47189  0.21805  0.49946  1.0000
  H   H28       1.0  0.52811  0.28196  0.99947  1.0000
  C   C1        1.0  0.99887  0.82251  0.40236  1.0000
  C   C2        1.0  0.00114  0.67750  0.90236  1.0000
  C   C3        1.0  0.00113  0.17750  0.59764  1.0000
  C   C4        1.0  0.99885  0.32250  0.09764  1.0000
  C   C5        1.0  0.00478  0.93988  0.24369  1.0000
  C   C6        1.0  0.99522  0.56015  0.74369  1.0000
  C   C7        1.0  0.99521  0.06013  0.75631  1.0000
  C   C8        1.0  0.00478  0.43987  0.25631  1.0000
  C   C9        1.0  0.37521  0.85025  0.61856  1.0000
  C   C10       1.0  0.62479  0.64976  0.11856  1.0000
  C   C11       1.0  0.62479  0.14976  0.38145  1.0000
  C   C12       1.0  0.37520  0.35025  0.88144  1.0000
  C   C13       1.0  0.35577  0.86474  0.72355  1.0000
  C   C14       1.0  0.64423  0.63526  0.22355  1.0000
  C   C15       1.0  0.64422  0.13524  0.27646  1.0000
  C   C16       1.0  0.35577  0.36474  0.77645  1.0000
  C   C17       1.0  0.48960  0.83194  0.79276  1.0000
  C   C18       1.0  0.51041  0.66806  0.29275  1.0000
  C   C19       1.0  0.51042  0.16806  0.20725  1.0000
  C   C20       1.0  0.48961  0.33193  0.70725  1.0000
  C   C21       1.0  0.64250  0.78759  0.74652  1.0000
  C   C22       1.0  0.35750  0.71240  0.24652  1.0000
  C   C23       1.0  0.35750  0.21239  0.25348  1.0000
  C   C24       1.0  0.64250  0.28758  0.75349  1.0000
  C   C25       1.0  0.65607  0.77728  0.64079  1.0000
  C   C26       1.0  0.34393  0.72271  0.14079  1.0000
  C   C27       1.0  0.34392  0.22272  0.35920  1.0000
  C   C28       1.0  0.65607  0.27728  0.85922  1.0000
  N   N1        1.0  0.02529  0.95810  0.15387  1.0000
  N   N2        1.0  0.97471  0.54189  0.65387  1.0000
  N   N3        1.0  0.97470  0.04189  0.84612  1.0000
  N   N4        1.0  0.02528  0.45812  0.34611  1.0000
  N   N5        1.0  0.97820  0.93561  0.34300  1.0000
  N   N6        1.0  0.02180  0.56441  0.84300  1.0000
  N   N7        1.0  0.02180  0.06440  0.65699  1.0000
  N   N8        1.0  0.97818  0.43560  0.15699  1.0000
  N   N9        1.0  0.01737  0.72692  0.46328  1.0000
  N   N10       1.0  0.98265  0.77309  0.96328  1.0000
  N   N11       1.0  0.98264  0.27310  0.53671  1.0000
  N   N12       1.0  0.01736  0.22691  0.03671  1.0000
  N   N13       1.0  0.52424  0.80927  0.57862  1.0000
  N   N14       1.0  0.47577  0.69073  0.07862  1.0000
  N   N15       1.0  0.47576  0.19072  0.42139  1.0000
  N   N16       1.0  0.52422  0.30926  0.92138  1.0000
  O   O1        1.0  0.72993  0.97222  0.02210  1.0000
  O   O2        1.0  0.27007  0.52778  0.52210  1.0000
  O   O3        1.0  0.27007  0.02778  0.97790  1.0000
  O   O4        1.0  0.72994  0.47222  0.47790  1.0000
  O   O5        1.0  0.47248  0.84153  0.89260  1.0000
  O   O6        1.0  0.52752  0.65847  0.39260  1.0000
  O   O7        1.0  0.52752  0.15845  0.10740  1.0000
  O   O8        1.0  0.47247  0.34153  0.60740  1.0000
