data_image0
_chemical_formula_structural       Ni4H44C20S4N4O28
_chemical_formula_sum              "Ni4 H44 C20 S4 N4 O28"
_cell_length_a       7.55214
_cell_length_b       11.3672
_cell_length_c       11.868
_cell_angle_alpha    110.825
_cell_angle_beta     90
_cell_angle_gamma    90

_space_group_name_H-M_alt    "P 1"
_space_group_IT_number       1

loop_
  _space_group_symop_operation_xyz
  'x, y, z'

loop_
  _atom_site_type_symbol
  _atom_site_label
  _atom_site_symmetry_multiplicity
  _atom_site_fract_x
  _atom_site_fract_y
  _atom_site_fract_z
  _atom_site_occupancy
  Ni  Ni1       1.0  0.58975  0.21026  0.65707  1.0000
  Ni  Ni2       1.0  0.08975  0.28974  0.34293  1.0000
  Ni  Ni3       1.0  0.41025  0.78974  0.34293  1.0000
  Ni  Ni4       1.0  0.91025  0.71026  0.65707  1.0000
  H   H1        1.0  0.25670  0.12653  0.61478  1.0000
  H   H2        1.0  0.75670  0.37348  0.38522  1.0000
  H   H3        1.0  0.74331  0.87347  0.38522  1.0000
  H   H4        1.0  0.24330  0.62653  0.61478  1.0000
  H   H5        1.0  0.38533  0.01292  0.60321  1.0000
  H   H6        1.0  0.88533  0.48707  0.39679  1.0000
  H   H7        1.0  0.61467  0.98708  0.39679  1.0000
  H   H8        1.0  0.11468  0.51292  0.60321  1.0000
  H   H9        1.0  0.32384  0.36712  0.69521  1.0000
  H   H10       1.0  0.82384  0.13288  0.30479  1.0000
  H   H11       1.0  0.67617  0.63288  0.30479  1.0000
  H   H12       1.0  0.17616  0.86712  0.69521  1.0000
  H   H13       1.0  0.45024  0.37711  0.59014  1.0000
  H   H14       1.0  0.95024  0.12289  0.40986  1.0000
  H   H15       1.0  0.54976  0.62289  0.40986  1.0000
  H   H16       1.0  0.04976  0.87711  0.59014  1.0000
  H   H17       1.0  0.73340  0.97112  0.63276  1.0000
  H   H18       1.0  0.23340  0.52888  0.36724  1.0000
  H   H19       1.0  0.26660  0.02888  0.36724  1.0000
  H   H20       1.0  0.76660  0.47112  0.63276  1.0000
  H   H21       1.0  0.87062  0.07039  0.60774  1.0000
  H   H22       1.0  0.37061  0.42961  0.39227  1.0000
  H   H23       1.0  0.12938  0.92962  0.39227  1.0000
  H   H24       1.0  0.62938  0.57039  0.60773  1.0000
  H   H25       1.0  0.69209  0.44621  0.85341  1.0000
  H   H26       1.0  0.19210  0.05379  0.14660  1.0000
  H   H27       1.0  0.30790  0.55379  0.14660  1.0000
  H   H28       1.0  0.80791  0.94621  0.85340  1.0000
  H   H29       1.0  0.72046  0.52143  0.07875  1.0000
  H   H30       1.0  0.22046  0.97857  0.92125  1.0000
  H   H31       1.0  0.27954  0.47857  0.92125  1.0000
  H   H32       1.0  0.77954  0.02142  0.07875  1.0000
  H   H33       1.0  0.64970  0.37120  0.18465  1.0000
  H   H34       1.0  0.14970  0.12880  0.81535  1.0000
  H   H35       1.0  0.35030  0.62880  0.81535  1.0000
  H   H36       1.0  0.85030  0.87120  0.18465  1.0000
  H   H37       1.0  0.55366  0.15292  0.06138  1.0000
  H   H38       1.0  0.05366  0.34708  0.93862  1.0000
  H   H39       1.0  0.44633  0.84708  0.93862  1.0000
  H   H40       1.0  0.94633  0.65292  0.06138  1.0000
  H   H41       1.0  0.53470  0.09144  0.83623  1.0000
  H   H42       1.0  0.03470  0.40856  0.16377  1.0000
  H   H43       1.0  0.46530  0.90856  0.16377  1.0000
  H   H44       1.0  0.96530  0.59143  0.83623  1.0000
  C   C1        1.0  0.66431  0.38464  0.90360  1.0000
  C   C2        1.0  0.16432  0.11537  0.09640  1.0000
  C   C3        1.0  0.33568  0.61536  0.09640  1.0000
  C   C4        1.0  0.83569  0.88463  0.90360  1.0000
  C   C5        1.0  0.67876  0.42546  0.02843  1.0000
  C   C6        1.0  0.17876  0.07454  0.97158  1.0000
  C   C7        1.0  0.32123  0.57454  0.97157  1.0000
  C   C8        1.0  0.82124  0.92545  0.02843  1.0000
  C   C9        1.0  0.63876  0.34207  0.08710  1.0000
  C   C10       1.0  0.13876  0.15793  0.91290  1.0000
  C   C11       1.0  0.36123  0.65793  0.91290  1.0000
  C   C12       1.0  0.86124  0.84207  0.08710  1.0000
  C   C13       1.0  0.58708  0.21990  0.01821  1.0000
  C   C14       1.0  0.08708  0.28010  0.98179  1.0000
  C   C15       1.0  0.41292  0.78010  0.98179  1.0000
  C   C16       1.0  0.91291  0.71990  0.01821  1.0000
  C   C17       1.0  0.57639  0.18544  0.89367  1.0000
  C   C18       1.0  0.07640  0.31456  0.10633  1.0000
  C   C19       1.0  0.42360  0.81456  0.10633  1.0000
  C   C20       1.0  0.92360  0.68544  0.89367  1.0000
  S   S1        1.0  0.51164  0.20428  0.37766  1.0000
  S   S2        1.0  0.01164  0.29572  0.62234  1.0000
  S   S3        1.0  0.48836  0.79572  0.62234  1.0000
  S   S4        1.0  0.98836  0.70428  0.37766  1.0000
  N   N1        1.0  0.61327  0.26674  0.83751  1.0000
  N   N2        1.0  0.11328  0.23326  0.16249  1.0000
  N   N3        1.0  0.38672  0.73326  0.16249  1.0000
  N   N4        1.0  0.88672  0.76674  0.83751  1.0000
  O   O1        1.0  0.58059  0.14271  0.46221  1.0000
  O   O2        1.0  0.08059  0.35729  0.53779  1.0000
  O   O3        1.0  0.41941  0.85730  0.53779  1.0000
  O   O4        1.0  0.91941  0.64271  0.46221  1.0000
  O   O5        1.0  0.31846  0.17514  0.35761  1.0000
  O   O6        1.0  0.81847  0.32486  0.64239  1.0000
  O   O7        1.0  0.68154  0.82486  0.64239  1.0000
  O   O8        1.0  0.18154  0.67514  0.35761  1.0000
  O   O9        1.0  0.61157  0.15415  0.26379  1.0000
  O   O10       1.0  0.11157  0.34585  0.73621  1.0000
  O   O11       1.0  0.38843  0.84586  0.73622  1.0000
  O   O12       1.0  0.88843  0.65416  0.26378  1.0000
  O   O13       1.0  0.53659  0.34415  0.43561  1.0000
  O   O14       1.0  0.03658  0.15585  0.56440  1.0000
  O   O15       1.0  0.46341  0.65584  0.56439  1.0000
  O   O16       1.0  0.96342  0.84416  0.43562  1.0000
  O   O17       1.0  0.36306  0.10360  0.65117  1.0000
  O   O18       1.0  0.86307  0.39640  0.34884  1.0000
  O   O19       1.0  0.63695  0.89641  0.34883  1.0000
  O   O20       1.0  0.13695  0.60359  0.65116  1.0000
  O   O21       1.0  0.44966  0.37261  0.67177  1.0000
  O   O22       1.0  0.94966  0.12740  0.32823  1.0000
  O   O23       1.0  0.55034  0.62739  0.32823  1.0000
  O   O24       1.0  0.05034  0.87261  0.67177  1.0000
  O   O25       1.0  0.75375  0.05951  0.63970  1.0000
  O   O26       1.0  0.25375  0.44049  0.36031  1.0000
  O   O27       1.0  0.24625  0.94049  0.36031  1.0000
  O   O28       1.0  0.74625  0.55951  0.63968  1.0000
