data_image0
_chemical_formula_structural       Zn4H20C16N20O8
_chemical_formula_sum              "Zn4 H20 C16 N20 O8"
_cell_length_a       9.06563
_cell_length_b       10.069
_cell_length_c       12.0954
_cell_angle_alpha    108.047
_cell_angle_beta     101.933
_cell_angle_gamma    94.6792

_space_group_name_H-M_alt    "P 1"
_space_group_IT_number       1

loop_
  _space_group_symop_operation_xyz
  'x, y, z'

loop_
  _atom_site_type_symbol
  _atom_site_label
  _atom_site_symmetry_multiplicity
  _atom_site_fract_x
  _atom_site_fract_y
  _atom_site_fract_z
  _atom_site_occupancy
  Zn  Zn1       1.0  0.44911  0.65195  0.59551  1.0000
  Zn  Zn2       1.0  0.55089  0.34805  0.40449  1.0000
  Zn  Zn3       1.0  0.90644  0.86083  0.36367  1.0000
  Zn  Zn4       1.0  0.09356  0.13917  0.63634  1.0000
  H   H1        1.0  0.86335  0.58258  0.93014  1.0000
  H   H2        1.0  0.13663  0.41742  0.06985  1.0000
  H   H3        1.0  0.66098  0.81353  0.99566  1.0000
  H   H4        1.0  0.33901  0.18647  0.00434  1.0000
  H   H5        1.0  0.55726  0.92038  0.57121  1.0000
  H   H6        1.0  0.44275  0.07962  0.42879  1.0000
  H   H7        1.0  0.72335  0.98548  0.54676  1.0000
  H   H8        1.0  0.27666  0.01452  0.45324  1.0000
  H   H9        1.0  0.81286  0.40187  0.29925  1.0000
  H   H10       1.0  0.18714  0.59813  0.70075  1.0000
  H   H11       1.0  0.88577  0.54276  0.26393  1.0000
  H   H12       1.0  0.11423  0.45724  0.73607  1.0000
  H   H13       1.0  0.73046  0.98239  0.19101  1.0000
  H   H14       1.0  0.26955  0.01761  0.80899  1.0000
  H   H15       1.0  0.60481  0.11027  0.20645  1.0000
  H   H16       1.0  0.39519  0.88973  0.79355  1.0000
  H   H17       1.0  0.86786  0.33800  0.72759  1.0000
  H   H18       1.0  0.13214  0.66200  0.27241  1.0000
  H   H19       1.0  0.72929  0.41295  0.65800  1.0000
  H   H20       1.0  0.27071  0.58705  0.34200  1.0000
  C   C1        1.0  0.66302  0.77098  0.47768  1.0000
  C   C2        1.0  0.33698  0.22903  0.52232  1.0000
  C   C3        1.0  0.75519  0.58929  0.38576  1.0000
  C   C4        1.0  0.24481  0.41071  0.61424  1.0000
  C   C5        1.0  0.75284  0.11486  0.36045  1.0000
  C   C6        1.0  0.24716  0.88515  0.63955  1.0000
  C   C7        1.0  0.79203  0.23455  0.54976  1.0000
  C   C8        1.0  0.20797  0.76545  0.45024  1.0000
  C   C9        1.0  0.87753  0.70399  0.11837  1.0000
  C   C10       1.0  0.12246  0.29601  0.88163  1.0000
  C   C11       1.0  0.81792  0.66816  0.98693  1.0000
  C   C12       1.0  0.18207  0.33183  0.01307  1.0000
  C   C13       1.0  0.70834  0.72996  0.93868  1.0000
  C   C14       1.0  0.29164  0.27003  0.06132  1.0000
  C   C15       1.0  0.64159  0.68559  0.80711  1.0000
  C   C16       1.0  0.35840  0.31440  0.19290  1.0000
  N   N1        1.0  0.63247  0.90563  0.51855  1.0000
  N   N2        1.0  0.36753  0.09437  0.48145  1.0000
  N   N3        1.0  0.84379  0.50803  0.32445  1.0000
  N   N4        1.0  0.15622  0.49196  0.67555  1.0000
  N   N5        1.0  0.76737  0.73272  0.41137  1.0000
  N   N6        1.0  0.23264  0.26729  0.58863  1.0000
  N   N7        1.0  0.59082  0.65976  0.49258  1.0000
  N   N8        1.0  0.40919  0.34024  0.50742  1.0000
  N   N9        1.0  0.64942  0.54187  0.43246  1.0000
  N   N10       1.0  0.35058  0.45813  0.56754  1.0000
  N   N11       1.0  0.69867  0.07243  0.24035  1.0000
  N   N12       1.0  0.30134  0.92758  0.75965  1.0000
  N   N13       1.0  0.78091  0.32557  0.65407  1.0000
  N   N14       1.0  0.21909  0.67443  0.34593  1.0000
  N   N15       1.0  0.70733  0.22463  0.43890  1.0000
  N   N16       1.0  0.29268  0.77537  0.56110  1.0000
  N   N17       1.0  0.85893  0.05813  0.41743  1.0000
  N   N18       1.0  0.14108  0.94188  0.58257  1.0000
  N   N19       1.0  0.88377  0.13471  0.54140  1.0000
  N   N20       1.0  0.11623  0.86529  0.45860  1.0000
  O   O1        1.0  0.84819  0.82020  0.18802  1.0000
  O   O2        1.0  0.15180  0.17980  0.81198  1.0000
  O   O3        1.0  0.95112  0.61902  0.15587  1.0000
  O   O4        1.0  0.04888  0.38097  0.84412  1.0000
  O   O5        1.0  0.53072  0.75104  0.77385  1.0000
  O   O6        1.0  0.46928  0.24896  0.22615  1.0000
  O   O7        1.0  0.68813  0.59096  0.73428  1.0000
  O   O8        1.0  0.31187  0.40903  0.26573  1.0000
