data_image0
_chemical_formula_structural       Ag8H20C24S8N20
_chemical_formula_sum              "Ag8 H20 C24 S8 N20"
_cell_length_a       7.09798
_cell_length_b       8.04977
_cell_length_c       17.4829
_cell_angle_alpha    90.0002
_cell_angle_beta     90
_cell_angle_gamma    90.0001

_space_group_name_H-M_alt    "P 1"
_space_group_IT_number       1

loop_
  _space_group_symop_operation_xyz
  'x, y, z'

loop_
  _atom_site_type_symbol
  _atom_site_label
  _atom_site_symmetry_multiplicity
  _atom_site_fract_x
  _atom_site_fract_y
  _atom_site_fract_z
  _atom_site_occupancy
  Ag  Ag1       1.0  0.79413  0.84948  0.31696  1.0000
  Ag  Ag2       1.0  0.29412  0.65052  0.18304  1.0000
  Ag  Ag3       1.0  0.70588  0.84947  0.68304  1.0000
  Ag  Ag4       1.0  0.20588  0.65053  0.81696  1.0000
  Ag  Ag5       1.0  0.20588  0.15053  0.68304  1.0000
  Ag  Ag6       1.0  0.70588  0.34947  0.81696  1.0000
  Ag  Ag7       1.0  0.29413  0.15053  0.31696  1.0000
  Ag  Ag8       1.0  0.79413  0.34948  0.18304  1.0000
  H   H1        1.0  0.83146  0.20173  0.38168  1.0000
  H   H2        1.0  0.33146  0.29827  0.11831  1.0000
  H   H3        1.0  0.66853  0.20173  0.61832  1.0000
  H   H4        1.0  0.16854  0.29827  0.88168  1.0000
  H   H5        1.0  0.16854  0.79827  0.61832  1.0000
  H   H6        1.0  0.66854  0.70173  0.88168  1.0000
  H   H7        1.0  0.33146  0.79827  0.38168  1.0000
  H   H8        1.0  0.83146  0.70174  0.11832  1.0000
  H   H9        1.0  0.75000  0.36532  0.50000  1.0000
  H   H10       1.0  0.24999  0.13468  1.00000  1.0000
  H   H11       1.0  0.25000  0.63468  0.50000  1.0000
  H   H12       1.0  0.75000  0.86532  1.00000  1.0000
  H   H13       1.0  0.68920  0.66245  0.54449  1.0000
  H   H14       1.0  0.18921  0.83754  0.95551  1.0000
  H   H15       1.0  0.81079  0.66246  0.45551  1.0000
  H   H16       1.0  0.31080  0.83755  0.04449  1.0000
  H   H17       1.0  0.31079  0.33754  0.45551  1.0000
  H   H18       1.0  0.81080  0.16246  0.04449  1.0000
  H   H19       1.0  0.18920  0.33755  0.54449  1.0000
  H   H20       1.0  0.68921  0.16245  0.95551  1.0000
  C   C1        1.0  0.75000  0.89143  0.50000  1.0000
  C   C2        1.0  0.25000  0.60856  1.00000  1.0000
  C   C3        1.0  0.25000  0.10857  0.50000  1.0000
  C   C4        1.0  0.75001  0.39144  0.00000  1.0000
  C   C5        1.0  0.79395  0.13976  0.43506  1.0000
  C   C6        1.0  0.29395  0.36024  0.06495  1.0000
  C   C7        1.0  0.70604  0.13976  0.56495  1.0000
  C   C8        1.0  0.20605  0.36024  0.93505  1.0000
  C   C9        1.0  0.20604  0.86024  0.56495  1.0000
  C   C10       1.0  0.70605  0.63976  0.93505  1.0000
  C   C11       1.0  0.29395  0.86024  0.43505  1.0000
  C   C12       1.0  0.79395  0.63976  0.06495  1.0000
  C   C13       1.0  0.75000  0.23081  0.50000  1.0000
  C   C14       1.0  0.25000  0.26919  1.00000  1.0000
  C   C15       1.0  0.25000  0.76919  0.50000  1.0000
  C   C16       1.0  0.75000  0.73081  1.00000  1.0000
  C   C17       1.0  0.03257  0.97929  0.16884  1.0000
  C   C18       1.0  0.53255  0.52072  0.33117  1.0000
  C   C19       1.0  0.46744  0.97928  0.83116  1.0000
  C   C20       1.0  0.96745  0.52071  0.66883  1.0000
  C   C21       1.0  0.96744  0.02072  0.83116  1.0000
  C   C22       1.0  0.46744  0.47928  0.66884  1.0000
  C   C23       1.0  0.53255  0.02071  0.16883  1.0000
  C   C24       1.0  0.03255  0.47929  0.33117  1.0000
  S   S1        1.0  0.11120  0.88207  0.24583  1.0000
  S   S2        1.0  0.61120  0.61793  0.25418  1.0000
  S   S3        1.0  0.38880  0.88207  0.75418  1.0000
  S   S4        1.0  0.88881  0.61792  0.74582  1.0000
  S   S5        1.0  0.88881  0.11793  0.75418  1.0000
  S   S6        1.0  0.38881  0.38208  0.74583  1.0000
  S   S7        1.0  0.61119  0.11792  0.24582  1.0000
  S   S8        1.0  0.11120  0.38207  0.25418  1.0000
  N   N1        1.0  0.75000  0.72612  0.50000  1.0000
  N   N2        1.0  0.25000  0.77388  1.00000  1.0000
  N   N3        1.0  0.25000  0.27388  0.50000  1.0000
  N   N4        1.0  0.75001  0.22612  0.00000  1.0000
  N   N5        1.0  0.79104  0.97322  0.43351  1.0000
  N   N6        1.0  0.29104  0.52677  0.06649  1.0000
  N   N7        1.0  0.70895  0.97323  0.56649  1.0000
  N   N8        1.0  0.20896  0.52678  0.93351  1.0000
  N   N9        1.0  0.20896  0.02678  0.56649  1.0000
  N   N10       1.0  0.70897  0.47323  0.93351  1.0000
  N   N11       1.0  0.29104  0.02677  0.43351  1.0000
  N   N12       1.0  0.79104  0.47323  0.06649  1.0000
  N   N13       1.0  0.97174  0.05208  0.11578  1.0000
  N   N14       1.0  0.47174  0.44792  0.38423  1.0000
  N   N15       1.0  0.52827  0.05208  0.88423  1.0000
  N   N16       1.0  0.02827  0.44792  0.61577  1.0000
  N   N17       1.0  0.02827  0.94792  0.88423  1.0000
  N   N18       1.0  0.52827  0.55208  0.61577  1.0000
  N   N19       1.0  0.47173  0.94792  0.11577  1.0000
  N   N20       1.0  0.97173  0.55207  0.38423  1.0000
