data_image0
_chemical_formula_structural       Gd4H48C56N4O32
_chemical_formula_sum              "Gd4 H48 C56 N4 O32"
_cell_length_a       5.97058
_cell_length_b       8.72244
_cell_length_c       31.011
_cell_angle_alpha    84.6092
_cell_angle_beta     84.7246
_cell_angle_gamma    70.0024

_space_group_name_H-M_alt    "P 1"
_space_group_IT_number       1

loop_
  _space_group_symop_operation_xyz
  'x, y, z'

loop_
  _atom_site_type_symbol
  _atom_site_label
  _atom_site_symmetry_multiplicity
  _atom_site_fract_x
  _atom_site_fract_y
  _atom_site_fract_z
  _atom_site_occupancy
  Gd  Gd1       1.0  0.91425  0.76033  0.95918  1.0000
  Gd  Gd2       1.0  0.63455  0.73974  0.54076  1.0000
  Gd  Gd3       1.0  0.08575  0.23967  0.04082  1.0000
  Gd  Gd4       1.0  0.36544  0.26026  0.45924  1.0000
  H   H1        1.0  0.41474  0.89272  0.92994  1.0000
  H   H2        1.0  0.23894  0.60758  0.57030  1.0000
  H   H3        1.0  0.58526  0.10728  0.07006  1.0000
  H   H4        1.0  0.76105  0.39242  0.42970  1.0000
  H   H5        1.0  0.45098  0.04398  0.95191  1.0000
  H   H6        1.0  0.44714  0.45649  0.54825  1.0000
  H   H7        1.0  0.54901  0.95602  0.04809  1.0000
  H   H8        1.0  0.55285  0.54351  0.45175  1.0000
  H   H9        1.0  0.72416  0.47860  0.96122  1.0000
  H   H10       1.0  0.16476  0.02151  0.53870  1.0000
  H   H11       1.0  0.27585  0.52139  0.03878  1.0000
  H   H12       1.0  0.83523  0.97848  0.46130  1.0000
  H   H13       1.0  0.53066  0.63098  0.93605  1.0000
  H   H14       1.0  0.09944  0.86929  0.56395  1.0000
  H   H15       1.0  0.46934  0.36901  0.06395  1.0000
  H   H16       1.0  0.90055  0.13070  0.43605  1.0000
  H   H17       1.0  0.19577  0.46314  0.86441  1.0000
  H   H18       1.0  0.52697  0.03737  0.63548  1.0000
  H   H19       1.0  0.80423  0.53686  0.13559  1.0000
  H   H20       1.0  0.47304  0.96263  0.36452  1.0000
  H   H21       1.0  0.46864  0.43055  0.79850  1.0000
  H   H22       1.0  0.70339  0.07029  0.70152  1.0000
  H   H23       1.0  0.53137  0.56945  0.20150  1.0000
  H   H24       1.0  0.29661  0.92971  0.29848  1.0000
  H   H25       1.0  0.91235  0.29037  0.80480  1.0000
  H   H26       1.0  0.01348  0.20999  0.69533  1.0000
  H   H27       1.0  0.08766  0.70963  0.19520  1.0000
  H   H28       1.0  0.98652  0.79001  0.30467  1.0000
  H   H29       1.0  0.06635  0.17455  0.87654  1.0000
  H   H30       1.0  0.12148  0.32534  0.62362  1.0000
  H   H31       1.0  0.93365  0.82545  0.12347  1.0000
  H   H32       1.0  0.87852  0.67466  0.37638  1.0000
  H   H33       1.0  0.00952  0.78655  0.79802  1.0000
  H   H34       1.0  0.59560  0.71437  0.70172  1.0000
  H   H35       1.0  0.99049  0.21345  0.20198  1.0000
  H   H36       1.0  0.40440  0.28564  0.29828  1.0000
  H   H37       1.0  0.15008  0.89812  0.72712  1.0000
  H   H38       1.0  0.77631  0.60078  0.77283  1.0000
  H   H39       1.0  0.84993  0.10189  0.27288  1.0000
  H   H40       1.0  0.22371  0.39923  0.22717  1.0000
  H   H41       1.0  0.60674  0.06162  0.78822  1.0000
  H   H42       1.0  0.45716  0.43759  0.71273  1.0000
  H   H43       1.0  0.39327  0.93839  0.21178  1.0000
  H   H44       1.0  0.54284  0.56241  0.28726  1.0000
  H   H45       1.0  0.50474  0.94331  0.86030  1.0000
  H   H46       1.0  0.30940  0.55749  0.64048  1.0000
  H   H47       1.0  0.49527  0.05668  0.13970  1.0000
  H   H48       1.0  0.69060  0.44250  0.35952  1.0000
  C   C1        1.0  0.71968  0.25082  0.91082  1.0000
  C   C2        1.0  0.88428  0.24900  0.58921  1.0000
  C   C3        1.0  0.28032  0.74917  0.08918  1.0000
  C   C4        1.0  0.11571  0.75100  0.41079  1.0000
  C   C5        1.0  0.47409  0.33479  0.90748  1.0000
  C   C6        1.0  0.71932  0.16509  0.59249  1.0000
  C   C7        1.0  0.52591  0.66521  0.09252  1.0000
  C   C8        1.0  0.28068  0.83491  0.40751  1.0000
  C   C9        1.0  0.38684  0.39988  0.86688  1.0000
  C   C10       1.0  0.65749  0.10037  0.63308  1.0000
  C   C11       1.0  0.61316  0.60012  0.13312  1.0000
  C   C12       1.0  0.34251  0.89962  0.36692  1.0000
  C   C13       1.0  0.54266  0.38206  0.82981  1.0000
  C   C14       1.0  0.75936  0.11852  0.67021  1.0000
  C   C15       1.0  0.45735  0.61794  0.17019  1.0000
  C   C16       1.0  0.24065  0.88148  0.32979  1.0000
  C   C17       1.0  0.78768  0.30198  0.83334  1.0000
  C   C18       1.0  0.92801  0.19838  0.66675  1.0000
  C   C19       1.0  0.21232  0.69802  0.16666  1.0000
  C   C20       1.0  0.07199  0.80162  0.33325  1.0000
  C   C21       1.0  0.87528  0.23625  0.87369  1.0000
  C   C22       1.0  0.98928  0.26369  0.62640  1.0000
  C   C23       1.0  0.12472  0.76374  0.12631  1.0000
  C   C24       1.0  0.01072  0.73631  0.37360  1.0000
  C   C25       1.0  0.82069  0.17947  0.95381  1.0000
  C   C26       1.0  0.95520  0.32047  0.54622  1.0000
  C   C27       1.0  0.17930  0.82053  0.04619  1.0000
  C   C28       1.0  0.04478  0.67954  0.45378  1.0000
  C   C29       1.0  0.30819  0.35259  0.94731  1.0000
  C   C30       1.0  0.60952  0.14756  0.55261  1.0000
  C   C31       1.0  0.69181  0.64742  0.05269  1.0000
  C   C32       1.0  0.39048  0.85242  0.44739  1.0000
  C   C33       1.0  0.24376  0.85764  0.83480  1.0000
  C   C34       1.0  0.93754  0.64313  0.66544  1.0000
  C   C35       1.0  0.75624  0.14235  0.16520  1.0000
  C   C36       1.0  0.06245  0.35687  0.33456  1.0000
  C   C37       1.0  0.14439  0.84522  0.79669  1.0000
  C   C38       1.0  0.78756  0.65525  0.70332  1.0000
  C   C39       1.0  0.85562  0.15478  0.20331  1.0000
  C   C40       1.0  0.21244  0.34476  0.29668  1.0000
  C   C41       1.0  0.22161  0.90889  0.75751  1.0000
  C   C42       1.0  0.88894  0.59052  0.74261  1.0000
  C   C43       1.0  0.77839  0.09112  0.24249  1.0000
  C   C44       1.0  0.11106  0.40948  0.25739  1.0000
  C   C45       1.0  0.47706  0.99739  0.79118  1.0000
  C   C46       1.0  0.26639  0.50208  0.70949  1.0000
  C   C47       1.0  0.52294  0.00262  0.20882  1.0000
  C   C48       1.0  0.73361  0.49793  0.29050  1.0000
  C   C49       1.0  0.41794  0.93287  0.83184  1.0000
  C   C50       1.0  0.18374  0.56756  0.66876  1.0000
  C   C51       1.0  0.58207  0.06713  0.16816  1.0000
  C   C52       1.0  0.81626  0.43244  0.33124  1.0000
  C   C53       1.0  0.15165  0.79957  0.87745  1.0000
  C   C54       1.0  0.83018  0.70139  0.62263  1.0000
  C   C55       1.0  0.84836  0.20043  0.12255  1.0000
  C   C56       1.0  0.16982  0.29860  0.37737  1.0000
  N   N1        1.0  0.38279  0.98655  0.75435  1.0000
  N   N2        1.0  0.12433  0.51230  0.74608  1.0000
  N   N3        1.0  0.61721  0.01346  0.24566  1.0000
  N   N4        1.0  0.87567  0.48771  0.25392  1.0000
  O   O1        1.0  0.91112  0.02607  0.95873  1.0000
  O   O2        1.0  0.89628  0.47394  0.54128  1.0000
  O   O3        1.0  0.08887  0.97393  0.04127  1.0000
  O   O4        1.0  0.10371  0.52605  0.45872  1.0000
  O   O5        1.0  0.81689  0.27852  0.98209  1.0000
  O   O6        1.0  0.07804  0.22156  0.51796  1.0000
  O   O7        1.0  0.18309  0.72148  0.01791  1.0000
  O   O8        1.0  0.92196  0.77843  0.48204  1.0000
  O   O9        1.0  0.31926  0.22361  0.97178  1.0000
  O   O10       1.0  0.51538  0.27683  0.52822  1.0000
  O   O11       1.0  0.68072  0.77639  0.02821  1.0000
  O   O12       1.0  0.48461  0.72316  0.47178  1.0000
  O   O13       1.0  0.16599  0.49254  0.95589  1.0000
  O   O14       1.0  0.61520  0.00781  0.54390  1.0000
  O   O15       1.0  0.83402  0.50746  0.04411  1.0000
  O   O16       1.0  0.38480  0.99219  0.45610  1.0000
  O   O17       1.0  0.26547  0.78453  0.91193  1.0000
  O   O18       1.0  0.96343  0.71595  0.58833  1.0000
  O   O19       1.0  0.73453  0.21547  0.08807  1.0000
  O   O20       1.0  0.03656  0.28404  0.41167  1.0000
  O   O21       1.0  0.95622  0.77143  0.87983  1.0000
  O   O22       1.0  0.60900  0.72990  0.61998  1.0000
  O   O23       1.0  0.04378  0.22857  0.12017  1.0000
  O   O24       1.0  0.39099  0.27011  0.38002  1.0000
  O   O25       1.0  0.53456  0.93512  0.93986  1.0000
  O   O26       1.0  0.41040  0.56534  0.56029  1.0000
  O   O27       1.0  0.46543  0.06489  0.06014  1.0000
  O   O28       1.0  0.58959  0.43465  0.43972  1.0000
  O   O29       1.0  0.68685  0.59338  0.94859  1.0000
  O   O30       1.0  0.22995  0.90652  0.55120  1.0000
  O   O31       1.0  0.31317  0.40662  0.05140  1.0000
  O   O32       1.0  0.77004  0.09347  0.44880  1.0000
