data_image0
_chemical_formula_structural       Cd2H20C28N4O10
_chemical_formula_sum              "Cd2 H20 C28 N4 O10"
_cell_length_a       6.26973
_cell_length_b       7.16361
_cell_length_c       14.9463
_cell_angle_alpha    92.5295
_cell_angle_beta     88.4443
_cell_angle_gamma    85.7657

_space_group_name_H-M_alt    "P 1"
_space_group_IT_number       1

loop_
  _space_group_symop_operation_xyz
  'x, y, z'

loop_
  _atom_site_type_symbol
  _atom_site_label
  _atom_site_symmetry_multiplicity
  _atom_site_fract_x
  _atom_site_fract_y
  _atom_site_fract_z
  _atom_site_occupancy
  Cd  Cd1       1.0  0.67704  0.24943  0.49653  1.0000
  Cd  Cd2       1.0  0.32256  0.75056  0.50356  1.0000
  H   H1        1.0  0.01031  0.54360  0.31363  1.0000
  H   H2        1.0  0.04310  0.96668  0.68546  1.0000
  H   H3        1.0  0.98914  0.45658  0.68605  1.0000
  H   H4        1.0  0.95728  0.03337  0.31462  1.0000
  H   H5        1.0  0.86730  0.57744  0.16024  1.0000
  H   H6        1.0  0.89394  0.92385  0.83988  1.0000
  H   H7        1.0  0.13284  0.42245  0.83931  1.0000
  H   H8        1.0  0.10631  0.07606  0.16010  1.0000
  H   H9        1.0  0.48281  0.37434  0.04498  1.0000
  H   H10       1.0  0.46731  0.11867  0.95226  1.0000
  H   H11       1.0  0.51780  0.62537  0.95494  1.0000
  H   H12       1.0  0.53272  0.88101  0.04782  1.0000
  H   H13       1.0  0.62284  0.33322  0.19838  1.0000
  H   H14       1.0  0.61165  0.16917  0.79856  1.0000
  H   H15       1.0  0.37709  0.66678  0.80171  1.0000
  H   H16       1.0  0.38852  0.83069  0.20162  1.0000
  H   H17       1.0  0.12133  0.15334  0.51700  1.0000
  H   H18       1.0  0.10944  0.31493  0.44937  1.0000
  H   H19       1.0  0.87838  0.84717  0.48338  1.0000
  H   H20       1.0  0.89020  0.68551  0.55089  1.0000
  C   C1        1.0  0.41402  0.41475  0.35580  1.0000
  C   C2        1.0  0.42524  0.10166  0.64196  1.0000
  C   C3        1.0  0.58535  0.58561  0.64414  1.0000
  C   C4        1.0  0.57506  0.89846  0.35818  1.0000
  C   C5        1.0  0.32524  0.43470  0.26507  1.0000
  C   C6        1.0  0.33532  0.07292  0.73309  1.0000
  C   C7        1.0  0.67454  0.56537  0.73477  1.0000
  C   C8        1.0  0.66491  0.92706  0.26700  1.0000
  C   C9        1.0  0.11172  0.50365  0.25450  1.0000
  C   C10       1.0  0.13285  0.00284  0.74439  1.0000
  C   C11       1.0  0.88799  0.49629  0.74522  1.0000
  C   C12       1.0  0.86747  0.99714  0.25567  1.0000
  C   C13       1.0  0.03141  0.52266  0.16955  1.0000
  C   C14       1.0  0.04970  0.97886  0.82978  1.0000
  C   C15       1.0  0.96859  0.47720  0.83010  1.0000
  C   C16       1.0  0.95056  0.02103  0.17026  1.0000
  C   C17       1.0  0.16537  0.47385  0.09361  1.0000
  C   C18       1.0  0.16962  0.02390  0.90511  1.0000
  C   C19       1.0  0.83483  0.52580  0.90615  1.0000
  C   C20       1.0  0.83047  0.97595  0.09496  1.0000
  C   C21       1.0  0.37967  0.40830  0.10411  1.0000
  C   C22       1.0  0.37427  0.08851  0.89368  1.0000
  C   C23       1.0  0.62058  0.59145  0.89577  1.0000
  C   C24       1.0  0.62582  0.91126  0.10641  1.0000
  C   C25       1.0  0.45797  0.38615  0.18928  1.0000
  C   C26       1.0  0.45494  0.11586  0.80826  1.0000
  C   C27       1.0  0.54197  0.61361  0.81066  1.0000
  C   C28       1.0  0.54525  0.88397  0.19188  1.0000
  N   N1        1.0  0.10062  0.49145  0.00437  1.0000
  N   N2        1.0  0.10018  0.00400  0.99463  1.0000
  N   N3        1.0  0.89971  0.50813  0.99534  1.0000
  N   N4        1.0  0.89992  0.99577  0.00543  1.0000
  O   O1        1.0  0.60926  0.35433  0.36110  1.0000
  O   O2        1.0  0.60563  0.17253  0.63606  1.0000
  O   O3        1.0  0.38991  0.64558  0.63895  1.0000
  O   O4        1.0  0.39466  0.82765  0.36420  1.0000
  O   O5        1.0  0.29250  0.45517  0.42601  1.0000
  O   O6        1.0  0.32068  0.05799  0.57248  1.0000
  O   O7        1.0  0.70672  0.54563  0.57386  1.0000
  O   O8        1.0  0.67981  0.94228  0.42757  1.0000
  O   O9        1.0  0.02943  0.20860  0.47027  1.0000
  O   O10       1.0  0.97032  0.79188  0.53010  1.0000
