data_image0
_chemical_formula_structural       Co2H40C52N8O14
_chemical_formula_sum              "Co2 H40 C52 N8 O14"
_cell_length_a       9.84851
_cell_length_b       11.2492
_cell_length_c       11.8314
_cell_angle_alpha    93.8586
_cell_angle_beta     102.306
_cell_angle_gamma    111.665

_space_group_name_H-M_alt    "P 1"
_space_group_IT_number       1

loop_
  _space_group_symop_operation_xyz
  'x, y, z'

loop_
  _atom_site_type_symbol
  _atom_site_label
  _atom_site_symmetry_multiplicity
  _atom_site_fract_x
  _atom_site_fract_y
  _atom_site_fract_z
  _atom_site_occupancy
  Co  Co1       1.0  0.14869  0.23953  0.31057  1.0000
  Co  Co2       1.0  0.85131  0.76047  0.68943  1.0000
  H   H1        1.0  0.54314  0.61050  0.00017  1.0000
  H   H2        1.0  0.45687  0.38950  0.99982  1.0000
  H   H3        1.0  0.58455  0.41831  0.67440  1.0000
  H   H4        1.0  0.41545  0.58169  0.32560  1.0000
  H   H5        1.0  0.86499  0.07211  0.62513  1.0000
  H   H6        1.0  0.13501  0.92789  0.37487  1.0000
  H   H7        1.0  0.86368  0.42461  0.15147  1.0000
  H   H8        1.0  0.13632  0.57539  0.84853  1.0000
  H   H9        1.0  0.92041  0.78620  0.02732  1.0000
  H   H10       1.0  0.07959  0.21380  0.97267  1.0000
  H   H11       1.0  0.30665  0.68677  0.14144  1.0000
  H   H12       1.0  0.69335  0.31323  0.85856  1.0000
  H   H13       1.0  0.08153  0.95160  0.99107  1.0000
  H   H14       1.0  0.91846  0.04840  0.00893  1.0000
  H   H15       1.0  0.27826  0.04886  0.03331  1.0000
  H   H16       1.0  0.72173  0.95114  0.96668  1.0000
  H   H17       1.0  0.43293  0.25890  0.20799  1.0000
  H   H18       1.0  0.56707  0.74110  0.79201  1.0000
  H   H19       1.0  0.69685  0.28387  0.21483  1.0000
  H   H20       1.0  0.30315  0.71613  0.78518  1.0000
  H   H21       1.0  0.89430  0.35384  0.40123  1.0000
  H   H22       1.0  0.10570  0.64616  0.59877  1.0000
  H   H23       1.0  0.83477  0.39711  0.59142  1.0000
  H   H24       1.0  0.16523  0.60289  0.40858  1.0000
  H   H25       1.0  0.21578  0.41490  0.55547  1.0000
  H   H26       1.0  0.78422  0.58510  0.44453  1.0000
  H   H27       1.0  0.34068  0.41776  0.68725  1.0000
  H   H28       1.0  0.65932  0.58224  0.31275  1.0000
  H   H29       1.0  0.21273  0.16472  0.64623  1.0000
  H   H30       1.0  0.78727  0.83528  0.35377  1.0000
  H   H31       1.0  0.11818  0.25334  0.69779  1.0000
  H   H32       1.0  0.88183  0.74666  0.30221  1.0000
  H   H33       1.0  0.83307  0.08606  0.16577  1.0000
  H   H34       1.0  0.16693  0.91395  0.83424  1.0000
  H   H35       1.0  0.55436  0.95092  0.11530  1.0000
  H   H36       1.0  0.44565  0.04908  0.88470  1.0000
  H   H37       1.0  0.42302  0.88301  0.26970  1.0000
  H   H38       1.0  0.57698  0.11699  0.73030  1.0000
  H   H39       1.0  0.56522  0.93653  0.48128  1.0000
  H   H40       1.0  0.43478  0.06347  0.51872  1.0000
  C   C1        1.0  0.09275  0.54808  0.15529  1.0000
  C   C2        1.0  0.90725  0.45192  0.84471  1.0000
  C   C3        1.0  0.93764  0.51678  0.13457  1.0000
  C   C4        1.0  0.06236  0.48322  0.86543  1.0000
  C   C5        1.0  0.87733  0.60289  0.08813  1.0000
  C   C6        1.0  0.12267  0.39711  0.91186  1.0000
  C   C7        1.0  0.97136  0.72253  0.06576  1.0000
  C   C8        1.0  0.02864  0.27747  0.93423  1.0000
  C   C9        1.0  0.12676  0.75305  0.08691  1.0000
  C   C10       1.0  0.87324  0.24695  0.91308  1.0000
  C   C11       1.0  0.18669  0.66492  0.12951  1.0000
  C   C12       1.0  0.81331  0.33509  0.87048  1.0000
  C   C13       1.0  0.15937  0.45622  0.20323  1.0000
  C   C14       1.0  0.84062  0.54378  0.79677  1.0000
  C   C15       1.0  0.71051  0.56040  0.05553  1.0000
  C   C16       1.0  0.28950  0.43961  0.94447  1.0000
  C   C17       1.0  0.18705  0.97353  0.05900  1.0000
  C   C18       1.0  0.81295  0.02648  0.94099  1.0000
  C   C19       1.0  0.17465  0.02702  0.17714  1.0000
  C   C20       1.0  0.82535  0.97299  0.82285  1.0000
  C   C21       1.0  0.48443  0.30807  0.39692  1.0000
  C   C22       1.0  0.51557  0.69192  0.60309  1.0000
  C   C23       1.0  0.51860  0.28519  0.29091  1.0000
  C   C24       1.0  0.48140  0.71480  0.70909  1.0000
  C   C25       1.0  0.66707  0.30186  0.29583  1.0000
  C   C26       1.0  0.33293  0.69813  0.70418  1.0000
  C   C27       1.0  0.77953  0.34117  0.40266  1.0000
  C   C28       1.0  0.22047  0.65883  0.59734  1.0000
  C   C29       1.0  0.74746  0.36573  0.50898  1.0000
  C   C30       1.0  0.25254  0.63427  0.49103  1.0000
  C   C31       1.0  0.59837  0.34957  0.50397  1.0000
  C   C32       1.0  0.40163  0.65042  0.49603  1.0000
  C   C33       1.0  0.38134  0.34250  0.53637  1.0000
  C   C34       1.0  0.61866  0.65750  0.46363  1.0000
  C   C35       1.0  0.27392  0.35854  0.60155  1.0000
  C   C36       1.0  0.72608  0.64146  0.39845  1.0000
  C   C37       1.0  0.15751  0.23163  0.62170  1.0000
  C   C38       1.0  0.84249  0.76837  0.37830  1.0000
  C   C39       1.0  0.01984  0.16382  0.52261  1.0000
  C   C40       1.0  0.98016  0.83618  0.47740  1.0000
  C   C41       1.0  0.85349  0.08581  0.35179  1.0000
  C   C42       1.0  0.14651  0.91419  0.64821  1.0000
  C   C43       1.0  0.77525  0.05216  0.23337  1.0000
  C   C44       1.0  0.22476  0.94785  0.76664  1.0000
  C   C45       1.0  0.62039  0.97752  0.20643  1.0000
  C   C46       1.0  0.37960  0.02248  0.79357  1.0000
  C   C47       1.0  0.54495  0.93704  0.29449  1.0000
  C   C48       1.0  0.45505  0.06297  0.70551  1.0000
  C   C49       1.0  0.62219  0.96822  0.41267  1.0000
  C   C50       1.0  0.37781  0.03178  0.58733  1.0000
  C   C51       1.0  0.77704  0.04334  0.43918  1.0000
  C   C52       1.0  0.22296  0.95666  0.56082  1.0000
  N   N1        1.0  0.34969  0.30275  0.42077  1.0000
  N   N2        1.0  0.65031  0.69724  0.57923  1.0000
  N   N3        1.0  0.52846  0.37036  0.58885  1.0000
  N   N4        1.0  0.47154  0.62963  0.41115  1.0000
  N   N5        1.0  0.00555  0.16102  0.40662  1.0000
  N   N6        1.0  0.99445  0.83898  0.59338  1.0000
  N   N7        1.0  0.88536  0.09375  0.54433  1.0000
  N   N8        1.0  0.11464  0.90625  0.45567  1.0000
  O   O1        1.0  0.29497  0.47611  0.20728  1.0000
  O   O2        1.0  0.70503  0.52390  0.79272  1.0000
  O   O3        1.0  0.07029  0.36004  0.24162  1.0000
  O   O4        1.0  0.92971  0.63996  0.75838  1.0000
  O   O5        1.0  0.62667  0.44440  0.05094  1.0000
  O   O6        1.0  0.37333  0.55559  0.94905  1.0000
  O   O7        1.0  0.65996  0.65210  0.03270  1.0000
  O   O8        1.0  0.34004  0.34791  0.96730  1.0000
  O   O9        1.0  0.22831  0.86481  0.06414  1.0000
  O   O10       1.0  0.77169  0.13519  0.93585  1.0000
  O   O11       1.0  0.20543  0.97816  0.26554  1.0000
  O   O12       1.0  0.79456  0.02182  0.73446  1.0000
  O   O13       1.0  0.13447  0.12411  0.17281  1.0000
  O   O14       1.0  0.86554  0.87589  0.82719  1.0000
