data_image0
_chemical_formula_structural       CuH26C30N4O4
_chemical_formula_sum              "Cu1 H26 C30 N4 O4"
_cell_length_a       6.93426
_cell_length_b       8.5482
_cell_length_c       11.3163
_cell_angle_alpha    76.4692
_cell_angle_beta     76.9316
_cell_angle_gamma    88.224

_space_group_name_H-M_alt    "P 1"
_space_group_IT_number       1

loop_
  _space_group_symop_operation_xyz
  'x, y, z'

loop_
  _atom_site_type_symbol
  _atom_site_label
  _atom_site_symmetry_multiplicity
  _atom_site_fract_x
  _atom_site_fract_y
  _atom_site_fract_z
  _atom_site_occupancy
  Cu  Cu1       1.0  0.50000  1.00000  1.00000  1.0000
  H   H1        1.0  0.10459  0.60853  0.99021  1.0000
  H   H2        1.0  0.89543  0.39146  0.00979  1.0000
  H   H3        1.0  0.30493  0.47324  0.98151  1.0000
  H   H4        1.0  0.69509  0.52676  0.01849  1.0000
  H   H5        1.0  0.23190  0.57399  0.84282  1.0000
  H   H6        1.0  0.76811  0.42600  0.15718  1.0000
  H   H7        1.0  0.60104  0.63618  0.78187  1.0000
  H   H8        1.0  0.39897  0.36382  0.21812  1.0000
  H   H9        1.0  0.77134  0.74459  0.59039  1.0000
  H   H10       1.0  0.22866  0.25543  0.40961  1.0000
  H   H11       1.0  0.08008  0.75744  0.42776  1.0000
  H   H12       1.0  0.91992  0.24257  0.57223  1.0000
  H   H13       1.0  0.39487  0.85557  0.45764  1.0000
  H   H14       1.0  0.60514  0.14443  0.54236  1.0000
  H   H15       1.0  0.39943  0.94413  0.65199  1.0000
  H   H16       1.0  0.60057  0.05587  0.34802  1.0000
  H   H17       1.0  0.08704  0.94196  0.81114  1.0000
  H   H18       1.0  0.91296  0.05804  0.18887  1.0000
  H   H19       1.0  0.05468  0.13934  0.94822  1.0000
  H   H20       1.0  0.94531  0.86065  0.05179  1.0000
  H   H21       1.0  0.89997  0.31160  0.78877  1.0000
  H   H22       1.0  0.10002  0.68840  0.21124  1.0000
  H   H23       1.0  0.12367  0.47814  0.59086  1.0000
  H   H24       1.0  0.87631  0.52186  0.40914  1.0000
  H   H25       1.0  0.62086  0.27828  0.74019  1.0000
  H   H26       1.0  0.37913  0.72171  0.25980  1.0000
  C   C1        1.0  0.24897  0.58709  0.93408  1.0000
  C   C2        1.0  0.75104  0.41290  0.06592  1.0000
  C   C3        1.0  0.39152  0.72343  0.91951  1.0000
  C   C4        1.0  0.60849  0.27656  0.08048  1.0000
  C   C5        1.0  0.57458  0.73051  0.83331  1.0000
  C   C6        1.0  0.42543  0.26949  0.16669  1.0000
  C   C7        1.0  0.72433  0.84834  0.80907  1.0000
  C   C8        1.0  0.27568  0.15167  0.19093  1.0000
  C   C9        1.0  0.90910  0.84221  0.71259  1.0000
  C   C10       1.0  0.09091  0.15780  0.28742  1.0000
  C   C11       1.0  0.90880  0.78758  0.60478  1.0000
  C   C12       1.0  0.09120  0.21244  0.39522  1.0000
  C   C13       1.0  0.08278  0.79418  0.51325  1.0000
  C   C14       1.0  0.91723  0.20583  0.48675  1.0000
  C   C15       1.0  0.25945  0.85105  0.52943  1.0000
  C   C16       1.0  0.74055  0.14895  0.47057  1.0000
  C   C17       1.0  0.26162  0.90272  0.63734  1.0000
  C   C18       1.0  0.73838  0.09728  0.36266  1.0000
  C   C19       1.0  0.08706  0.90010  0.72748  1.0000
  C   C20       1.0  0.91294  0.09991  0.27252  1.0000
  C   C21       1.0  0.14750  0.21059  0.86256  1.0000
  C   C22       1.0  0.85250  0.78941  0.13744  1.0000
  C   C23       1.0  0.06088  0.30829  0.77175  1.0000
  C   C24       1.0  0.93911  0.69171  0.22825  1.0000
  C   C25       1.0  0.18228  0.39826  0.66391  1.0000
  C   C26       1.0  0.81770  0.60174  0.33609  1.0000
  C   C27       1.0  0.38843  0.38822  0.65134  1.0000
  C   C28       1.0  0.61156  0.61178  0.34865  1.0000
  C   C29       1.0  0.46127  0.28857  0.74819  1.0000
  C   C30       1.0  0.53873  0.71143  0.25180  1.0000
  N   N1        1.0  0.34410  0.20004  0.85095  1.0000
  N   N2        1.0  0.65590  0.79996  0.14905  1.0000
  N   N3        1.0  0.53186  0.47299  0.54898  1.0000
  N   N4        1.0  0.46812  0.52701  0.45102  1.0000
  O   O1        1.0  0.33438  0.82263  0.98883  1.0000
  O   O2        1.0  0.66562  0.17736  0.01117  1.0000
  O   O3        1.0  0.71855  0.96497  0.86385  1.0000
  O   O4        1.0  0.28145  0.03503  0.13614  1.0000
