data_image0
_chemical_formula_structural       Zn2H36C36S2N4O8
_chemical_formula_sum              "Zn2 H36 C36 S2 N4 O8"
_cell_length_a       5.33095
_cell_length_b       10.1852
_cell_length_c       17.2232
_cell_angle_alpha    101.414
_cell_angle_beta     90.0024
_cell_angle_gamma    90.0093

_space_group_name_H-M_alt    "P 1"
_space_group_IT_number       1

loop_
  _space_group_symop_operation_xyz
  'x, y, z'

loop_
  _atom_site_type_symbol
  _atom_site_label
  _atom_site_symmetry_multiplicity
  _atom_site_fract_x
  _atom_site_fract_y
  _atom_site_fract_z
  _atom_site_occupancy
  Zn  Zn1       1.0  0.75134  0.24999  0.75000  1.0000
  Zn  Zn2       1.0  0.24867  0.75001  0.25000  1.0000
  H   H1        1.0  0.77068  0.00259  0.81155  1.0000
  H   H2        1.0  0.77070  0.49744  0.68847  1.0000
  H   H3        1.0  0.22931  0.99741  0.18845  1.0000
  H   H4        1.0  0.22930  0.50257  0.31152  1.0000
  H   H5        1.0  0.52633  0.88805  0.90032  1.0000
  H   H6        1.0  0.52636  0.61199  0.59971  1.0000
  H   H7        1.0  0.47366  0.11195  0.09968  1.0000
  H   H8        1.0  0.47361  0.38801  0.40029  1.0000
  H   H9        1.0  0.03533  0.23431  0.94639  1.0000
  H   H10       1.0  0.03521  0.26570  0.55361  1.0000
  H   H11       1.0  0.96468  0.76569  0.05361  1.0000
  H   H12       1.0  0.96479  0.73429  0.44640  1.0000
  H   H13       1.0  0.30972  0.33698  0.85861  1.0000
  H   H14       1.0  0.30966  0.16299  0.64136  1.0000
  H   H15       1.0  0.69029  0.66302  0.14140  1.0000
  H   H16       1.0  0.69037  0.83700  0.35863  1.0000
  H   H17       1.0  0.17444  0.87720  0.98228  1.0000
  H   H18       1.0  0.17445  0.62283  0.51774  1.0000
  H   H19       1.0  0.82555  0.12281  0.01773  1.0000
  H   H20       1.0  0.82553  0.37718  0.48226  1.0000
  H   H21       1.0  0.20842  0.57689  0.90605  1.0000
  H   H22       1.0  0.20808  0.92306  0.59390  1.0000
  H   H23       1.0  0.79160  0.42311  0.09396  1.0000
  H   H24       1.0  0.79192  0.07693  0.40610  1.0000
  H   H25       1.0  0.95827  0.69559  0.91022  1.0000
  H   H26       1.0  0.95787  0.80440  0.58983  1.0000
  H   H27       1.0  0.04175  0.30441  0.08979  1.0000
  H   H28       1.0  0.04215  0.19560  0.41018  1.0000
  H   H29       1.0  0.27598  0.58003  0.76363  1.0000
  H   H30       1.0  0.27603  0.92001  0.73631  1.0000
  H   H31       1.0  0.72404  0.41996  0.23637  1.0000
  H   H32       1.0  0.72397  0.07999  0.26369  1.0000
  H   H33       1.0  0.34290  0.73521  0.82694  1.0000
  H   H34       1.0  0.34265  0.76477  0.67303  1.0000
  H   H35       1.0  0.65713  0.26479  0.17306  1.0000
  H   H36       1.0  0.65735  0.23523  0.32698  1.0000
  C   C1        1.0  0.60735  0.05091  0.84302  1.0000
  C   C2        1.0  0.60737  0.44911  0.65699  1.0000
  C   C3        1.0  0.39264  0.94909  0.15699  1.0000
  C   C4        1.0  0.39263  0.55089  0.34301  1.0000
  C   C5        1.0  0.46777  0.98700  0.89237  1.0000
  C   C6        1.0  0.46778  0.51302  0.60764  1.0000
  C   C7        1.0  0.53222  0.01300  0.10763  1.0000
  C   C8        1.0  0.53221  0.48697  0.39235  1.0000
  C   C9        1.0  0.25304  0.04890  0.93075  1.0000
  C   C10       1.0  0.25303  0.45112  0.56926  1.0000
  C   C11       1.0  0.74696  0.95110  0.06926  1.0000
  C   C12       1.0  0.74696  0.54888  0.43074  1.0000
  C   C13       1.0  0.19687  0.17847  0.91856  1.0000
  C   C14       1.0  0.19680  0.32153  0.58143  1.0000
  C   C15       1.0  0.80312  0.82154  0.08144  1.0000
  C   C16       1.0  0.80317  0.67846  0.41856  1.0000
  C   C17       1.0  0.34793  0.23743  0.86950  1.0000
  C   C18       1.0  0.34787  0.26257  0.63048  1.0000
  C   C19       1.0  0.65208  0.76258  0.13050  1.0000
  C   C20       1.0  0.65215  0.73742  0.36951  1.0000
  C   C21       1.0  0.10475  0.97699  0.97966  1.0000
  C   C22       1.0  0.10475  0.52302  0.52035  1.0000
  C   C23       1.0  0.89524  0.02302  0.02034  1.0000
  C   C24       1.0  0.89524  0.47698  0.47966  1.0000
  C   C25       1.0  0.87793  0.50020  0.84202  1.0000
  C   C26       1.0  0.87776  0.99982  0.65797  1.0000
  C   C27       1.0  0.12208  0.49980  0.15799  1.0000
  C   C28       1.0  0.12223  0.00017  0.34202  1.0000
  C   C29       1.0  0.06059  0.61473  0.87142  1.0000
  C   C30       1.0  0.06030  0.88528  0.62859  1.0000
  C   C31       1.0  0.93942  0.38528  0.12858  1.0000
  C   C32       1.0  0.93971  0.11471  0.37140  1.0000
  C   C33       1.0  0.19178  0.66508  0.80425  1.0000
  C   C34       1.0  0.19169  0.83496  0.69574  1.0000
  C   C35       1.0  0.80824  0.33493  0.19576  1.0000
  C   C36       1.0  0.80831  0.16504  0.30426  1.0000
  S   S1        1.0  0.97149  0.75006  0.75005  1.0000
  S   S2        1.0  0.02852  0.24994  0.24996  1.0000
  N   N1        1.0  0.54840  0.17412  0.83125  1.0000
  N   N2        1.0  0.54839  0.32588  0.66873  1.0000
  N   N3        1.0  0.45159  0.82588  0.16875  1.0000
  N   N4        1.0  0.45162  0.67412  0.33126  1.0000
  O   O1        1.0  0.97583  0.40195  0.79061  1.0000
  O   O2        1.0  0.97574  0.09805  0.70939  1.0000
  O   O3        1.0  0.02419  0.59805  0.20939  1.0000
  O   O4        1.0  0.02423  0.90195  0.29061  1.0000
  O   O5        1.0  0.65743  0.50347  0.86635  1.0000
  O   O6        1.0  0.65727  0.99657  0.63364  1.0000
  O   O7        1.0  0.34258  0.49653  0.13364  1.0000
  O   O8        1.0  0.34273  0.00343  0.36634  1.0000
