data_image0
_chemical_formula_structural       Zn2H36C28N4O10
_chemical_formula_sum              "Zn2 H36 C28 N4 O10"
_cell_length_a       7.13262
_cell_length_b       10.0422
_cell_length_c       10.8488
_cell_angle_alpha    112.722
_cell_angle_beta     102.851
_cell_angle_gamma    103.403

_space_group_name_H-M_alt    "P 1"
_space_group_IT_number       1

loop_
  _space_group_symop_operation_xyz
  'x, y, z'

loop_
  _atom_site_type_symbol
  _atom_site_label
  _atom_site_symmetry_multiplicity
  _atom_site_fract_x
  _atom_site_fract_y
  _atom_site_fract_z
  _atom_site_occupancy
  Zn  Zn1       1.0  0.39589  0.64619  0.29233  1.0000
  Zn  Zn2       1.0  0.60411  0.35381  0.70767  1.0000
  H   H1        1.0  0.56980  0.71381  0.57169  1.0000
  H   H2        1.0  0.50198  0.85834  0.57153  1.0000
  H   H3        1.0  0.43021  0.28619  0.42831  1.0000
  H   H4        1.0  0.49802  0.14166  0.42847  1.0000
  H   H5        1.0  0.09097  0.08600  0.26027  1.0000
  H   H6        1.0  0.66986  0.17404  0.26027  1.0000
  H   H7        1.0  0.90903  0.91399  0.73974  1.0000
  H   H8        1.0  0.33014  0.82596  0.73973  1.0000
  H   H9        1.0  0.12946  0.18719  0.91534  1.0000
  H   H10       1.0  0.28524  0.72823  0.91518  1.0000
  H   H11       1.0  0.87054  0.81282  0.08467  1.0000
  H   H12       1.0  0.71477  0.27177  0.08482  1.0000
  H   H13       1.0  0.67759  0.44212  0.31311  1.0000
  H   H14       1.0  0.13507  0.87086  0.31316  1.0000
  H   H15       1.0  0.32241  0.55788  0.68689  1.0000
  H   H16       1.0  0.86493  0.12914  0.68684  1.0000
  H   H17       1.0  0.78011  0.60878  0.47931  1.0000
  H   H18       1.0  0.19912  0.87028  0.47934  1.0000
  H   H19       1.0  0.21989  0.39122  0.52069  1.0000
  H   H20       1.0  0.80088  0.12972  0.52065  1.0000
  H   H21       1.0  0.86661  0.85836  0.48570  1.0000
  H   H22       1.0  0.11905  0.62723  0.48571  1.0000
  H   H23       1.0  0.13339  0.14164  0.51430  1.0000
  H   H24       1.0  0.88095  0.37277  0.51429  1.0000
  H   H25       1.0  0.81054  0.87512  0.32650  1.0000
  H   H26       1.0  0.01562  0.45125  0.32657  1.0000
  H   H27       1.0  0.18946  0.12488  0.67350  1.0000
  H   H28       1.0  0.98438  0.54875  0.67343  1.0000
  H   H29       1.0  0.66655  0.64276  0.09978  1.0000
  H   H30       1.0  0.93243  0.45721  0.09962  1.0000
  H   H31       1.0  0.33344  0.35724  0.90022  1.0000
  H   H32       1.0  0.06757  0.54279  0.90038  1.0000
  H   H33       1.0  0.60307  0.46049  0.09561  1.0000
  H   H34       1.0  0.99194  0.63542  0.09577  1.0000
  H   H35       1.0  0.39693  0.53950  0.90439  1.0000
  H   H36       1.0  0.00805  0.36458  0.90423  1.0000
  C   C1        1.0  0.24937  0.31929  0.20294  1.0000
  C   C2        1.0  0.45321  0.88357  0.20285  1.0000
  C   C3        1.0  0.75063  0.68071  0.79706  1.0000
  C   C4        1.0  0.54678  0.11643  0.79714  1.0000
  C   C5        1.0  0.12370  0.15375  0.09828  1.0000
  C   C6        1.0  0.47442  0.94446  0.09824  1.0000
  C   C7        1.0  0.87629  0.84625  0.90173  1.0000
  C   C8        1.0  0.52558  0.05554  0.90176  1.0000
  C   C9        1.0  0.05125  0.04756  0.14602  1.0000
  C   C10       1.0  0.59499  0.09836  0.14601  1.0000
  C   C11       1.0  0.94874  0.95244  0.85398  1.0000
  C   C12       1.0  0.40501  0.90164  0.85399  1.0000
  C   C13       1.0  0.07120  0.10434  0.95138  1.0000
  C   C14       1.0  0.37987  0.84712  0.95132  1.0000
  C   C15       1.0  0.92879  0.89566  0.04862  1.0000
  C   C16       1.0  0.62013  0.15289  0.04867  1.0000
  C   C17       1.0  0.78793  0.56077  0.37197  1.0000
  C   C18       1.0  0.08376  0.81105  0.37202  1.0000
  C   C19       1.0  0.21207  0.43923  0.62803  1.0000
  C   C20       1.0  0.91624  0.18895  0.62798  1.0000
  C   C21       1.0  0.86733  0.80894  0.37633  1.0000
  C   C22       1.0  0.00870  0.56723  0.37631  1.0000
  C   C23       1.0  0.13267  0.19106  0.62367  1.0000
  C   C24       1.0  0.99130  0.43277  0.62369  1.0000
  C   C25       1.0  0.71800  0.57723  0.15217  1.0000
  C   C26       1.0  0.93354  0.57506  0.15218  1.0000
  C   C27       1.0  0.28200  0.42277  0.84783  1.0000
  C   C28       1.0  0.06646  0.42494  0.84782  1.0000
  N   N1        1.0  0.71718  0.64863  0.29999  1.0000
  N   N2        1.0  0.08232  0.65125  0.30000  1.0000
  N   N3        1.0  0.28282  0.35137  0.70001  1.0000
  N   N4        1.0  0.91768  0.34875  0.70000  1.0000
  O   O1        1.0  0.32640  0.35880  0.33393  1.0000
  O   O2        1.0  0.50834  0.97495  0.33393  1.0000
  O   O3        1.0  0.67361  0.64120  0.66607  1.0000
  O   O4        1.0  0.49165  0.02504  0.66607  1.0000
  O   O5        1.0  0.26701  0.41594  0.15175  1.0000
  O   O6        1.0  0.38298  0.73576  0.15158  1.0000
  O   O7        1.0  0.73299  0.58406  0.84825  1.0000
  O   O8        1.0  0.61702  0.26423  0.84841  1.0000
  O   O9        1.0  0.50549  0.75527  0.50953  1.0000
  O   O10       1.0  0.49452  0.24473  0.49047  1.0000
