data_image0
_chemical_formula_structural       Co6H54C48Br6N6O30
_chemical_formula_sum              "Co6 H54 C48 Br6 N6 O30"
_cell_length_a       7.5413
_cell_length_b       16.0196
_cell_length_c       16.0458
_cell_angle_alpha    120.054
_cell_angle_beta     90
_cell_angle_gamma    90

_space_group_name_H-M_alt    "P 1"
_space_group_IT_number       1

loop_
  _space_group_symop_operation_xyz
  'x, y, z'

loop_
  _atom_site_type_symbol
  _atom_site_label
  _atom_site_symmetry_multiplicity
  _atom_site_fract_x
  _atom_site_fract_y
  _atom_site_fract_z
  _atom_site_occupancy
  Co  Co1       1.0  0.10330  0.22586  0.09666  1.0000
  Co  Co2       1.0  0.10384  0.90257  0.12908  1.0000
  Co  Co3       1.0  0.10405  0.87053  0.77333  1.0000
  Co  Co4       1.0  0.89679  0.77410  0.90346  1.0000
  Co  Co5       1.0  0.89610  0.09742  0.87081  1.0000
  Co  Co6       1.0  0.89599  0.12940  0.22655  1.0000
  H   H1        1.0  0.09769  0.46170  0.12396  1.0000
  H   H2        1.0  0.09831  0.87583  0.33757  1.0000
  H   H3        1.0  0.09752  0.66244  0.53887  1.0000
  H   H4        1.0  0.90155  0.53838  0.87612  1.0000
  H   H5        1.0  0.90221  0.12423  0.66229  1.0000
  H   H6        1.0  0.90078  0.33716  0.46129  1.0000
  H   H7        1.0  0.60966  0.14362  0.10444  1.0000
  H   H8        1.0  0.61015  0.89495  0.03883  1.0000
  H   H9        1.0  0.60991  0.96101  0.85618  1.0000
  H   H10       1.0  0.38994  0.85749  0.89590  1.0000
  H   H11       1.0  0.38955  0.10481  0.96136  1.0000
  H   H12       1.0  0.39017  0.03892  0.14392  1.0000
  H   H13       1.0  0.45319  0.29613  0.19590  1.0000
  H   H14       1.0  0.45340  0.80441  0.10023  1.0000
  H   H15       1.0  0.45374  0.89990  0.70393  1.0000
  H   H16       1.0  0.54698  0.70412  0.80469  1.0000
  H   H17       1.0  0.54626  0.19553  0.89958  1.0000
  H   H18       1.0  0.54724  0.10033  0.29604  1.0000
  H   H19       1.0  0.66982  0.38481  0.27972  1.0000
  H   H20       1.0  0.66899  0.72020  0.10465  1.0000
  H   H21       1.0  0.66999  0.89522  0.61542  1.0000
  H   H22       1.0  0.33144  0.61537  0.72043  1.0000
  H   H23       1.0  0.33113  0.27991  0.89508  1.0000
  H   H24       1.0  0.33147  0.10466  0.38442  1.0000
  H   H25       1.0  0.66102  0.50559  0.30045  1.0000
  H   H26       1.0  0.66012  0.69938  0.20444  1.0000
  H   H27       1.0  0.66112  0.79514  0.49474  1.0000
  H   H28       1.0  0.33997  0.49455  0.69959  1.0000
  H   H29       1.0  0.34002  0.30061  0.79522  1.0000
  H   H30       1.0  0.34026  0.20463  0.50516  1.0000
  H   H31       1.0  0.81976  0.42061  0.21778  1.0000
  H   H32       1.0  0.81942  0.78192  0.20230  1.0000
  H   H33       1.0  0.82003  0.79730  0.57944  1.0000
  H   H34       1.0  0.18074  0.57945  0.78199  1.0000
  H   H35       1.0  0.18060  0.21817  0.79747  1.0000
  H   H36       1.0  0.18089  0.20240  0.42060  1.0000
  H   H37       1.0  0.46198  0.41267  0.05397  1.0000
  H   H38       1.0  0.46199  0.94619  0.35897  1.0000
  H   H39       1.0  0.46234  0.64094  0.58703  1.0000
  H   H40       1.0  0.53764  0.58682  0.94614  1.0000
  H   H41       1.0  0.53790  0.05381  0.64068  1.0000
  H   H42       1.0  0.53746  0.35934  0.41305  1.0000
  H   H43       1.0  0.68785  0.44982  0.08756  1.0000
  H   H44       1.0  0.68801  0.91259  0.36210  1.0000
  H   H45       1.0  0.68825  0.63754  0.55004  1.0000
  H   H46       1.0  0.31163  0.55013  0.91243  1.0000
  H   H47       1.0  0.31202  0.08763  0.63763  1.0000
  H   H48       1.0  0.31156  0.36234  0.44986  1.0000
  H   H49       1.0  0.50983  0.52390  0.16104  1.0000
  H   H50       1.0  0.51036  0.83879  0.36237  1.0000
  H   H51       1.0  0.51027  0.63710  0.47613  1.0000
  H   H52       1.0  0.48934  0.47587  0.83886  1.0000
  H   H53       1.0  0.48988  0.16134  0.63744  1.0000
  H   H54       1.0  0.48958  0.36305  0.52389  1.0000
  C   C1        1.0  0.96994  0.40638  0.98764  1.0000
  C   C2        1.0  0.97009  0.01232  0.41879  1.0000
  C   C3        1.0  0.96930  0.58098  0.59370  1.0000
  C   C4        1.0  0.02965  0.59368  0.01239  1.0000
  C   C5        1.0  0.03038  0.98769  0.58110  1.0000
  C   C6        1.0  0.02927  0.41865  0.40647  1.0000
  C   C7        1.0  0.05558  0.47938  0.06968  1.0000
  C   C8        1.0  0.05606  0.93023  0.40955  1.0000
  C   C9        1.0  0.05516  0.59036  0.52105  1.0000
  C   C10       1.0  0.94387  0.52068  0.93035  1.0000
  C   C11       1.0  0.94450  0.06980  0.59033  1.0000
  C   C12       1.0  0.94327  0.40923  0.47910  1.0000
  C   C13       1.0  0.91462  0.42927  0.91767  1.0000
  C   C14       1.0  0.91496  0.08242  0.51173  1.0000
  C   C15       1.0  0.91395  0.48789  0.57049  1.0000
  C   C16       1.0  0.08484  0.57078  0.08237  1.0000
  C   C17       1.0  0.08561  0.91762  0.48815  1.0000
  C   C18       1.0  0.08457  0.51172  0.42969  1.0000
  C   C19       1.0  0.94704  0.31096  0.98375  1.0000
  C   C20       1.0  0.94763  0.01659  0.32751  1.0000
  C   C21       1.0  0.94718  0.67232  0.68949  1.0000
  C   C22       1.0  0.05286  0.68911  0.01632  1.0000
  C   C23       1.0  0.05251  0.98333  0.67236  1.0000
  C   C24       1.0  0.05214  0.32742  0.31066  1.0000
  C   C25       1.0  0.73116  0.14610  0.06725  1.0000
  C   C26       1.0  0.73124  0.93227  0.07897  1.0000
  C   C27       1.0  0.73149  0.92129  0.85356  1.0000
  C   C28       1.0  0.26873  0.85430  0.93288  1.0000
  C   C29       1.0  0.26858  0.06759  0.92098  1.0000
  C   C30       1.0  0.26871  0.07873  0.14650  1.0000
  C   C31       1.0  0.44311  0.32675  0.14807  1.0000
  C   C32       1.0  0.44321  0.85223  0.17872  1.0000
  C   C33       1.0  0.44356  0.82130  0.67320  1.0000
  C   C34       1.0  0.55705  0.67335  0.85240  1.0000
  C   C35       1.0  0.55671  0.14779  0.82108  1.0000
  C   C36       1.0  0.55707  0.17893  0.32677  1.0000
  C   C37       1.0  0.68432  0.42950  0.24607  1.0000
  C   C38       1.0  0.68384  0.75380  0.18293  1.0000
  C   C39       1.0  0.68456  0.81678  0.57067  1.0000
  C   C40       1.0  0.31638  0.57062  0.75398  1.0000
  C   C41       1.0  0.31623  0.24624  0.81680  1.0000
  C   C42       1.0  0.31652  0.18307  0.42928  1.0000
  C   C43       1.0  0.55445  0.44905  0.11430  1.0000
  C   C44       1.0  0.55458  0.88579  0.33461  1.0000
  C   C45       1.0  0.55481  0.66508  0.55084  1.0000
  C   C46       1.0  0.44517  0.55078  0.88575  1.0000
  C   C47       1.0  0.44550  0.11431  0.66514  1.0000
  C   C48       1.0  0.44516  0.33502  0.44915  1.0000
  Br  Br1       1.0  0.79714  0.33979  0.80123  1.0000
  Br  Br2       1.0  0.79763  0.19908  0.53896  1.0000
  Br  Br3       1.0  0.79647  0.46076  0.65975  1.0000
  Br  Br4       1.0  0.20196  0.66026  0.19901  1.0000
  Br  Br5       1.0  0.20298  0.80095  0.46092  1.0000
  Br  Br6       1.0  0.20236  0.53894  0.34058  1.0000
  N   N1        1.0  0.55678  0.39815  0.16797  1.0000
  N   N2        1.0  0.55676  0.83223  0.23004  1.0000
  N   N3        1.0  0.55714  0.76982  0.60186  1.0000
  N   N4        1.0  0.44338  0.60190  0.83230  1.0000
  N   N5        1.0  0.44325  0.16779  0.76972  1.0000
  N   N6        1.0  0.44343  0.23028  0.39811  1.0000
  O   O1        1.0  0.95932  0.31293  0.06378  1.0000
  O   O2        1.0  0.96097  0.93651  0.24933  1.0000
  O   O3        1.0  0.96032  0.75066  0.68780  1.0000
  O   O4        1.0  0.04069  0.68710  0.93626  1.0000
  O   O5        1.0  0.03898  0.06339  0.75055  1.0000
  O   O6        1.0  0.03991  0.24902  0.31227  1.0000
  O   O7        1.0  0.33214  0.29480  0.08034  1.0000
  O   O8        1.0  0.33216  0.92003  0.21470  1.0000
  O   O9        1.0  0.33255  0.78533  0.70494  1.0000
  O   O10       1.0  0.66799  0.70522  0.92014  1.0000
  O   O11       1.0  0.66792  0.08007  0.78516  1.0000
  O   O12       1.0  0.66783  0.21498  0.29499  1.0000
  O   O13       1.0  0.87720  0.16105  0.11442  1.0000
  O   O14       1.0  0.87730  0.88489  0.04712  1.0000
  O   O15       1.0  0.87745  0.95372  0.83860  1.0000
  O   O16       1.0  0.12271  0.83903  0.88563  1.0000
  O   O17       1.0  0.12257  0.11504  0.95283  1.0000
  O   O18       1.0  0.12251  0.04625  0.16116  1.0000
  O   O19       1.0  0.91999  0.23659  0.90234  1.0000
  O   O20       1.0  0.92022  0.09806  0.33491  1.0000
  O   O21       1.0  0.92051  0.66486  0.76343  1.0000
  O   O22       1.0  0.08022  0.76344  0.09773  1.0000
  O   O23       1.0  0.07982  0.90183  0.66493  1.0000
  O   O24       1.0  0.07876  0.33497  0.23678  1.0000
  O   O25       1.0  0.71518  0.13407  0.98402  1.0000
  O   O26       1.0  0.71495  0.01571  0.15008  1.0000
  O   O27       1.0  0.71600  0.84997  0.86553  1.0000
  O   O28       1.0  0.28495  0.86599  0.01597  1.0000
  O   O29       1.0  0.28503  0.98426  0.84973  1.0000
  O   O30       1.0  0.28448  0.15017  0.13475  1.0000
