data_image0
_chemical_formula_structural       Ag2H34C48N4O8
_chemical_formula_sum              "Ag2 H34 C48 N4 O8"
_cell_length_a       8.11507
_cell_length_b       10.2929
_cell_length_c       12.1156
_cell_angle_alpha    90.3147
_cell_angle_beta     86.9544
_cell_angle_gamma    71.2331

_space_group_name_H-M_alt    "P 1"
_space_group_IT_number       1

loop_
  _space_group_symop_operation_xyz
  'x, y, z'

loop_
  _atom_site_type_symbol
  _atom_site_label
  _atom_site_symmetry_multiplicity
  _atom_site_fract_x
  _atom_site_fract_y
  _atom_site_fract_z
  _atom_site_occupancy
  Ag  Ag1       1.0  1.00000  1.00000  0.50000  1.0000
  Ag  Ag2       1.0  0.00000  1.00000  1.00000  1.0000
  H   H1        1.0  0.07748  0.02186  0.74365  1.0000
  H   H2        1.0  0.92251  0.97814  0.25635  1.0000
  H   H3        1.0  0.57611  0.42973  0.80617  1.0000
  H   H4        1.0  0.42389  0.57027  0.19383  1.0000
  H   H5        1.0  0.44300  0.64661  0.71060  1.0000
  H   H6        1.0  0.55700  0.35340  0.28941  1.0000
  H   H7        1.0  0.83528  0.50844  0.44333  1.0000
  H   H8        1.0  0.16472  0.49156  0.55667  1.0000
  H   H9        1.0  0.97210  0.29632  0.54304  1.0000
  H   H10       1.0  0.02789  0.70367  0.45696  1.0000
  H   H11       1.0  0.28881  0.75597  0.58541  1.0000
  H   H12       1.0  0.71119  0.24402  0.41459  1.0000
  H   H13       1.0  0.77677  0.72384  0.40828  1.0000
  H   H14       1.0  0.22323  0.27616  0.59172  1.0000
  H   H15       1.0  0.62025  0.93026  0.30760  1.0000
  H   H16       1.0  0.37975  0.06974  0.69240  1.0000
  H   H17       1.0  0.29696  0.04517  0.35268  1.0000
  H   H18       1.0  0.70304  0.95483  0.64732  1.0000
  H   H19       1.0  0.99298  0.59646  0.69573  1.0000
  H   H20       1.0  0.00703  0.40354  0.30427  1.0000
  H   H21       1.0  0.08221  0.37284  0.78801  1.0000
  H   H22       1.0  0.91779  0.62716  0.21199  1.0000
  H   H23       1.0  0.31947  0.54579  0.03626  1.0000
  H   H24       1.0  0.68053  0.45421  0.96374  1.0000
  H   H25       1.0  0.24623  0.76173  0.93596  1.0000
  H   H26       1.0  0.75377  0.23827  0.06404  1.0000
  H   H27       1.0  0.05420  0.24293  0.90786  1.0000
  H   H28       1.0  0.94580  0.75707  0.09214  1.0000
  H   H29       1.0  0.46290  0.33821  0.07049  1.0000
  H   H30       1.0  0.53710  0.66179  0.92951  1.0000
  H   H31       1.0  0.51873  0.11868  0.16879  1.0000
  H   H32       1.0  0.48127  0.88132  0.83121  1.0000
  H   H33       1.0  0.33008  0.96976  0.13257  1.0000
  H   H34       1.0  0.66993  0.03024  0.86743  1.0000
  C   C1        1.0  0.86969  0.22220  0.74617  1.0000
  C   C2        1.0  0.13031  0.77780  0.25383  1.0000
  C   C3        1.0  0.78709  0.35089  0.68375  1.0000
  C   C4        1.0  0.21291  0.64911  0.31625  1.0000
  C   C5        1.0  0.63485  0.44978  0.72782  1.0000
  C   C6        1.0  0.36515  0.55022  0.27218  1.0000
  C   C7        1.0  0.55876  0.57058  0.67249  1.0000
  C   C8        1.0  0.44124  0.42942  0.32751  1.0000
  C   C9        1.0  0.62975  0.59555  0.56938  1.0000
  C   C10       1.0  0.37025  0.40444  0.43062  1.0000
  C   C11       1.0  0.78045  0.49460  0.52460  1.0000
  C   C12       1.0  0.21955  0.50540  0.47540  1.0000
  C   C13       1.0  0.85825  0.37486  0.58083  1.0000
  C   C14       1.0  0.14175  0.62514  0.41917  1.0000
  C   C15       1.0  0.36819  0.79271  0.52633  1.0000
  C   C16       1.0  0.63181  0.20729  0.47367  1.0000
  C   C17       1.0  0.54654  0.72095  0.50775  1.0000
  C   C18       1.0  0.45346  0.27905  0.49225  1.0000
  C   C19       1.0  0.63754  0.77240  0.42658  1.0000
  C   C20       1.0  0.36246  0.22760  0.57342  1.0000
  C   C21       1.0  0.54984  0.88900  0.36966  1.0000
  C   C22       1.0  0.45016  0.11100  0.63034  1.0000
  C   C23       1.0  0.37271  0.95366  0.39442  1.0000
  C   C24       1.0  0.62729  0.04634  0.60558  1.0000
  C   C25       1.0  0.06969  0.82286  0.74570  1.0000
  C   C26       1.0  0.93031  0.17714  0.25430  1.0000
  C   C27       1.0  0.12069  0.69135  0.80655  1.0000
  C   C28       1.0  0.87932  0.30865  0.19345  1.0000
  C   C29       1.0  0.07048  0.58182  0.76821  1.0000
  C   C30       1.0  0.92953  0.41818  0.23179  1.0000
  C   C31       1.0  0.11778  0.45758  0.82209  1.0000
  C   C32       1.0  0.88223  0.54242  0.17791  1.0000
  C   C33       1.0  0.21098  0.44033  0.91872  1.0000
  C   C34       1.0  0.78902  0.55967  0.08128  1.0000
  C   C35       1.0  0.25587  0.55229  0.95862  1.0000
  C   C36       1.0  0.74413  0.44772  0.04138  1.0000
  C   C37       1.0  0.21328  0.67527  0.90265  1.0000
  C   C38       1.0  0.78672  0.32474  0.09735  1.0000
  C   C39       1.0  0.16039  0.21967  0.96332  1.0000
  C   C40       1.0  0.83961  0.78033  0.03668  1.0000
  C   C41       1.0  0.25433  0.31035  0.97866  1.0000
  C   C42       1.0  0.74567  0.68966  0.02134  1.0000
  C   C43       1.0  0.38474  0.27237  0.05508  1.0000
  C   C44       1.0  0.61526  0.72763  0.94492  1.0000
  C   C45       1.0  0.41563  0.14969  0.11081  1.0000
  C   C46       1.0  0.58437  0.85031  0.88919  1.0000
  C   C47       1.0  0.31460  0.06626  0.09082  1.0000
  C   C48       1.0  0.68540  0.93374  0.90918  1.0000
  N   N1        1.0  0.28319  0.90567  0.47203  1.0000
  N   N2        1.0  0.71681  0.09432  0.52797  1.0000
  N   N3        1.0  0.18859  0.10198  0.01795  1.0000
  N   N4        1.0  0.81141  0.89802  0.98205  1.0000
  O   O1        1.0  0.02029  0.14426  0.70371  1.0000
  O   O2        1.0  0.97971  0.85574  0.29629  1.0000
  O   O3        1.0  0.79518  0.19866  0.83341  1.0000
  O   O4        1.0  0.20482  0.80134  0.16659  1.0000
  O   O5        1.0  0.96991  0.83887  0.66854  1.0000
  O   O6        1.0  0.03009  0.16112  0.33146  1.0000
  O   O7        1.0  0.13882  0.91457  0.77919  1.0000
  O   O8        1.0  0.86118  0.08543  0.22080  1.0000
