data_image0
_chemical_formula_structural       Cd2P4H20C8N12O16
_chemical_formula_sum              "Cd2 P4 H20 C8 N12 O16"
_cell_length_a       8.93488
_cell_length_b       9.23586
_cell_length_c       9.64149
_cell_angle_alpha    117.613
_cell_angle_beta     90
_cell_angle_gamma    90

_space_group_name_H-M_alt    "P 1"
_space_group_IT_number       1

loop_
  _space_group_symop_operation_xyz
  'x, y, z'

loop_
  _atom_site_type_symbol
  _atom_site_label
  _atom_site_symmetry_multiplicity
  _atom_site_fract_x
  _atom_site_fract_y
  _atom_site_fract_z
  _atom_site_occupancy
  Cd  Cd1       1.0  1.00000  1.00000  0.50000  1.0000
  Cd  Cd2       1.0  0.50000  0.00000  0.00000  1.0000
  P   P1        1.0  0.81057  0.58714  0.33903  1.0000
  P   P2        1.0  0.31057  0.41286  0.16097  1.0000
  P   P3        1.0  0.18943  0.41286  0.66097  1.0000
  P   P4        1.0  0.68943  0.58714  0.83903  1.0000
  H   H1        1.0  0.74869  0.58707  0.56531  1.0000
  H   H2        1.0  0.24869  0.41293  0.93469  1.0000
  H   H3        1.0  0.25131  0.41293  0.43469  1.0000
  H   H4        1.0  0.75131  0.58707  0.06531  1.0000
  H   H5        1.0  0.02370  0.44868  0.30192  1.0000
  H   H6        1.0  0.52370  0.55132  0.19809  1.0000
  H   H7        1.0  0.97630  0.55132  0.69808  1.0000
  H   H8        1.0  0.47630  0.44868  0.80192  1.0000
  H   H9        1.0  0.76421  0.33526  0.55948  1.0000
  H   H10       1.0  0.26421  0.66474  0.94052  1.0000
  H   H11       1.0  0.23579  0.66474  0.44052  1.0000
  H   H12       1.0  0.73579  0.33526  0.05948  1.0000
  H   H13       1.0  0.55339  0.32853  0.37253  1.0000
  H   H14       1.0  0.05339  0.67147  0.12746  1.0000
  H   H15       1.0  0.44661  0.67148  0.62746  1.0000
  H   H16       1.0  0.94661  0.32853  0.87254  1.0000
  H   H17       1.0  0.76941  0.87199  0.18367  1.0000
  H   H18       1.0  0.26941  0.12801  0.31633  1.0000
  H   H19       1.0  0.23059  0.12801  0.81633  1.0000
  H   H20       1.0  0.73059  0.87199  0.68367  1.0000
  C   C1        1.0  0.62635  0.22807  0.35556  1.0000
  C   C2        1.0  0.12635  0.77193  0.14443  1.0000
  C   C3        1.0  0.37365  0.77193  0.64443  1.0000
  C   C4        1.0  0.87365  0.22807  0.85556  1.0000
  C   C5        1.0  0.73723  0.99705  0.26153  1.0000
  C   C6        1.0  0.23723  0.00295  0.23847  1.0000
  C   C7        1.0  0.26277  0.00294  0.73847  1.0000
  C   C8        1.0  0.76277  0.99705  0.76153  1.0000
  N   N1        1.0  0.73080  0.23306  0.45662  1.0000
  N   N2        1.0  0.23080  0.76694  0.04338  1.0000
  N   N3        1.0  0.26920  0.76694  0.54338  1.0000
  N   N4        1.0  0.76920  0.23306  0.95662  1.0000
  N   N5        1.0  0.80261  0.08762  0.39851  1.0000
  N   N6        1.0  0.30261  0.91238  0.10149  1.0000
  N   N7        1.0  0.19739  0.91238  0.60149  1.0000
  N   N8        1.0  0.69739  0.08762  0.89851  1.0000
  N   N9        1.0  0.62753  0.07976  0.23084  1.0000
  N   N10       1.0  0.12753  0.92025  0.26916  1.0000
  N   N11       1.0  0.37247  0.92025  0.76916  1.0000
  N   N12       1.0  0.87247  0.07976  0.73084  1.0000
  O   O1        1.0  0.70423  0.61110  0.48062  1.0000
  O   O2        1.0  0.20423  0.38890  0.01938  1.0000
  O   O3        1.0  0.29577  0.38890  0.51938  1.0000
  O   O4        1.0  0.79577  0.61110  0.98063  1.0000
  O   O5        1.0  0.91185  0.43351  0.30782  1.0000
  O   O6        1.0  0.41185  0.56648  0.19218  1.0000
  O   O7        1.0  0.08815  0.56648  0.69218  1.0000
  O   O8        1.0  0.58814  0.43351  0.80782  1.0000
  O   O9        1.0  0.70427  0.53584  0.19694  1.0000
  O   O10       1.0  0.20427  0.46416  0.30306  1.0000
  O   O11       1.0  0.29573  0.46416  0.80306  1.0000
  O   O12       1.0  0.79573  0.53584  0.69694  1.0000
  O   O13       1.0  0.90407  0.73507  0.37234  1.0000
  O   O14       1.0  0.40407  0.26493  0.12766  1.0000
  O   O15       1.0  0.09593  0.26493  0.62766  1.0000
  O   O16       1.0  0.59593  0.73507  0.87234  1.0000
