data_image0
_chemical_formula_structural       Cu4H32C24N8Cl4
_chemical_formula_sum              "Cu4 H32 C24 N8 Cl4"
_cell_length_a       6.54719
_cell_length_b       9.02667
_cell_length_c       12.4641
_cell_angle_alpha    90.0011
_cell_angle_beta     89.9995
_cell_angle_gamma    89.9992

_space_group_name_H-M_alt    "P 1"
_space_group_IT_number       1

loop_
  _space_group_symop_operation_xyz
  'x, y, z'

loop_
  _atom_site_type_symbol
  _atom_site_label
  _atom_site_symmetry_multiplicity
  _atom_site_fract_x
  _atom_site_fract_y
  _atom_site_fract_z
  _atom_site_occupancy
  Cu  Cu1       1.0  0.62821  0.60344  0.50209  1.0000
  Cu  Cu2       1.0  0.87181  0.39657  0.00208  1.0000
  Cu  Cu3       1.0  0.37180  0.10344  0.99792  1.0000
  Cu  Cu4       1.0  0.12819  0.89655  0.49792  1.0000
  H   H1        1.0  0.55247  0.31640  0.85099  1.0000
  H   H2        1.0  0.94753  0.68364  0.35099  1.0000
  H   H3        1.0  0.44753  0.81638  0.64900  1.0000
  H   H4        1.0  0.05249  0.18362  0.14902  1.0000
  H   H5        1.0  0.07099  0.58045  0.83072  1.0000
  H   H6        1.0  0.42907  0.41951  0.33074  1.0000
  H   H7        1.0  0.92902  0.08048  0.66927  1.0000
  H   H8        1.0  0.57097  0.91949  0.16926  1.0000
  H   H9        1.0  0.97167  0.65485  0.64288  1.0000
  H   H10       1.0  0.52837  0.34512  0.14288  1.0000
  H   H11       1.0  0.02834  0.15488  0.85712  1.0000
  H   H12       1.0  0.47164  0.84509  0.35711  1.0000
  H   H13       1.0  0.32989  0.42214  0.59986  1.0000
  H   H14       1.0  0.17009  0.57790  0.09985  1.0000
  H   H15       1.0  0.67011  0.92213  0.90013  1.0000
  H   H16       1.0  0.82991  0.07786  0.40013  1.0000
  H   H17       1.0  0.33233  0.28902  0.70492  1.0000
  H   H18       1.0  0.16765  0.71103  0.20491  1.0000
  H   H19       1.0  0.66764  0.78900  0.79508  1.0000
  H   H20       1.0  0.83236  0.21099  0.29508  1.0000
  H   H21       1.0  0.39067  0.15948  0.52954  1.0000
  H   H22       1.0  0.10929  0.84055  0.02953  1.0000
  H   H23       1.0  0.60930  0.65949  0.97046  1.0000
  H   H24       1.0  0.89067  0.34053  0.47047  1.0000
  H   H25       1.0  0.61865  0.15040  0.60468  1.0000
  H   H26       1.0  0.88132  0.84960  0.10465  1.0000
  H   H27       1.0  0.38130  0.65043  0.89534  1.0000
  H   H28       1.0  0.11866  0.34957  0.39537  1.0000
  H   H29       1.0  0.59488  0.28150  0.49923  1.0000
  H   H30       1.0  0.90510  0.71849  0.99921  1.0000
  H   H31       1.0  0.40512  0.78154  0.00078  1.0000
  H   H32       1.0  0.09484  0.21847  0.50080  1.0000
  C   C1        1.0  0.59737  0.42306  0.69750  1.0000
  C   C2        1.0  0.90263  0.57696  0.19748  1.0000
  C   C3        1.0  0.40262  0.92305  0.80250  1.0000
  C   C4        1.0  0.09741  0.07694  0.30251  1.0000
  C   C5        1.0  0.64812  0.39030  0.80342  1.0000
  C   C6        1.0  0.85186  0.60972  0.30341  1.0000
  C   C7        1.0  0.35185  0.89029  0.69658  1.0000
  C   C8        1.0  0.14817  0.10971  0.19660  1.0000
  C   C9        1.0  0.93230  0.53861  0.79308  1.0000
  C   C10       1.0  0.56775  0.46137  0.29309  1.0000
  C   C11       1.0  0.06770  0.03863  0.70691  1.0000
  C   C12       1.0  0.43231  0.96135  0.20692  1.0000
  C   C13       1.0  0.87925  0.57766  0.68940  1.0000
  C   C14       1.0  0.62079  0.42233  0.18941  1.0000
  C   C15       1.0  0.12076  0.07768  0.81059  1.0000
  C   C16       1.0  0.37925  0.92231  0.31059  1.0000
  C   C17       1.0  0.42674  0.34252  0.64327  1.0000
  C   C18       1.0  0.07325  0.65750  0.14326  1.0000
  C   C19       1.0  0.57324  0.84252  0.85672  1.0000
  C   C20       1.0  0.92676  0.15747  0.35673  1.0000
  C   C21       1.0  0.51250  0.22688  0.56487  1.0000
  C   C22       1.0  0.98747  0.77314  0.06485  1.0000
  C   C23       1.0  0.48748  0.72690  0.93515  1.0000
  C   C24       1.0  0.01249  0.27311  0.43516  1.0000
  N   N1        1.0  0.70955  0.52320  0.64065  1.0000
  N   N2        1.0  0.79046  0.47681  0.14065  1.0000
  N   N3        1.0  0.29044  0.02321  0.85935  1.0000
  N   N4        1.0  0.20957  0.97679  0.35935  1.0000
  N   N5        1.0  0.81361  0.44756  0.85277  1.0000
  N   N6        1.0  0.68640  0.55244  0.35277  1.0000
  N   N7        1.0  0.18638  0.94756  0.64723  1.0000
  N   N8        1.0  0.31363  0.05243  0.14723  1.0000
  Cl  Cl1       1.0  0.76886  0.85292  0.51401  1.0000
  Cl  Cl2       1.0  0.73113  0.14710  0.01401  1.0000
  Cl  Cl3       1.0  0.23114  0.35292  0.98600  1.0000
  Cl  Cl4       1.0  0.26885  0.64707  0.48598  1.0000
