data_image0
_chemical_formula_structural       Cu8H32C24N8Cl8
_chemical_formula_sum              "Cu8 H32 C24 N8 Cl8"
_cell_length_a       3.68551
_cell_length_b       8.19206
_cell_length_c       28.4593
_cell_angle_alpha    90.0006
_cell_angle_beta     92.0489
_cell_angle_gamma    90.0014

_space_group_name_H-M_alt    "P 1"
_space_group_IT_number       1

loop_
  _space_group_symop_operation_xyz
  'x, y, z'

loop_
  _atom_site_type_symbol
  _atom_site_label
  _atom_site_symmetry_multiplicity
  _atom_site_fract_x
  _atom_site_fract_y
  _atom_site_fract_z
  _atom_site_occupancy
  Cu  Cu1       1.0  0.32502  0.59737  0.13210  1.0000
  Cu  Cu2       1.0  0.32504  0.90264  0.63210  1.0000
  Cu  Cu3       1.0  0.67501  0.40263  0.86790  1.0000
  Cu  Cu4       1.0  0.67493  0.09737  0.36790  1.0000
  Cu  Cu5       1.0  0.00785  0.82160  0.07195  1.0000
  Cu  Cu6       1.0  0.00784  0.67839  0.57196  1.0000
  Cu  Cu7       1.0  0.99217  0.17840  0.92805  1.0000
  Cu  Cu8       1.0  0.99213  0.32162  0.42805  1.0000
  H   H1        1.0  0.30623  0.98551  0.15564  1.0000
  H   H2        1.0  0.30623  0.51447  0.65565  1.0000
  H   H3        1.0  0.69378  0.01448  0.84436  1.0000
  H   H4        1.0  0.69376  0.48551  0.34435  1.0000
  H   H5        1.0  0.87566  0.14386  0.02625  1.0000
  H   H6        1.0  0.87565  0.35615  0.52625  1.0000
  H   H7        1.0  0.12437  0.85614  0.97375  1.0000
  H   H8        1.0  0.12430  0.64387  0.47374  1.0000
  H   H9        1.0  0.03311  0.43083  0.04748  1.0000
  H   H10       1.0  0.03316  0.06919  0.54748  1.0000
  H   H11       1.0  0.96690  0.56918  0.95252  1.0000
  H   H12       1.0  0.96682  0.93083  0.45252  1.0000
  H   H13       1.0  0.29087  0.37102  0.20971  1.0000
  H   H14       1.0  0.29088  0.12894  0.70972  1.0000
  H   H15       1.0  0.70915  0.62895  0.79029  1.0000
  H   H16       1.0  0.70910  0.87103  0.29029  1.0000
  H   H17       1.0  0.71900  0.37160  0.18598  1.0000
  H   H18       1.0  0.71911  0.12837  0.68598  1.0000
  H   H19       1.0  0.28094  0.62839  0.81402  1.0000
  H   H20       1.0  0.28097  0.87160  0.31402  1.0000
  H   H21       1.0  0.73500  0.19446  0.25618  1.0000
  H   H22       1.0  0.73507  0.30555  0.75618  1.0000
  H   H23       1.0  0.26501  0.80554  0.74382  1.0000
  H   H24       1.0  0.26495  0.69446  0.24381  1.0000
  H   H25       1.0  0.77225  0.06267  0.20682  1.0000
  H   H26       1.0  0.77227  0.43729  0.70682  1.0000
  H   H27       1.0  0.22777  0.93731  0.79318  1.0000
  H   H28       1.0  0.22771  0.56267  0.29318  1.0000
  H   H29       1.0  0.35447  0.08134  0.23541  1.0000
  H   H30       1.0  0.35462  0.41862  0.73541  1.0000
  H   H31       1.0  0.64549  0.91864  0.76460  1.0000
  H   H32       1.0  0.64548  0.58135  0.26459  1.0000
  C   C1        1.0  0.32209  0.24659  0.14485  1.0000
  C   C2        1.0  0.32208  0.25343  0.64485  1.0000
  C   C3        1.0  0.67792  0.75342  0.85516  1.0000
  C   C4        1.0  0.67786  0.74660  0.35514  1.0000
  C   C5        1.0  0.24249  0.08652  0.13199  1.0000
  C   C6        1.0  0.24250  0.41348  0.63200  1.0000
  C   C7        1.0  0.75752  0.91348  0.86801  1.0000
  C   C8        1.0  0.75749  0.58652  0.36801  1.0000
  C   C9        1.0  0.00832  0.17171  0.06009  1.0000
  C   C10       1.0  0.00836  0.32829  0.56010  1.0000
  C   C11       1.0  0.99167  0.82830  0.93991  1.0000
  C   C12       1.0  0.99162  0.67171  0.43990  1.0000
  C   C13       1.0  0.09247  0.33149  0.07197  1.0000
  C   C14       1.0  0.09250  0.16850  0.57197  1.0000
  C   C15       1.0  0.90756  0.66850  0.92803  1.0000
  C   C16       1.0  0.90747  0.83150  0.42803  1.0000
  C   C17       1.0  0.48545  0.29126  0.19211  1.0000
  C   C18       1.0  0.48548  0.20878  0.69211  1.0000
  C   C19       1.0  0.51455  0.70876  0.80789  1.0000
  C   C20       1.0  0.51451  0.79126  0.30788  1.0000
  C   C21       1.0  0.59312  0.14919  0.22423  1.0000
  C   C22       1.0  0.59323  0.35085  0.72424  1.0000
  C   C23       1.0  0.40686  0.85083  0.77577  1.0000
  C   C24       1.0  0.40683  0.64920  0.27576  1.0000
  N   N1        1.0  0.24853  0.37118  0.11413  1.0000
  N   N2        1.0  0.24856  0.12882  0.61414  1.0000
  N   N3        1.0  0.75147  0.62882  0.88587  1.0000
  N   N4        1.0  0.75142  0.87118  0.38586  1.0000
  N   N5        1.0  0.08363  0.04679  0.08990  1.0000
  N   N6        1.0  0.08368  0.45320  0.58992  1.0000
  N   N7        1.0  0.91636  0.95321  0.91010  1.0000
  N   N8        1.0  0.91634  0.54680  0.41009  1.0000
  Cl  Cl1       1.0  0.83300  0.72710  0.16240  1.0000
  Cl  Cl2       1.0  0.83301  0.77290  0.66240  1.0000
  Cl  Cl3       1.0  0.16702  0.27290  0.83760  1.0000
  Cl  Cl4       1.0  0.16697  0.22711  0.33760  1.0000
  Cl  Cl5       1.0  0.50438  0.69298  0.04213  1.0000
  Cl  Cl6       1.0  0.50438  0.80700  0.54213  1.0000
  Cl  Cl7       1.0  0.49564  0.30702  0.95787  1.0000
  Cl  Cl8       1.0  0.49558  0.19300  0.45787  1.0000
