data_image0
_chemical_formula_structural       Cu6H32C24N8Cl6
_chemical_formula_sum              "Cu6 H32 C24 N8 Cl6"
_cell_length_a       7.26163
_cell_length_b       8.80956
_cell_length_c       12.7722
_cell_angle_alpha    89.1067
_cell_angle_beta     87.3564
_cell_angle_gamma    87.7572

_space_group_name_H-M_alt    "P 1"
_space_group_IT_number       1

loop_
  _space_group_symop_operation_xyz
  'x, y, z'

loop_
  _atom_site_type_symbol
  _atom_site_label
  _atom_site_symmetry_multiplicity
  _atom_site_fract_x
  _atom_site_fract_y
  _atom_site_fract_z
  _atom_site_occupancy
  Cu  Cu1       1.0  0.73529  0.05655  0.74740  1.0000
  Cu  Cu2       1.0  0.26472  0.94346  0.25260  1.0000
  Cu  Cu3       1.0  0.75212  0.72685  0.66181  1.0000
  Cu  Cu4       1.0  0.24788  0.27315  0.33819  1.0000
  Cu  Cu5       1.0  0.76663  0.71916  0.86326  1.0000
  Cu  Cu6       1.0  0.23337  0.28085  0.13674  1.0000
  H   H1        1.0  0.08042  0.20634  0.76049  1.0000
  H   H2        1.0  0.91958  0.79365  0.23951  1.0000
  H   H3        1.0  0.67288  0.08012  0.98115  1.0000
  H   H4        1.0  0.32712  0.91988  0.01885  1.0000
  H   H5        1.0  0.86559  0.16492  0.12496  1.0000
  H   H6        1.0  0.13441  0.83507  0.87504  1.0000
  H   H7        1.0  0.37464  0.28534  0.81759  1.0000
  H   H8        1.0  0.62535  0.71466  0.18241  1.0000
  H   H9        1.0  0.42240  0.27628  0.95234  1.0000
  H   H10       1.0  0.57759  0.72373  0.04766  1.0000
  H   H11       1.0  0.43180  0.54520  0.88220  1.0000
  H   H12       1.0  0.56817  0.45481  0.11779  1.0000
  H   H13       1.0  0.19767  0.53684  0.84749  1.0000
  H   H14       1.0  0.80231  0.46315  0.15251  1.0000
  H   H15       1.0  0.25313  0.52737  0.98165  1.0000
  H   H16       1.0  0.74684  0.47264  0.01835  1.0000
  H   H17       1.0  0.79815  0.26441  0.57048  1.0000
  H   H18       1.0  0.20186  0.73559  0.42952  1.0000
  H   H19       1.0  0.34970  0.02357  0.68691  1.0000
  H   H20       1.0  0.65031  0.97642  0.31309  1.0000
  H   H21       1.0  0.17557  0.10052  0.52846  1.0000
  H   H22       1.0  0.82445  0.89947  0.47154  1.0000
  H   H23       1.0  0.53445  0.44886  0.35986  1.0000
  H   H24       1.0  0.46555  0.55115  0.64015  1.0000
  H   H25       1.0  0.68403  0.29859  0.31927  1.0000
  H   H26       1.0  0.31597  0.70142  0.68073  1.0000
  H   H27       1.0  0.85494  0.53638  0.35432  1.0000
  H   H28       1.0  0.14506  0.46362  0.64568  1.0000
  H   H29       1.0  0.78108  0.52462  0.48916  1.0000
  H   H30       1.0  0.21893  0.47538  0.51084  1.0000
  H   H31       1.0  0.93147  0.38171  0.43144  1.0000
  H   H32       1.0  0.06854  0.61829  0.56855  1.0000
  C   C1        1.0  0.14142  0.24680  0.92102  1.0000
  C   C2        1.0  0.85858  0.75320  0.07898  1.0000
  C   C3        1.0  0.03214  0.19830  0.84233  1.0000
  C   C4        1.0  0.96786  0.80170  0.15768  1.0000
  C   C5        1.0  0.80664  0.12850  0.96362  1.0000
  C   C6        1.0  0.19336  0.87150  0.03639  1.0000
  C   C7        1.0  0.91350  0.17534  0.04312  1.0000
  C   C8        1.0  0.08650  0.82465  0.95688  1.0000
  C   C9        1.0  0.32142  0.31917  0.89611  1.0000
  C   C10       1.0  0.67857  0.68084  0.10389  1.0000
  C   C11       1.0  0.29996  0.49285  0.90221  1.0000
  C   C12       1.0  0.70002  0.50716  0.09779  1.0000
  C   C13       1.0  0.56391  0.27279  0.47185  1.0000
  C   C14       1.0  0.43610  0.72721  0.52815  1.0000
  C   C15       1.0  0.65863  0.22820  0.56053  1.0000
  C   C16       1.0  0.34138  0.77180  0.43947  1.0000
  C   C17       1.0  0.41023  0.09618  0.62578  1.0000
  C   C18       1.0  0.58978  0.90382  0.37422  1.0000
  C   C19       1.0  0.31475  0.13872  0.53827  1.0000
  C   C20       1.0  0.68527  0.86128  0.46173  1.0000
  C   C21       1.0  0.64612  0.37151  0.38704  1.0000
  C   C22       1.0  0.35388  0.62849  0.61296  1.0000
  C   C23       1.0  0.81190  0.45853  0.41784  1.0000
  C   C24       1.0  0.18810  0.54147  0.58216  1.0000
  N   N1        1.0  0.08134  0.23420  0.02323  1.0000
  N   N2        1.0  0.91866  0.76580  0.97677  1.0000
  N   N3        1.0  0.86571  0.13830  0.86200  1.0000
  N   N4        1.0  0.13429  0.86169  0.13801  1.0000
  N   N5        1.0  0.38969  0.22569  0.46042  1.0000
  N   N6        1.0  0.61032  0.77431  0.53958  1.0000
  N   N7        1.0  0.58523  0.13881  0.63734  1.0000
  N   N8        1.0  0.41478  0.86120  0.36266  1.0000
  Cl  Cl1       1.0  0.78103  0.51300  0.75992  1.0000
  Cl  Cl2       1.0  0.21897  0.48701  0.24009  1.0000
  Cl  Cl3       1.0  0.98174  0.90354  0.66896  1.0000
  Cl  Cl4       1.0  0.01826  0.09646  0.33104  1.0000
  Cl  Cl5       1.0  0.51956  0.87890  0.83387  1.0000
  Cl  Cl6       1.0  0.48043  0.12110  0.16613  1.0000
