data_image0
_chemical_formula_structural       Ni2H24C36N4O8
_chemical_formula_sum              "Ni2 H24 C36 N4 O8"
_cell_length_a       8.62954
_cell_length_b       10.4404
_cell_length_c       10.1213
_cell_angle_alpha    78.4733
_cell_angle_beta     81.7183
_cell_angle_gamma    69.1931

_space_group_name_H-M_alt    "P 1"
_space_group_IT_number       1

loop_
  _space_group_symop_operation_xyz
  'x, y, z'

loop_
  _atom_site_type_symbol
  _atom_site_label
  _atom_site_symmetry_multiplicity
  _atom_site_fract_x
  _atom_site_fract_y
  _atom_site_fract_z
  _atom_site_occupancy
  Ni  Ni1       1.0  0.07214  0.11755  0.12459  1.0000
  Ni  Ni2       1.0  0.92786  0.88245  0.87542  1.0000
  H   H1        1.0  0.11619  0.06730  0.57694  1.0000
  H   H2        1.0  0.88381  0.93270  0.42306  1.0000
  H   H3        1.0  0.18286  0.36255  0.78508  1.0000
  H   H4        1.0  0.81714  0.63745  0.21492  1.0000
  H   H5        1.0  0.22946  0.50534  0.56483  1.0000
  H   H6        1.0  0.77055  0.49465  0.43517  1.0000
  H   H7        1.0  0.22192  0.42495  0.34842  1.0000
  H   H8        1.0  0.77809  0.57504  0.65158  1.0000
  H   H9        1.0  0.97948  0.38300  0.95514  1.0000
  H   H10       1.0  0.02052  0.61700  0.04487  1.0000
  H   H11       1.0  0.75485  0.60695  0.95176  1.0000
  H   H12       1.0  0.24516  0.39305  0.04825  1.0000
  H   H13       1.0  0.51519  0.41506  0.30286  1.0000
  H   H14       1.0  0.48480  0.58495  0.69714  1.0000
  H   H15       1.0  0.75780  0.19904  0.29094  1.0000
  H   H16       1.0  0.24218  0.80096  0.70907  1.0000
  H   H17       1.0  0.56695  0.76788  0.93523  1.0000
  H   H18       1.0  0.43306  0.23213  0.06476  1.0000
  H   H19       1.0  0.36425  0.99785  0.94753  1.0000
  H   H20       1.0  0.63575  0.00216  0.05246  1.0000
  H   H21       1.0  0.15836  0.86968  0.32295  1.0000
  H   H22       1.0  0.84164  0.13032  0.67704  1.0000
  H   H23       1.0  0.35822  0.63002  0.33164  1.0000
  H   H24       1.0  0.64178  0.36998  0.66836  1.0000
  C   C1        1.0  0.16300  0.20251  0.31656  1.0000
  C   C2        1.0  0.83700  0.79748  0.68345  1.0000
  C   C3        1.0  0.16854  0.24232  0.44945  1.0000
  C   C4        1.0  0.83146  0.75767  0.55055  1.0000
  C   C5        1.0  0.14144  0.16317  0.57345  1.0000
  C   C6        1.0  0.85855  0.83684  0.42655  1.0000
  C   C7        1.0  0.14798  0.20562  0.69492  1.0000
  C   C8        1.0  0.85201  0.79438  0.30508  1.0000
  C   C9        1.0  0.12313  0.11551  0.82651  1.0000
  C   C10       1.0  0.87686  0.88450  0.17348  1.0000
  C   C11       1.0  0.17921  0.32937  0.69071  1.0000
  C   C12       1.0  0.82080  0.67062  0.30930  1.0000
  C   C13       1.0  0.20675  0.40853  0.56696  1.0000
  C   C14       1.0  0.79328  0.59146  0.43303  1.0000
  C   C15       1.0  0.20259  0.36480  0.44668  1.0000
  C   C16       1.0  0.79743  0.63519  0.55332  1.0000
  C   C17       1.0  0.87469  0.39634  0.03095  1.0000
  C   C18       1.0  0.12531  0.60367  0.96906  1.0000
  C   C19       1.0  0.74546  0.52122  0.02996  1.0000
  C   C20       1.0  0.25454  0.47879  0.97005  1.0000
  C   C21       1.0  0.61151  0.53537  0.12942  1.0000
  C   C22       1.0  0.38849  0.46463  0.87059  1.0000
  C   C23       1.0  0.61571  0.41577  0.22427  1.0000
  C   C24       1.0  0.38428  0.58423  0.77574  1.0000
  C   C25       1.0  0.75060  0.29343  0.21938  1.0000
  C   C26       1.0  0.24940  0.70657  0.78062  1.0000
  C   C27       1.0  0.48180  0.67299  0.13221  1.0000
  C   C28       1.0  0.51821  0.32702  0.86779  1.0000
  C   C29       1.0  0.47945  0.78165  0.02438  1.0000
  C   C30       1.0  0.52056  0.21836  0.97562  1.0000
  C   C31       1.0  0.36445  0.91286  0.02898  1.0000
  C   C32       1.0  0.63555  0.08714  0.97102  1.0000
  C   C33       1.0  0.25042  0.84068  0.23902  1.0000
  C   C34       1.0  0.74957  0.15934  0.76097  1.0000
  C   C35       1.0  0.36307  0.70652  0.24188  1.0000
  C   C36       1.0  0.63693  0.29349  0.75812  1.0000
  N   N1        1.0  0.87996  0.28392  0.12466  1.0000
  N   N2        1.0  0.12003  0.71608  0.87534  1.0000
  N   N3        1.0  0.24854  0.94333  0.13304  1.0000
  N   N4        1.0  0.75145  0.05667  0.86695  1.0000
  O   O1        1.0  0.23250  0.25366  0.21270  1.0000
  O   O2        1.0  0.76751  0.74633  0.78730  1.0000
  O   O3        1.0  0.08113  0.11933  0.31524  1.0000
  O   O4        1.0  0.91887  0.88066  0.68476  1.0000
  O   O5        1.0  0.12630  0.99507  0.82512  1.0000
  O   O6        1.0  0.87371  0.00493  0.17488  1.0000
  O   O7        1.0  0.10370  0.17238  0.93336  1.0000
  O   O8        1.0  0.89629  0.82761  0.06664  1.0000
