data_image0
_chemical_formula_structural       Co2H18C22N8O8
_chemical_formula_sum              "Co2 H18 C22 N8 O8"
_cell_length_a       7.84914
_cell_length_b       9.58982
_cell_length_c       9.71971
_cell_angle_alpha    117.133
_cell_angle_beta     96.5152
_cell_angle_gamma    102.552

_space_group_name_H-M_alt    "P 1"
_space_group_IT_number       1

loop_
  _space_group_symop_operation_xyz
  'x, y, z'

loop_
  _atom_site_type_symbol
  _atom_site_label
  _atom_site_symmetry_multiplicity
  _atom_site_fract_x
  _atom_site_fract_y
  _atom_site_fract_z
  _atom_site_occupancy
  Co  Co1       1.0  0.19811  0.74095  0.36270  1.0000
  Co  Co2       1.0  0.80189  0.25905  0.63730  1.0000
  H   H1        1.0  0.19398  0.80337  0.90689  1.0000
  H   H2        1.0  0.80602  0.19663  0.09311  1.0000
  H   H3        1.0  0.22162  0.45811  0.45487  1.0000
  H   H4        1.0  0.77838  0.54189  0.54514  1.0000
  H   H5        1.0  0.16772  0.14039  0.96493  1.0000
  H   H6        1.0  0.83228  0.85961  0.03507  1.0000
  H   H7        1.0  0.16306  0.44905  0.01312  1.0000
  H   H8        1.0  0.83694  0.55095  0.98688  1.0000
  H   H9        1.0  0.84457  0.47854  0.29143  1.0000
  H   H10       1.0  0.15543  0.52146  0.70857  1.0000
  H   H11       1.0  0.50978  0.52585  0.24403  1.0000
  H   H12       1.0  0.49023  0.47415  0.75597  1.0000
  H   H13       1.0  0.91981  0.95321  0.34731  1.0000
  H   H14       1.0  0.08019  0.04679  0.65268  1.0000
  H   H15       1.0  0.57637  0.81420  0.28591  1.0000
  H   H16       1.0  0.42363  0.18580  0.71409  1.0000
  H   H17       1.0  0.20841  0.16733  0.24395  1.0000
  H   H18       1.0  0.79159  0.83267  0.75605  1.0000
  C   C1        1.0  0.31790  0.93398  0.21959  1.0000
  C   C2        1.0  0.68210  0.06602  0.78041  1.0000
  C   C3        1.0  0.41889  0.96901  0.11003  1.0000
  C   C4        1.0  0.58111  0.03099  0.88997  1.0000
  C   C5        1.0  0.32929  0.88964  0.94935  1.0000
  C   C6        1.0  0.67071  0.11036  0.05065  1.0000
  C   C7        1.0  0.59273  0.08105  0.16139  1.0000
  C   C8        1.0  0.40727  0.91895  0.83861  1.0000
  C   C9        1.0  0.70024  0.17106  0.33074  1.0000
  C   C10       1.0  0.29976  0.82894  0.66925  1.0000
  C   C11       1.0  0.21015  0.41630  0.32933  1.0000
  C   C12       1.0  0.78985  0.58370  0.67067  1.0000
  C   C13       1.0  0.17860  0.25249  0.07242  1.0000
  C   C14       1.0  0.82140  0.74751  0.92758  1.0000
  C   C15       1.0  0.17510  0.40492  0.09743  1.0000
  C   C16       1.0  0.82490  0.59509  0.90257  1.0000
  C   C17       1.0  0.81010  0.58333  0.29441  1.0000
  C   C18       1.0  0.18990  0.41667  0.70559  1.0000
  C   C19       1.0  0.64447  0.60567  0.27287  1.0000
  C   C20       1.0  0.35553  0.39433  0.72713  1.0000
  C   C21       1.0  0.85488  0.83096  0.32612  1.0000
  C   C22       1.0  0.14512  0.16904  0.67388  1.0000
  N   N1        1.0  0.19542  0.50673  0.25927  1.0000
  N   N2        1.0  0.80458  0.49327  0.74073  1.0000
  N   N3        1.0  0.20137  0.26277  0.21978  1.0000
  N   N4        1.0  0.79863  0.73723  0.78022  1.0000
  N   N5        1.0  0.94080  0.72499  0.32717  1.0000
  N   N6        1.0  0.05920  0.27501  0.67284  1.0000
  N   N7        1.0  0.67577  0.76185  0.29375  1.0000
  N   N8        1.0  0.32423  0.23815  0.70625  1.0000
  O   O1        1.0  0.33169  0.80773  0.23097  1.0000
  O   O2        1.0  0.66831  0.19227  0.76903  1.0000
  O   O3        1.0  0.21759  0.01769  0.28238  1.0000
  O   O4        1.0  0.78241  0.98231  0.71762  1.0000
  O   O5        1.0  0.64338  0.11689  0.42329  1.0000
  O   O6        1.0  0.35662  0.88312  0.57672  1.0000
  O   O7        1.0  0.83823  0.29081  0.37807  1.0000
  O   O8        1.0  0.16177  0.70919  0.62193  1.0000
