data_image0
_chemical_formula_structural       Ni2H24C36N4O8
_chemical_formula_sum              "Ni2 H24 C36 N4 O8"
_cell_length_a       8.66325
_cell_length_b       10.4002
_cell_length_c       10.1142
_cell_angle_alpha    79.5007
_cell_angle_beta     75.8885
_cell_angle_gamma    69.3751

_space_group_name_H-M_alt    "P 1"
_space_group_IT_number       1

loop_
  _space_group_symop_operation_xyz
  'x, y, z'

loop_
  _atom_site_type_symbol
  _atom_site_label
  _atom_site_symmetry_multiplicity
  _atom_site_fract_x
  _atom_site_fract_y
  _atom_site_fract_z
  _atom_site_occupancy
  Ni  Ni1       1.0  0.07503  0.11720  0.13425  1.0000
  Ni  Ni2       1.0  0.92514  0.88279  0.86572  1.0000
  H   H1        1.0  0.76371  0.59314  0.95633  1.0000
  H   H2        1.0  0.23618  0.40688  0.04365  1.0000
  H   H3        1.0  0.99391  0.37264  0.95920  1.0000
  H   H4        1.0  0.00598  0.62727  0.04071  1.0000
  H   H5        1.0  0.49833  0.42270  0.32940  1.0000
  H   H6        1.0  0.50174  0.57721  0.67071  1.0000
  H   H7        1.0  0.74592  0.20874  0.31486  1.0000
  H   H8        1.0  0.25411  0.79116  0.68514  1.0000
  H   H9        1.0  0.36259  0.65667  0.36391  1.0000
  H   H10       1.0  0.63789  0.34353  0.63630  1.0000
  H   H11       1.0  0.16669  0.89663  0.34975  1.0000
  H   H12       1.0  0.83361  0.10348  0.65047  1.0000
  H   H13       1.0  0.55245  0.73056  0.92838  1.0000
  H   H14       1.0  0.44696  0.26915  0.07165  1.0000
  H   H15       1.0  0.35712  0.96520  0.93551  1.0000
  H   H16       1.0  0.64264  0.03467  0.06451  1.0000
  H   H17       1.0  0.79550  0.55849  0.64289  1.0000
  H   H18       1.0  0.20429  0.44128  0.35687  1.0000
  H   H19       1.0  0.88495  0.92818  0.42227  1.0000
  H   H20       1.0  0.11504  0.07170  0.57804  1.0000
  H   H21       1.0  0.80089  0.64588  0.20823  1.0000
  H   H22       1.0  0.19941  0.35428  0.79154  1.0000
  H   H23       1.0  0.77089  0.49094  0.42457  1.0000
  H   H24       1.0  0.22904  0.50912  0.57509  1.0000
  C   C1        1.0  0.86657  0.88997  0.17082  1.0000
  C   C2        1.0  0.13300  0.11023  0.82919  1.0000
  C   C3        1.0  0.74972  0.51173  0.03827  1.0000
  C   C4        1.0  0.25028  0.48821  0.96173  1.0000
  C   C5        1.0  0.88172  0.38907  0.03907  1.0000
  C   C6        1.0  0.11830  0.61086  0.96099  1.0000
  C   C7        1.0  0.60719  0.53106  0.14423  1.0000
  C   C8        1.0  0.39288  0.46890  0.85579  1.0000
  C   C9        1.0  0.60560  0.41876  0.24535  1.0000
  C   C10       1.0  0.39444  0.58123  0.75474  1.0000
  C   C11       1.0  0.74315  0.29785  0.23878  1.0000
  C   C12       1.0  0.25685  0.70214  0.76131  1.0000
  C   C13       1.0  0.36333  0.71919  0.26486  1.0000
  C   C14       1.0  0.63693  0.28086  0.73530  1.0000
  C   C15       1.0  0.47608  0.66815  0.14601  1.0000
  C   C16       1.0  0.52392  0.33183  0.85406  1.0000
  C   C17       1.0  0.25345  0.85408  0.25888  1.0000
  C   C18       1.0  0.74671  0.14593  0.74130  1.0000
  C   C19       1.0  0.46939  0.75975  0.02542  1.0000
  C   C20       1.0  0.53027  0.24013  0.97463  1.0000
  C   C21       1.0  0.35902  0.89338  0.02756  1.0000
  C   C22       1.0  0.64078  0.10657  0.97252  1.0000
  C   C23       1.0  0.80783  0.62413  0.54637  1.0000
  C   C24       1.0  0.19236  0.37567  0.45348  1.0000
  C   C25       1.0  0.84159  0.74683  0.54574  1.0000
  C   C26       1.0  0.15859  0.25301  0.45423  1.0000
  C   C27       1.0  0.86029  0.83226  0.42335  1.0000
  C   C28       1.0  0.13970  0.16772  0.57667  1.0000
  C   C29       1.0  0.85325  0.78252  0.67892  1.0000
  C   C30       1.0  0.14714  0.21749  0.32092  1.0000
  C   C31       1.0  0.84607  0.79592  0.30119  1.0000
  C   C32       1.0  0.15392  0.20420  0.69878  1.0000
  C   C33       1.0  0.81273  0.67311  0.30313  1.0000
  C   C34       1.0  0.18720  0.32704  0.69673  1.0000
  C   C35       1.0  0.79398  0.58744  0.42512  1.0000
  C   C36       1.0  0.20601  0.41260  0.57467  1.0000
  N   N1        1.0  0.88093  0.28331  0.13778  1.0000
  N   N2        1.0  0.11914  0.71661  0.86232  1.0000
  N   N3        1.0  0.24975  0.94139  0.14170  1.0000
  N   N4        1.0  0.75029  0.05856  0.85847  1.0000
  O   O1        1.0  0.87228  0.00731  0.17663  1.0000
  O   O2        1.0  0.12691  0.99306  0.82337  1.0000
  O   O3        1.0  0.87243  0.83926  0.06098  1.0000
  O   O4        1.0  0.12735  0.16082  0.93907  1.0000
  O   O5        1.0  0.93407  0.86856  0.67407  1.0000
  O   O6        1.0  0.06654  0.13133  0.32560  1.0000
  O   O7        1.0  0.78695  0.72833  0.78870  1.0000
  O   O8        1.0  0.21314  0.27215  0.21132  1.0000
