data_image0
_chemical_formula_structural       Cu4H30C48I4N6O12
_chemical_formula_sum              "Cu4 H30 C48 I4 N6 O12"
_cell_length_a       7.8572
_cell_length_b       16.5346
_cell_length_c       17.658
_cell_angle_alpha    112.757
_cell_angle_beta     90
_cell_angle_gamma    103.745

_space_group_name_H-M_alt    "P 1"
_space_group_IT_number       1

loop_
  _space_group_symop_operation_xyz
  'x, y, z'

loop_
  _atom_site_type_symbol
  _atom_site_label
  _atom_site_symmetry_multiplicity
  _atom_site_fract_x
  _atom_site_fract_y
  _atom_site_fract_z
  _atom_site_occupancy
  Cu  Cu1       1.0  0.94509  0.97141  0.72162  1.0000
  Cu  Cu2       1.0  0.97269  0.02859  0.27853  1.0000
  Cu  Cu3       1.0  0.08909  0.03932  0.86687  1.0000
  Cu  Cu4       1.0  0.04868  0.96064  0.13326  1.0000
  H   H1        1.0  0.80919  0.38873  0.56866  1.0000
  H   H2        1.0  0.41988  0.61131  0.43161  1.0000
  H   H3        1.0  0.57695  0.14867  0.34927  1.0000
  H   H4        1.0  0.42613  0.85141  0.65070  1.0000
  H   H5        1.0  0.57375  0.41291  0.35953  1.0000
  H   H6        1.0  0.16003  0.58711  0.64067  1.0000
  H   H7        1.0  0.03172  0.71109  0.47206  1.0000
  H   H8        1.0  0.32102  0.28884  0.52776  1.0000
  H   H9        1.0  0.08421  0.87108  0.57429  1.0000
  H   H10       1.0  0.21333  0.12884  0.42550  1.0000
  H   H11       1.0  0.73468  0.79500  0.72605  1.0000
  H   H12       1.0  0.93977  0.20505  0.27389  1.0000
  H   H13       1.0  0.67794  0.63117  0.63327  1.0000
  H   H14       1.0  0.04671  0.36884  0.36677  1.0000
  H   H15       1.0  0.98904  0.15975  0.54684  1.0000
  H   H16       1.0  0.82732  0.84012  0.45315  1.0000
  H   H17       1.0  0.10469  0.08458  0.62712  1.0000
  H   H18       1.0  0.01860  0.91538  0.37309  1.0000
  H   H19       1.0  0.60673  0.99358  0.68783  1.0000
  H   H20       1.0  0.61188  0.00623  0.31190  1.0000
  H   H21       1.0  0.46926  0.06172  0.60807  1.0000
  H   H22       1.0  0.40597  0.93821  0.39161  1.0000
  H   H23       1.0  0.19568  0.17960  0.17958  1.0000
  H   H24       1.0  0.01478  0.82065  0.82053  1.0000
  H   H25       1.0  0.01679  0.10556  0.04261  1.0000
  H   H26       1.0  0.91001  0.89458  0.95756  1.0000
  H   H27       1.0  0.46325  0.08605  0.91772  1.0000
  H   H28       1.0  0.37610  0.91402  0.08230  1.0000
  H   H29       1.0  0.66121  0.15866  0.05026  1.0000
  H   H30       1.0  0.50132  0.84143  0.94971  1.0000
  C   C1        1.0  0.69642  0.41038  0.46858  1.0000
  C   C2        1.0  0.28535  0.58962  0.53163  1.0000
  C   C3        1.0  0.74193  0.35748  0.50643  1.0000
  C   C4        1.0  0.38360  0.64258  0.49378  1.0000
  C   C5        1.0  0.69987  0.26388  0.46255  1.0000
  C   C6        1.0  0.43460  0.73620  0.53755  1.0000
  C   C7        1.0  0.61231  0.22202  0.38329  1.0000
  C   C8        1.0  0.38861  0.77805  0.61675  1.0000
  C   C9        1.0  0.56832  0.27768  0.34838  1.0000
  C   C10       1.0  0.28917  0.72235  0.65168  1.0000
  C   C11       1.0  0.60928  0.37171  0.38914  1.0000
  C   C12       1.0  0.23656  0.62828  0.61100  1.0000
  C   C13       1.0  0.82420  0.56326  0.48402  1.0000
  C   C14       1.0  0.26072  0.43670  0.51608  1.0000
  C   C15       1.0  0.63496  0.16080  0.52839  1.0000
  C   C16       1.0  0.47230  0.83901  0.47137  1.0000
  C   C17       1.0  0.56370  0.22356  0.20323  1.0000
  C   C18       1.0  0.33874  0.77661  0.79679  1.0000
  C   C19       1.0  0.84985  0.65824  0.54438  1.0000
  C   C20       1.0  0.19170  0.34174  0.45560  1.0000
  C   C21       1.0  0.96312  0.72714  0.52745  1.0000
  C   C22       1.0  0.23625  0.27281  0.47240  1.0000
  C   C23       1.0  0.99137  0.81620  0.58390  1.0000
  C   C24       1.0  0.17537  0.18375  0.41595  1.0000
  C   C25       1.0  0.79961  0.77333  0.66965  1.0000
  C   C26       1.0  0.02636  0.22669  0.33029  1.0000
  C   C27       1.0  0.76787  0.68212  0.61750  1.0000
  C   C28       1.0  0.08581  0.31789  0.38248  1.0000
  C   C29       1.0  0.71856  0.11649  0.57113  1.0000
  C   C30       1.0  0.60029  0.88337  0.42869  1.0000
  C   C31       1.0  0.89961  0.12257  0.57631  1.0000
  C   C32       1.0  0.77527  0.87733  0.42364  1.0000
  C   C33       1.0  0.96454  0.08086  0.62066  1.0000
  C   C34       1.0  0.88214  0.91908  0.37939  1.0000
  C   C35       1.0  0.68603  0.02905  0.65395  1.0000
  C   C36       1.0  0.65559  0.97084  0.34589  1.0000
  C   C37       1.0  0.61041  0.06779  0.61036  1.0000
  C   C38       1.0  0.54100  0.93207  0.38941  1.0000
  C   C39       1.0  0.44412  0.17685  0.12534  1.0000
  C   C40       1.0  0.26594  0.82330  0.87470  1.0000
  C   C41       1.0  0.26050  0.16064  0.12318  1.0000
  C   C42       1.0  0.09859  0.83956  0.87691  1.0000
  C   C43       1.0  0.16017  0.11965  0.04688  1.0000
  C   C44       1.0  0.03929  0.88049  0.95325  1.0000
  C   C45       1.0  0.40987  0.10810  0.97727  1.0000
  C   C46       1.0  0.30063  0.89200  0.02277  1.0000
  C   C47       1.0  0.51925  0.14878  0.05069  1.0000
  C   C48       1.0  0.36925  0.85135  0.94931  1.0000
  I   I1        1.0  0.75845  0.98899  0.85408  1.0000
  I   I2        1.0  0.76879  0.01127  0.14596  1.0000
  I   I3        1.0  0.29087  0.04144  0.75408  1.0000
  I   I4        1.0  0.24802  0.95815  0.24587  1.0000
  N   N1        1.0  0.90974  0.83984  0.65371  1.0000
  N   N2        1.0  0.06987  0.16013  0.34620  1.0000
  N   N3        1.0  0.86051  0.03518  0.65991  1.0000
  N   N4        1.0  0.82397  0.96475  0.34008  1.0000
  N   N5        1.0  0.23287  0.09435  0.97476  1.0000
  N   N6        1.0  0.13736  0.90574  0.02533  1.0000
  O   O1        1.0  0.73390  0.50326  0.51622  1.0000
  O   O2        1.0  0.23033  0.49674  0.48396  1.0000
  O   O3        1.0  0.75895  0.21295  0.49945  1.0000
  O   O4        1.0  0.54440  0.78716  0.50060  1.0000
  O   O5        1.0  0.46995  0.23668  0.27108  1.0000
  O   O6        1.0  0.23164  0.76334  0.72895  1.0000
  O   O7        1.0  0.87690  0.54004  0.41598  1.0000
  O   O8        1.0  0.33635  0.45982  0.58415  1.0000
  O   O9        1.0  0.47743  0.15451  0.52102  1.0000
  O   O10       1.0  0.32086  0.84503  0.47850  1.0000
  O   O11       1.0  0.72360  0.24811  0.20801  1.0000
  O   O12       1.0  0.47416  0.75213  0.79197  1.0000
