data_image0
_chemical_formula_structural       Zn2H32C48N8O8
_chemical_formula_sum              "Zn2 H32 C48 N8 O8"
_cell_length_a       9.22963
_cell_length_b       10.5941
_cell_length_c       12.9158
_cell_angle_alpha    70.5901
_cell_angle_beta     74.7317
_cell_angle_gamma    66.6121

_space_group_name_H-M_alt    "P 1"
_space_group_IT_number       1

loop_
  _space_group_symop_operation_xyz
  'x, y, z'

loop_
  _atom_site_type_symbol
  _atom_site_label
  _atom_site_symmetry_multiplicity
  _atom_site_fract_x
  _atom_site_fract_y
  _atom_site_fract_z
  _atom_site_occupancy
  Zn  Zn1       1.0  0.72966  0.46883  0.23292  1.0000
  Zn  Zn2       1.0  0.27035  0.53117  0.76708  1.0000
  H   H1        1.0  0.86868  0.84235  0.85056  1.0000
  H   H2        1.0  0.13132  0.15765  0.14944  1.0000
  H   H3        1.0  0.96945  0.04665  0.78036  1.0000
  H   H4        1.0  0.03056  0.95335  0.21963  1.0000
  H   H5        1.0  0.92263  0.79413  0.18246  1.0000
  H   H6        1.0  0.07738  0.20586  0.81753  1.0000
  H   H7        1.0  0.61876  0.22354  0.30009  1.0000
  H   H8        1.0  0.38124  0.77645  0.69992  1.0000
  H   H9        1.0  0.54952  0.08210  0.21124  1.0000
  H   H10       1.0  0.45049  0.91789  0.78876  1.0000
  H   H11       1.0  0.66427  0.35567  0.89341  1.0000
  H   H12       1.0  0.33574  0.64432  0.10659  1.0000
  H   H13       1.0  0.74024  0.48159  0.99602  1.0000
  H   H14       1.0  0.25977  0.51841  0.00399  1.0000
  H   H15       1.0  0.56447  0.17932  0.89381  1.0000
  H   H16       1.0  0.43554  0.82068  0.10619  1.0000
  H   H17       1.0  0.76710  0.26399  0.45764  1.0000
  H   H18       1.0  0.23289  0.73601  0.54237  1.0000
  H   H19       1.0  0.98574  0.10543  0.57151  1.0000
  H   H20       1.0  0.01425  0.89457  0.42850  1.0000
  H   H21       1.0  0.31885  0.24217  0.29373  1.0000
  H   H22       1.0  0.68114  0.75782  0.70628  1.0000
  H   H23       1.0  0.08818  0.39032  0.19031  1.0000
  H   H24       1.0  0.91181  0.60968  0.80970  1.0000
  H   H25       1.0  0.12564  0.64789  0.29650  1.0000
  H   H26       1.0  0.87435  0.35212  0.70349  1.0000
  H   H27       1.0  0.41009  0.34929  0.54662  1.0000
  H   H28       1.0  0.58991  0.65072  0.45337  1.0000
  H   H29       1.0  0.26791  0.01707  0.59367  1.0000
  H   H30       1.0  0.73209  0.98292  0.40634  1.0000
  H   H31       1.0  0.16992  0.30784  0.67096  1.0000
  H   H32       1.0  0.83007  0.69217  0.32903  1.0000
  C   C1        1.0  0.89173  0.80517  0.02092  1.0000
  C   C2        1.0  0.10828  0.19483  0.97908  1.0000
  C   C3        1.0  0.90563  0.87739  0.90643  1.0000
  C   C4        1.0  0.09438  0.12261  0.09357  1.0000
  C   C5        1.0  0.96092  0.99010  0.86829  1.0000
  C   C6        1.0  0.03908  0.00990  0.13171  1.0000
  C   C7        1.0  0.00709  0.03621  0.94207  1.0000
  C   C8        1.0  0.99292  0.96379  0.05792  1.0000
  C   C9        1.0  0.93405  0.84926  0.09459  1.0000
  C   C10       1.0  0.06595  0.15074  0.90541  1.0000
  C   C11       1.0  0.83047  0.68261  0.05850  1.0000
  C   C12       1.0  0.16953  0.31739  0.94149  1.0000
  C   C13       1.0  0.63124  0.24686  0.20997  1.0000
  C   C14       1.0  0.36877  0.75313  0.79003  1.0000
  C   C15       1.0  0.59040  0.17032  0.16068  1.0000
  C   C16       1.0  0.40962  0.82968  0.83932  1.0000
  C   C17       1.0  0.60092  0.20902  0.04427  1.0000
  C   C18       1.0  0.39909  0.79098  0.95573  1.0000
  C   C19       1.0  0.65571  0.32245  0.98365  1.0000
  C   C20       1.0  0.34430  0.67755  0.01635  1.0000
  C   C21       1.0  0.69723  0.39241  0.03892  1.0000
  C   C22       1.0  0.30278  0.60759  0.96109  1.0000
  C   C23       1.0  0.55882  0.13704  0.98416  1.0000
  C   C24       1.0  0.44119  0.86296  0.01584  1.0000
  C   C25       1.0  0.89181  0.25271  0.42449  1.0000
  C   C26       1.0  0.10818  0.74729  0.57552  1.0000
  C   C27       1.0  0.01385  0.16591  0.48694  1.0000
  C   C28       1.0  0.98614  0.83409  0.51307  1.0000
  C   C29       1.0  0.17180  0.15882  0.44070  1.0000
  C   C30       1.0  0.82819  0.84118  0.55931  1.0000
  C   C31       1.0  0.19901  0.24223  0.33230  1.0000
  C   C32       1.0  0.80099  0.75777  0.66771  1.0000
  C   C33       1.0  0.07090  0.32620  0.27520  1.0000
  C   C34       1.0  0.92909  0.67379  0.72481  1.0000
  C   C35       1.0  0.42571  0.52879  0.33901  1.0000
  C   C36       1.0  0.57428  0.47122  0.66099  1.0000
  C   C37       1.0  0.28060  0.50173  0.41397  1.0000
  C   C38       1.0  0.71939  0.49828  0.58602  1.0000
  C   C39       1.0  0.13286  0.57269  0.37832  1.0000
  C   C40       1.0  0.86713  0.42733  0.62167  1.0000
  C   C41       1.0  0.29332  0.40339  0.51977  1.0000
  C   C42       1.0  0.70668  0.59662  0.48022  1.0000
  C   C43       1.0  0.30016  0.06754  0.50574  1.0000
  C   C44       1.0  0.69984  0.93246  0.49426  1.0000
  C   C45       1.0  0.15948  0.37933  0.58808  1.0000
  C   C46       1.0  0.84051  0.62067  0.41191  1.0000
  C   C47       1.0  0.99330  0.54934  0.44612  1.0000
  C   C48       1.0  0.00669  0.45068  0.55387  1.0000
  N   N1        1.0  0.68422  0.35645  0.15047  1.0000
  N   N2        1.0  0.31579  0.64354  0.84953  1.0000
  N   N3        1.0  0.91975  0.33102  0.32012  1.0000
  N   N4        1.0  0.08025  0.66898  0.67989  1.0000
  N   N5        1.0  0.51641  0.02668  0.03634  1.0000
  N   N6        1.0  0.48360  0.97332  0.96367  1.0000
  N   N7        1.0  0.44868  0.04487  0.46199  1.0000
  N   N8        1.0  0.55132  0.95512  0.53801  1.0000
  O   O1        1.0  0.80624  0.64037  0.98722  1.0000
  O   O2        1.0  0.19375  0.35964  0.01277  1.0000
  O   O3        1.0  0.80724  0.62894  0.16551  1.0000
  O   O4        1.0  0.19276  0.37106  0.83449  1.0000
  O   O5        1.0  0.56319  0.44199  0.36750  1.0000
  O   O6        1.0  0.43680  0.55801  0.63250  1.0000
  O   O7        1.0  0.41112  0.62867  0.25220  1.0000
  O   O8        1.0  0.58888  0.37134  0.74781  1.0000
