data_image0
_chemical_formula_structural       Ag4H60C52N12O12
_chemical_formula_sum              "Ag4 H60 C52 N12 O12"
_cell_length_a       5.73166
_cell_length_b       13.3227
_cell_length_c       16.9877
_cell_angle_alpha    90
_cell_angle_beta     90
_cell_angle_gamma    90.0199

_space_group_name_H-M_alt    "P 1"
_space_group_IT_number       1

loop_
  _space_group_symop_operation_xyz
  'x, y, z'

loop_
  _atom_site_type_symbol
  _atom_site_label
  _atom_site_symmetry_multiplicity
  _atom_site_fract_x
  _atom_site_fract_y
  _atom_site_fract_z
  _atom_site_occupancy
  Ag  Ag1       1.0  0.42420  0.76897  0.35927  1.0000
  Ag  Ag2       1.0  0.57580  0.73103  0.85928  1.0000
  Ag  Ag3       1.0  0.57578  0.23103  0.64073  1.0000
  Ag  Ag4       1.0  0.42420  0.26897  0.14073  1.0000
  H   H1        1.0  0.78957  0.97418  0.51338  1.0000
  H   H2        1.0  0.21044  0.52580  0.01340  1.0000
  H   H3        1.0  0.21044  0.02580  0.48661  1.0000
  H   H4        1.0  0.78955  0.47419  0.98661  1.0000
  H   H5        1.0  0.46900  0.99688  0.61046  1.0000
  H   H6        1.0  0.53104  0.50312  0.11047  1.0000
  H   H7        1.0  0.53100  0.00311  0.38953  1.0000
  H   H8        1.0  0.46896  0.49688  0.88954  1.0000
  H   H9        1.0  0.62600  0.70747  0.71121  1.0000
  H   H10       1.0  0.37403  0.79253  0.21120  1.0000
  H   H11       1.0  0.37401  0.29253  0.28880  1.0000
  H   H12       1.0  0.62596  0.20747  0.78878  1.0000
  H   H13       1.0  0.96136  0.68960  0.62167  1.0000
  H   H14       1.0  0.03866  0.81039  0.12167  1.0000
  H   H15       1.0  0.03865  0.31040  0.37834  1.0000
  H   H16       1.0  0.96134  0.18961  0.87832  1.0000
  H   H17       1.0  0.23425  0.93703  0.71120  1.0000
  H   H18       1.0  0.76579  0.56297  0.21120  1.0000
  H   H19       1.0  0.76576  0.06298  0.28880  1.0000
  H   H20       1.0  0.23421  0.43703  0.78880  1.0000
  H   H21       1.0  0.21273  0.80432  0.72356  1.0000
  H   H22       1.0  0.78729  0.69569  0.22357  1.0000
  H   H23       1.0  0.78728  0.19568  0.27644  1.0000
  H   H24       1.0  0.21270  0.30432  0.77644  1.0000
  H   H25       1.0  0.49596  0.03004  0.79376  1.0000
  H   H26       1.0  0.50404  0.46996  0.29376  1.0000
  H   H27       1.0  0.50405  0.96996  0.20624  1.0000
  H   H28       1.0  0.49595  0.53005  0.70624  1.0000
  H   H29       1.0  0.73235  0.94733  0.77733  1.0000
  H   H30       1.0  0.26765  0.55268  0.27733  1.0000
  H   H31       1.0  0.26765  0.05268  0.22267  1.0000
  H   H32       1.0  0.73234  0.44732  0.72268  1.0000
  H   H33       1.0  0.78378  0.04077  0.90072  1.0000
  H   H34       1.0  0.21622  0.45923  0.40072  1.0000
  H   H35       1.0  0.21623  0.95923  0.09928  1.0000
  H   H36       1.0  0.78377  0.54077  0.59928  1.0000
  H   H37       1.0  0.75962  0.91055  0.92022  1.0000
  H   H38       1.0  0.24039  0.58945  0.42022  1.0000
  H   H39       1.0  0.24039  0.08945  0.07978  1.0000
  H   H40       1.0  0.75961  0.41055  0.57978  1.0000
  H   H41       1.0  0.37309  0.06649  0.94036  1.0000
  H   H42       1.0  0.62692  0.43351  0.44036  1.0000
  H   H43       1.0  0.62693  0.93351  0.05964  1.0000
  H   H44       1.0  0.37308  0.56649  0.55964  1.0000
  H   H45       1.0  0.35630  0.83924  0.96880  1.0000
  H   H46       1.0  0.64370  0.66076  0.46880  1.0000
  H   H47       1.0  0.64370  0.16076  0.03120  1.0000
  H   H48       1.0  0.35630  0.33924  0.53120  1.0000
  H   H49       1.0  0.12153  0.92372  0.97992  1.0000
  H   H50       1.0  0.87847  0.57628  0.47993  1.0000
  H   H51       1.0  0.87848  0.07628  0.02008  1.0000
  H   H52       1.0  0.12153  0.42372  0.52007  1.0000
  H   H53       1.0  0.09012  0.83305  0.85370  1.0000
  H   H54       1.0  0.90988  0.66696  0.35371  1.0000
  H   H55       1.0  0.90987  0.16696  0.14629  1.0000
  H   H56       1.0  0.09011  0.33305  0.64629  1.0000
  H   H57       1.0  0.12507  0.96486  0.83849  1.0000
  H   H58       1.0  0.87494  0.53514  0.33849  1.0000
  H   H59       1.0  0.87494  0.03514  0.16151  1.0000
  H   H60       1.0  0.12506  0.46486  0.66151  1.0000
  C   C1        1.0  0.08554  0.81770  0.50899  1.0000
  C   C2        1.0  0.91448  0.68229  0.00900  1.0000
  C   C3        1.0  0.91448  0.18229  0.49101  1.0000
  C   C4        1.0  0.08551  0.31770  0.99100  1.0000
  C   C5        1.0  0.89481  0.83041  0.56115  1.0000
  C   C6        1.0  0.10520  0.66958  0.06115  1.0000
  C   C7        1.0  0.10521  0.16959  0.43886  1.0000
  C   C8        1.0  0.89479  0.33041  0.93884  1.0000
  C   C9        1.0  0.75493  0.91696  0.55755  1.0000
  C   C10       1.0  0.24509  0.58303  0.05756  1.0000
  C   C11       1.0  0.24508  0.08303  0.44245  1.0000
  C   C12       1.0  0.75491  0.41696  0.94245  1.0000
  C   C13       1.0  0.57419  0.92863  0.61132  1.0000
  C   C14       1.0  0.42584  0.57137  0.11133  1.0000
  C   C15       1.0  0.42582  0.07136  0.38867  1.0000
  C   C16       1.0  0.57416  0.42863  0.88867  1.0000
  C   C17       1.0  0.52644  0.85428  0.66743  1.0000
  C   C18       1.0  0.47358  0.64572  0.16743  1.0000
  C   C19       1.0  0.47355  0.14572  0.33257  1.0000
  C   C20       1.0  0.52642  0.35428  0.83257  1.0000
  C   C21       1.0  0.66319  0.76700  0.66894  1.0000
  C   C22       1.0  0.33683  0.73300  0.16894  1.0000
  C   C23       1.0  0.33681  0.23300  0.33106  1.0000
  C   C24       1.0  0.66316  0.26700  0.83106  1.0000
  C   C25       1.0  0.84910  0.75529  0.61744  1.0000
  C   C26       1.0  0.15091  0.74470  0.11744  1.0000
  C   C27       1.0  0.15090  0.24471  0.38257  1.0000
  C   C28       1.0  0.84908  0.25529  0.88255  1.0000
  C   C29       1.0  0.33275  0.86849  0.72615  1.0000
  C   C30       1.0  0.66728  0.63152  0.22615  1.0000
  C   C31       1.0  0.66726  0.13152  0.27386  1.0000
  C   C32       1.0  0.33271  0.36849  0.77386  1.0000
  C   C33       1.0  0.58271  0.96166  0.81588  1.0000
  C   C34       1.0  0.41730  0.53834  0.31588  1.0000
  C   C35       1.0  0.41729  0.03834  0.18412  1.0000
  C   C36       1.0  0.58270  0.46166  0.68412  1.0000
  C   C37       1.0  0.66181  0.97722  0.90026  1.0000
  C   C38       1.0  0.33819  0.52278  0.40026  1.0000
  C   C39       1.0  0.33819  0.02278  0.09974  1.0000
  C   C40       1.0  0.66180  0.47722  0.59974  1.0000
  C   C41       1.0  0.45858  0.99510  0.95706  1.0000
  C   C42       1.0  0.54142  0.50490  0.45706  1.0000
  C   C43       1.0  0.54142  0.00490  0.04294  1.0000
  C   C44       1.0  0.45858  0.49510  0.54294  1.0000
  C   C45       1.0  0.28143  0.90982  0.94596  1.0000
  C   C46       1.0  0.71857  0.59019  0.44596  1.0000
  C   C47       1.0  0.71857  0.09019  0.05404  1.0000
  C   C48       1.0  0.28143  0.40981  0.55404  1.0000
  C   C49       1.0  0.21244  0.89618  0.86005  1.0000
  C   C50       1.0  0.78757  0.60382  0.36006  1.0000
  C   C51       1.0  0.78756  0.10382  0.13994  1.0000
  C   C52       1.0  0.21242  0.39618  0.63994  1.0000
  N   N1        1.0  0.41735  0.87609  0.80886  1.0000
  N   N2        1.0  0.58266  0.62392  0.30886  1.0000
  N   N3        1.0  0.58265  0.12391  0.19114  1.0000
  N   N4        1.0  0.41733  0.37609  0.69114  1.0000
  N   N5        1.0  0.90822  0.87440  0.29932  1.0000
  N   N6        1.0  0.09178  0.62560  0.79931  1.0000
  N   N7        1.0  0.09178  0.12560  0.70068  1.0000
  N   N8        1.0  0.90822  0.37440  0.20069  1.0000
  N   N9        1.0  0.24721  0.80595  0.46827  1.0000
  N   N10       1.0  0.75280  0.69403  0.96828  1.0000
  N   N11       1.0  0.75281  0.19405  0.53173  1.0000
  N   N12       1.0  0.24718  0.30595  0.03173  1.0000
  O   O1        1.0  0.12560  0.89223  0.29961  1.0000
  O   O2        1.0  0.87440  0.60778  0.79961  1.0000
  O   O3        1.0  0.87440  0.10777  0.70039  1.0000
  O   O4        1.0  0.12559  0.39223  0.20039  1.0000
  O   O5        1.0  0.79747  0.86777  0.36457  1.0000
  O   O6        1.0  0.20252  0.63223  0.86457  1.0000
  O   O7        1.0  0.20253  0.13222  0.63543  1.0000
  O   O8        1.0  0.79746  0.36777  0.13543  1.0000
  O   O9        1.0  0.80013  0.86416  0.23486  1.0000
  O   O10       1.0  0.19986  0.63585  0.73486  1.0000
  O   O11       1.0  0.19986  0.13585  0.76514  1.0000
  O   O12       1.0  0.80014  0.36416  0.26515  1.0000
