data_image0
_chemical_formula_structural       Ag4H60C52N12O12
_chemical_formula_sum              "Ag4 H60 C52 N12 O12"
_cell_length_a       8.66917
_cell_length_b       9.403
_cell_length_c       17.7035
_cell_angle_alpha    90
_cell_angle_beta     104.264
_cell_angle_gamma    90

_space_group_name_H-M_alt    "P 1"
_space_group_IT_number       1

loop_
  _space_group_symop_operation_xyz
  'x, y, z'

loop_
  _atom_site_type_symbol
  _atom_site_label
  _atom_site_symmetry_multiplicity
  _atom_site_fract_x
  _atom_site_fract_y
  _atom_site_fract_z
  _atom_site_occupancy
  Ag  Ag1       1.0  0.38798  0.56445  0.19022  1.0000
  Ag  Ag2       1.0  0.61202  0.06445  0.30978  1.0000
  Ag  Ag3       1.0  0.61202  0.43555  0.80978  1.0000
  Ag  Ag4       1.0  0.38798  0.93555  0.69022  1.0000
  H   H1        1.0  0.89501  0.39592  0.03082  1.0000
  H   H2        1.0  0.10499  0.89592  0.46918  1.0000
  H   H3        1.0  0.10499  0.60408  0.96918  1.0000
  H   H4        1.0  0.89501  0.10408  0.53082  1.0000
  H   H5        1.0  0.13730  0.27339  0.02142  1.0000
  H   H6        1.0  0.86270  0.77339  0.47858  1.0000
  H   H7        1.0  0.86270  0.72661  0.97858  1.0000
  H   H8        1.0  0.13730  0.22661  0.52142  1.0000
  H   H9        1.0  0.25673  0.42135  0.05979  1.0000
  H   H10       1.0  0.74327  0.92135  0.44021  1.0000
  H   H11       1.0  0.74327  0.57865  0.94021  1.0000
  H   H12       1.0  0.25673  0.07865  0.55979  1.0000
  H   H13       1.0  0.06779  0.23227  0.14676  1.0000
  H   H14       1.0  0.93221  0.73227  0.35324  1.0000
  H   H15       1.0  0.93221  0.76773  0.85324  1.0000
  H   H16       1.0  0.06779  0.26773  0.64676  1.0000
  H   H17       1.0  0.27774  0.23682  0.16084  1.0000
  H   H18       1.0  0.72227  0.73682  0.33916  1.0000
  H   H19       1.0  0.72227  0.76318  0.83916  1.0000
  H   H20       1.0  0.27774  0.26318  0.66084  1.0000
  H   H21       1.0  0.02457  0.44049  0.37808  1.0000
  H   H22       1.0  0.97543  0.94049  0.12192  1.0000
  H   H23       1.0  0.97543  0.55951  0.62192  1.0000
  H   H24       1.0  0.02457  0.05951  0.87808  1.0000
  H   H25       1.0  0.48503  0.49121  0.33057  1.0000
  H   H26       1.0  0.51498  0.99121  0.16943  1.0000
  H   H27       1.0  0.51498  0.50879  0.66943  1.0000
  H   H28       1.0  0.48503  0.00879  0.83057  1.0000
  H   H29       1.0  0.04018  0.58088  0.22962  1.0000
  H   H30       1.0  0.95982  0.08088  0.27038  1.0000
  H   H31       1.0  0.95982  0.41912  0.77038  1.0000
  H   H32       1.0  0.04018  0.91912  0.72962  1.0000
  H   H33       1.0  0.93239  0.42788  0.18775  1.0000
  H   H34       1.0  0.06761  0.92787  0.31225  1.0000
  H   H35       1.0  0.06761  0.57212  0.81225  1.0000
  H   H36       1.0  0.93239  0.07212  0.68775  1.0000
  H   H37       1.0  0.56055  0.66795  0.43721  1.0000
  H   H38       1.0  0.43945  0.16795  0.06279  1.0000
  H   H39       1.0  0.43945  0.33205  0.56279  1.0000
  H   H40       1.0  0.56055  0.83205  0.93721  1.0000
  H   H41       1.0  0.30288  0.27166  0.28702  1.0000
  H   H42       1.0  0.69712  0.77166  0.21298  1.0000
  H   H43       1.0  0.69712  0.72834  0.71298  1.0000
  H   H44       1.0  0.30288  0.22834  0.78702  1.0000
  H   H45       1.0  0.09713  0.29191  0.28447  1.0000
  H   H46       1.0  0.90288  0.79191  0.21553  1.0000
  H   H47       1.0  0.90288  0.70809  0.71553  1.0000
  H   H48       1.0  0.09712  0.20809  0.78447  1.0000
  H   H49       1.0  0.09549  0.64946  0.10637  1.0000
  H   H50       1.0  0.90452  0.14946  0.39363  1.0000
  H   H51       1.0  0.90451  0.35054  0.89363  1.0000
  H   H52       1.0  0.09549  0.85054  0.60637  1.0000
  H   H53       1.0  0.88850  0.62453  0.09370  1.0000
  H   H54       1.0  0.11150  0.12453  0.40630  1.0000
  H   H55       1.0  0.11150  0.37547  0.90630  1.0000
  H   H56       1.0  0.88850  0.87547  0.59370  1.0000
  H   H57       1.0  0.10346  0.61152  0.48971  1.0000
  H   H58       1.0  0.89654  0.11152  0.01029  1.0000
  H   H59       1.0  0.89654  0.38848  0.51029  1.0000
  H   H60       1.0  0.10346  0.88848  0.98971  1.0000
  C   C1        1.0  0.00336  0.46198  0.03894  1.0000
  C   C2        1.0  0.99664  0.96198  0.46106  1.0000
  C   C3        1.0  0.99664  0.53802  0.96106  1.0000
  C   C4        1.0  0.00336  0.03802  0.53894  1.0000
  C   C5        1.0  0.14798  0.36261  0.06265  1.0000
  C   C6        1.0  0.85202  0.86261  0.43735  1.0000
  C   C7        1.0  0.85202  0.63739  0.93735  1.0000
  C   C8        1.0  0.14798  0.13739  0.56265  1.0000
  C   C9        1.0  0.16956  0.30171  0.14424  1.0000
  C   C10       1.0  0.83044  0.80171  0.35576  1.0000
  C   C11       1.0  0.83044  0.69829  0.85576  1.0000
  C   C12       1.0  0.16956  0.19829  0.64424  1.0000
  C   C13       1.0  0.14275  0.48899  0.39257  1.0000
  C   C14       1.0  0.85725  0.98899  0.10743  1.0000
  C   C15       1.0  0.85725  0.51101  0.60743  1.0000
  C   C16       1.0  0.14275  0.01101  0.89257  1.0000
  C   C17       1.0  0.24945  0.45506  0.34715  1.0000
  C   C18       1.0  0.75055  0.95506  0.15285  1.0000
  C   C19       1.0  0.75055  0.54494  0.65285  1.0000
  C   C20       1.0  0.24945  0.04494  0.84715  1.0000
  C   C21       1.0  0.40003  0.51957  0.36437  1.0000
  C   C22       1.0  0.59997  0.01957  0.13563  1.0000
  C   C23       1.0  0.59997  0.48043  0.63563  1.0000
  C   C24       1.0  0.40003  0.98043  0.86437  1.0000
  C   C25       1.0  0.03198  0.49920  0.18454  1.0000
  C   C26       1.0  0.96802  0.99920  0.31546  1.0000
  C   C27       1.0  0.96802  0.50080  0.81546  1.0000
  C   C28       1.0  0.03198  0.00080  0.68454  1.0000
  C   C29       1.0  0.33639  0.65050  0.46984  1.0000
  C   C30       1.0  0.66360  0.15050  0.03016  1.0000
  C   C31       1.0  0.66360  0.34950  0.53016  1.0000
  C   C32       1.0  0.33640  0.84950  0.96984  1.0000
  C   C33       1.0  0.44372  0.61783  0.42431  1.0000
  C   C34       1.0  0.55628  0.11783  0.07569  1.0000
  C   C35       1.0  0.55628  0.38217  0.57569  1.0000
  C   C36       1.0  0.44372  0.88217  0.92431  1.0000
  C   C37       1.0  0.20623  0.34948  0.28135  1.0000
  C   C38       1.0  0.79377  0.84948  0.21865  1.0000
  C   C39       1.0  0.79377  0.65053  0.71865  1.0000
  C   C40       1.0  0.20623  0.15052  0.78135  1.0000
  C   C41       1.0  0.00307  0.56827  0.10464  1.0000
  C   C42       1.0  0.99693  0.06827  0.39536  1.0000
  C   C43       1.0  0.99693  0.43173  0.89536  1.0000
  C   C44       1.0  0.00307  0.93173  0.60464  1.0000
  C   C45       1.0  0.18563  0.58519  0.45406  1.0000
  C   C46       1.0  0.81437  0.08519  0.04594  1.0000
  C   C47       1.0  0.81437  0.41481  0.54594  1.0000
  C   C48       1.0  0.18563  0.91481  0.95406  1.0000
  C   C49       1.0  0.38333  0.74740  0.53272  1.0000
  C   C50       1.0  0.61666  0.24740  0.96728  1.0000
  C   C51       1.0  0.61666  0.25260  0.46728  1.0000
  C   C52       1.0  0.38334  0.75260  0.03272  1.0000
  N   N1        1.0  0.18201  0.41610  0.20307  1.0000
  N   N2        1.0  0.81800  0.91610  0.29693  1.0000
  N   N3        1.0  0.81800  0.58390  0.79693  1.0000
  N   N4        1.0  0.18200  0.08390  0.70307  1.0000
  N   N5        1.0  0.68152  0.37605  0.26013  1.0000
  N   N6        1.0  0.31848  0.87605  0.23987  1.0000
  N   N7        1.0  0.31848  0.62395  0.73987  1.0000
  N   N8        1.0  0.68152  0.12395  0.76013  1.0000
  N   N9        1.0  0.42354  0.82666  0.58469  1.0000
  N   N10       1.0  0.57646  0.32666  0.91531  1.0000
  N   N11       1.0  0.57646  0.17334  0.41531  1.0000
  N   N12       1.0  0.42354  0.67334  0.08469  1.0000
  O   O1        1.0  0.67575  0.50984  0.24822  1.0000
  O   O2        1.0  0.32425  0.00984  0.25178  1.0000
  O   O3        1.0  0.32425  0.49016  0.75178  1.0000
  O   O4        1.0  0.67575  0.99016  0.74822  1.0000
  O   O5        1.0  0.55503  0.30203  0.23685  1.0000
  O   O6        1.0  0.44497  0.80203  0.26315  1.0000
  O   O7        1.0  0.44497  0.69797  0.76315  1.0000
  O   O8        1.0  0.55503  0.19797  0.73685  1.0000
  O   O9        1.0  0.80989  0.31763  0.29513  1.0000
  O   O10       1.0  0.19011  0.81763  0.20487  1.0000
  O   O11       1.0  0.19011  0.68237  0.70487  1.0000
  O   O12       1.0  0.80989  0.18237  0.79513  1.0000
