data_image0
_chemical_formula_structural       Ag4H60C52N8Cl4O16
_chemical_formula_sum              "Ag4 H60 C52 N8 Cl4 O16"
_cell_length_a       5.65118
_cell_length_b       15.675
_cell_length_c       16.1137
_cell_angle_alpha    90
_cell_angle_beta     90
_cell_angle_gamma    95.1408

_space_group_name_H-M_alt    "P 1"
_space_group_IT_number       1

loop_
  _space_group_symop_operation_xyz
  'x, y, z'

loop_
  _atom_site_type_symbol
  _atom_site_label
  _atom_site_symmetry_multiplicity
  _atom_site_fract_x
  _atom_site_fract_y
  _atom_site_fract_z
  _atom_site_occupancy
  Ag  Ag1       1.0  0.42488  0.22658  0.63186  1.0000
  Ag  Ag2       1.0  0.57511  0.27343  0.13186  1.0000
  Ag  Ag3       1.0  0.57511  0.77342  0.36815  1.0000
  Ag  Ag4       1.0  0.42490  0.72658  0.86814  1.0000
  H   H1        1.0  0.82810  0.43357  0.49900  1.0000
  H   H2        1.0  0.17188  0.06643  0.99900  1.0000
  H   H3        1.0  0.17192  0.56644  0.50100  1.0000
  H   H4        1.0  0.82810  0.93356  0.00100  1.0000
  H   H5        1.0  0.50173  0.46336  0.40121  1.0000
  H   H6        1.0  0.49827  0.03664  0.90122  1.0000
  H   H7        1.0  0.49830  0.53664  0.59879  1.0000
  H   H8        1.0  0.50174  0.96336  0.09879  1.0000
  H   H9        1.0  0.17973  0.30268  0.27270  1.0000
  H   H10       1.0  0.82023  0.19733  0.77270  1.0000
  H   H11       1.0  0.82027  0.69732  0.72730  1.0000
  H   H12       1.0  0.17975  0.80268  0.22730  1.0000
  H   H13       1.0  0.21298  0.41361  0.30057  1.0000
  H   H14       1.0  0.78703  0.08640  0.80056  1.0000
  H   H15       1.0  0.78704  0.58640  0.69943  1.0000
  H   H16       1.0  0.21298  0.91361  0.19943  1.0000
  H   H17       1.0  0.71479  0.44818  0.23443  1.0000
  H   H18       1.0  0.28521  0.05182  0.73443  1.0000
  H   H19       1.0  0.28525  0.55182  0.76557  1.0000
  H   H20       1.0  0.71478  0.94818  0.26558  1.0000
  H   H21       1.0  0.47313  0.51130  0.21974  1.0000
  H   H22       1.0  0.52687  0.98870  0.71974  1.0000
  H   H23       1.0  0.52689  0.48870  0.78026  1.0000
  H   H24       1.0  0.47312  0.01130  0.28026  1.0000
  H   H25       1.0  0.75613  0.42945  0.08302  1.0000
  H   H26       1.0  0.24386  0.07054  0.58302  1.0000
  H   H27       1.0  0.24388  0.57055  0.91697  1.0000
  H   H28       1.0  0.75613  0.92946  0.41698  1.0000
  H   H29       1.0  0.77754  0.53894  0.11092  1.0000
  H   H30       1.0  0.22247  0.96105  0.61092  1.0000
  H   H31       1.0  0.22246  0.46106  0.88907  1.0000
  H   H32       1.0  0.77754  0.03895  0.38908  1.0000
  H   H33       1.0  0.36666  0.55094  0.06310  1.0000
  H   H34       1.0  0.63335  0.94906  0.56310  1.0000
  H   H35       1.0  0.63334  0.44906  0.93690  1.0000
  H   H36       1.0  0.36665  0.05094  0.43690  1.0000
  H   H37       1.0  0.10649  0.42651  0.01491  1.0000
  H   H38       1.0  0.89351  0.07349  0.51492  1.0000
  H   H39       1.0  0.89351  0.57349  0.98509  1.0000
  H   H40       1.0  0.10650  0.92651  0.48509  1.0000
  H   H41       1.0  0.34013  0.35933  0.02298  1.0000
  H   H42       1.0  0.65988  0.14067  0.52297  1.0000
  H   H43       1.0  0.65987  0.64067  0.97702  1.0000
  H   H44       1.0  0.34013  0.85933  0.47703  1.0000
  H   H45       1.0  0.10774  0.45000  0.16672  1.0000
  H   H46       1.0  0.89226  0.05000  0.66672  1.0000
  H   H47       1.0  0.89228  0.55000  0.83328  1.0000
  H   H48       1.0  0.10774  0.95000  0.33328  1.0000
  H   H49       1.0  0.06506  0.33830  0.14248  1.0000
  H   H50       1.0  0.93493  0.16170  0.64248  1.0000
  H   H51       1.0  0.93494  0.66170  0.85752  1.0000
  H   H52       1.0  0.06506  0.83830  0.35752  1.0000
  H   H53       1.0  0.88137  0.18942  0.37811  1.0000
  H   H54       1.0  0.11860  0.31058  0.87811  1.0000
  H   H55       1.0  0.11861  0.81058  0.62190  1.0000
  H   H56       1.0  0.88139  0.68941  0.12189  1.0000
  H   H57       1.0  0.53886  0.21499  0.28905  1.0000
  H   H58       1.0  0.46116  0.28501  0.78905  1.0000
  H   H59       1.0  0.46113  0.78501  0.71096  1.0000
  H   H60       1.0  0.53887  0.71498  0.21095  1.0000
  C   C1        1.0  0.06700  0.29298  0.49583  1.0000
  C   C2        1.0  0.93297  0.20702  0.99583  1.0000
  C   C3        1.0  0.93299  0.70702  0.50417  1.0000
  C   C4        1.0  0.06701  0.79297  0.00416  1.0000
  C   C5        1.0  0.87508  0.31026  0.44382  1.0000
  C   C6        1.0  0.12490  0.18973  0.94382  1.0000
  C   C7        1.0  0.12491  0.68973  0.55618  1.0000
  C   C8        1.0  0.87509  0.81026  0.05618  1.0000
  C   C9        1.0  0.76681  0.38733  0.45147  1.0000
  C   C10       1.0  0.23317  0.11267  0.95147  1.0000
  C   C11       1.0  0.23321  0.61267  0.54853  1.0000
  C   C12       1.0  0.76682  0.88733  0.04853  1.0000
  C   C13       1.0  0.58305  0.40286  0.39764  1.0000
  C   C14       1.0  0.41694  0.09713  0.89764  1.0000
  C   C15       1.0  0.41698  0.59714  0.60236  1.0000
  C   C16       1.0  0.58306  0.90286  0.10236  1.0000
  C   C17       1.0  0.50165  0.34197  0.33803  1.0000
  C   C18       1.0  0.49833  0.15804  0.83802  1.0000
  C   C19       1.0  0.49835  0.65803  0.66198  1.0000
  C   C20       1.0  0.50167  0.84196  0.16198  1.0000
  C   C21       1.0  0.30725  0.35946  0.27843  1.0000
  C   C22       1.0  0.69273  0.14055  0.77843  1.0000
  C   C23       1.0  0.69276  0.64055  0.72157  1.0000
  C   C24       1.0  0.30727  0.85945  0.22157  1.0000
  C   C25       1.0  0.56535  0.45852  0.19333  1.0000
  C   C26       1.0  0.43465  0.04148  0.69333  1.0000
  C   C27       1.0  0.43467  0.54148  0.80667  1.0000
  C   C28       1.0  0.56534  0.95852  0.30667  1.0000
  C   C29       1.0  0.65332  0.48119  0.10631  1.0000
  C   C30       1.0  0.34668  0.01881  0.60631  1.0000
  C   C31       1.0  0.34669  0.51881  0.89369  1.0000
  C   C32       1.0  0.65332  0.98119  0.39369  1.0000
  C   C33       1.0  0.45269  0.49319  0.04457  1.0000
  C   C34       1.0  0.54731  0.00681  0.54457  1.0000
  C   C35       1.0  0.54731  0.50681  0.95543  1.0000
  C   C36       1.0  0.45268  0.99319  0.45543  1.0000
  C   C37       1.0  0.26672  0.41581  0.05075  1.0000
  C   C38       1.0  0.73327  0.08418  0.55075  1.0000
  C   C39       1.0  0.73328  0.58418  0.94925  1.0000
  C   C40       1.0  0.26673  0.91582  0.44925  1.0000
  C   C41       1.0  0.19210  0.39556  0.13980  1.0000
  C   C42       1.0  0.80789  0.10444  0.63981  1.0000
  C   C43       1.0  0.80791  0.60444  0.86020  1.0000
  C   C44       1.0  0.19210  0.89556  0.36020  1.0000
  C   C45       1.0  0.79475  0.24844  0.38428  1.0000
  C   C46       1.0  0.20525  0.25157  0.88428  1.0000
  C   C47       1.0  0.20525  0.75156  0.61572  1.0000
  C   C48       1.0  0.79474  0.74843  0.11572  1.0000
  C   C49       1.0  0.60606  0.26417  0.33308  1.0000
  C   C50       1.0  0.39393  0.23582  0.83309  1.0000
  C   C51       1.0  0.39393  0.73582  0.66692  1.0000
  C   C52       1.0  0.60609  0.76417  0.16691  1.0000
  N   N1        1.0  0.39896  0.37920  0.19289  1.0000
  N   N2        1.0  0.60103  0.12080  0.69289  1.0000
  N   N3        1.0  0.60106  0.62080  0.80711  1.0000
  N   N4        1.0  0.39895  0.87920  0.30711  1.0000
  N   N5        1.0  0.22553  0.27634  0.53721  1.0000
  N   N6        1.0  0.77443  0.22366  0.03720  1.0000
  N   N7        1.0  0.77445  0.72366  0.46279  1.0000
  N   N8        1.0  0.22556  0.77634  0.96279  1.0000
  Cl  Cl1       1.0  0.95613  0.38633  0.70376  1.0000
  Cl  Cl2       1.0  0.04384  0.11368  0.20376  1.0000
  Cl  Cl3       1.0  0.04385  0.61368  0.29624  1.0000
  Cl  Cl4       1.0  0.95616  0.88632  0.79624  1.0000
  O   O1        1.0  0.82556  0.31026  0.66663  1.0000
  O   O2        1.0  0.17441  0.18975  0.16663  1.0000
  O   O3        1.0  0.17440  0.68975  0.33337  1.0000
  O   O4        1.0  0.82560  0.81025  0.83337  1.0000
  O   O5        1.0  0.20923  0.37392  0.70577  1.0000
  O   O6        1.0  0.79074  0.12609  0.20577  1.0000
  O   O7        1.0  0.79075  0.62608  0.29422  1.0000
  O   O8        1.0  0.20926  0.87391  0.79422  1.0000
  O   O9        1.0  0.87009  0.39733  0.78848  1.0000
  O   O10       1.0  0.12987  0.10268  0.28848  1.0000
  O   O11       1.0  0.12991  0.60268  0.21152  1.0000
  O   O12       1.0  0.87011  0.89732  0.71152  1.0000
  O   O13       1.0  0.91710  0.46146  0.65378  1.0000
  O   O14       1.0  0.08289  0.03855  0.15378  1.0000
  O   O15       1.0  0.08288  0.53855  0.34622  1.0000
  O   O16       1.0  0.91712  0.96146  0.84621  1.0000
