data_image0
_chemical_formula_structural       Zn2H16C20O12
_chemical_formula_sum              "Zn2 H16 C20 O12"
_cell_length_a       7.66362
_cell_length_b       8.27736
_cell_length_c       9.41426
_cell_angle_alpha    116.048
_cell_angle_beta     98.2553
_cell_angle_gamma    89.9544

_space_group_name_H-M_alt    "P 1"
_space_group_IT_number       1

loop_
  _space_group_symop_operation_xyz
  'x, y, z'

loop_
  _atom_site_type_symbol
  _atom_site_label
  _atom_site_symmetry_multiplicity
  _atom_site_fract_x
  _atom_site_fract_y
  _atom_site_fract_z
  _atom_site_occupancy
  Zn  Zn1       1.0  0.75000  0.05787  0.99999  1.0000
  Zn  Zn2       1.0  0.25000  0.94212  0.00001  1.0000
  H   H1        1.0  0.22287  0.87014  0.52525  1.0000
  H   H2        1.0  0.27708  0.34438  0.47512  1.0000
  H   H3        1.0  0.77713  0.12985  0.47475  1.0000
  H   H4        1.0  0.72292  0.65562  0.52487  1.0000
  H   H5        1.0  0.11656  0.64275  0.28998  1.0000
  H   H6        1.0  0.38368  0.35280  0.71033  1.0000
  H   H7        1.0  0.88343  0.35726  0.71003  1.0000
  H   H8        1.0  0.61631  0.64720  0.28966  1.0000
  H   H9        1.0  0.01867  0.67212  0.11787  1.0000
  H   H10       1.0  0.48168  0.55419  0.88208  1.0000
  H   H11       1.0  0.98133  0.32789  0.88213  1.0000
  H   H12       1.0  0.51832  0.44580  0.11791  1.0000
  H   H13       1.0  0.01452  0.84769  0.31475  1.0000
  H   H14       1.0  0.48543  0.53257  0.68499  1.0000
  H   H15       1.0  0.98549  0.15233  0.68526  1.0000
  H   H16       1.0  0.51458  0.46742  0.31500  1.0000
  C   C1        1.0  0.53441  0.97783  0.34910  1.0000
  C   C2        1.0  0.96566  0.62913  0.65073  1.0000
  C   C3        1.0  0.46559  0.02217  0.65091  1.0000
  C   C4        1.0  0.03434  0.37087  0.34927  1.0000
  C   C5        1.0  0.37323  0.90344  0.36064  1.0000
  C   C6        1.0  0.12677  0.54286  0.63939  1.0000
  C   C7        1.0  0.62677  0.09656  0.63937  1.0000
  C   C8        1.0  0.87323  0.45714  0.36060  1.0000
  C   C9        1.0  0.34334  0.92689  0.51117  1.0000
  C   C10       1.0  0.15660  0.41535  0.48905  1.0000
  C   C11       1.0  0.65666  0.07311  0.48883  1.0000
  C   C12       1.0  0.84340  0.58465  0.51095  1.0000
  C   C13       1.0  0.58378  0.95960  0.19525  1.0000
  C   C14       1.0  0.91626  0.76476  0.80449  1.0000
  C   C15       1.0  0.41622  0.04039  0.80475  1.0000
  C   C16       1.0  0.08375  0.23523  0.19552  1.0000
  C   C17       1.0  0.09139  0.73938  0.23978  1.0000
  C   C18       1.0  0.40876  0.49951  0.76024  1.0000
  C   C19       1.0  0.90860  0.26063  0.76023  1.0000
  C   C20       1.0  0.59124  0.50048  0.23976  1.0000
  O   O1        1.0  0.73246  0.03485  0.20201  1.0000
  O   O2        1.0  0.76749  0.83331  0.79769  1.0000
  O   O3        1.0  0.26754  0.96515  0.79800  1.0000
  O   O4        1.0  0.23251  0.16669  0.20231  1.0000
  O   O5        1.0  0.48293  0.86913  0.06171  1.0000
  O   O6        1.0  0.01712  0.80773  0.93808  1.0000
  O   O7        1.0  0.51707  0.13086  0.93829  1.0000
  O   O8        1.0  0.98288  0.19226  0.06192  1.0000
  O   O9        1.0  0.25446  0.81149  0.22494  1.0000
  O   O10       1.0  0.24566  0.58665  0.77509  1.0000
  O   O11       1.0  0.74554  0.18851  0.77506  1.0000
  O   O12       1.0  0.75435  0.41336  0.22491  1.0000
