data_image0
_chemical_formula_structural       Ag2H8C12N6O6
_chemical_formula_sum              "Ag2 H8 C12 N6 O6"
_cell_length_a       5.0389
_cell_length_b       6.21253
_cell_length_c       11.0309
_cell_angle_alpha    85.9675
_cell_angle_beta     90.0031
_cell_angle_gamma    86.4673

_space_group_name_H-M_alt    "P 1"
_space_group_IT_number       1

loop_
  _space_group_symop_operation_xyz
  'x, y, z'

loop_
  _atom_site_type_symbol
  _atom_site_label
  _atom_site_symmetry_multiplicity
  _atom_site_fract_x
  _atom_site_fract_y
  _atom_site_fract_z
  _atom_site_occupancy
  Ag  Ag1       1.0  0.17759  0.17174  0.53071  1.0000
  Ag  Ag2       1.0  0.82241  0.82827  0.46930  1.0000
  H   H1        1.0  0.03013  0.13539  0.82657  1.0000
  H   H2        1.0  0.96988  0.86461  0.17343  1.0000
  H   H3        1.0  0.71233  0.03165  0.66807  1.0000
  H   H4        1.0  0.28767  0.96834  0.33194  1.0000
  H   H5        1.0  0.71065  0.92189  0.02014  1.0000
  H   H6        1.0  0.28935  0.07811  0.97986  1.0000
  H   H7        1.0  0.90910  0.70037  0.96870  1.0000
  H   H8        1.0  0.09089  0.29965  0.03130  1.0000
  C   C1        1.0  0.45436  0.51645  0.71346  1.0000
  C   C2        1.0  0.54564  0.48355  0.28654  1.0000
  C   C3        1.0  0.60362  0.55719  0.81687  1.0000
  C   C4        1.0  0.39638  0.44281  0.18313  1.0000
  C   C5        1.0  0.85813  0.24251  0.79888  1.0000
  C   C6        1.0  0.14188  0.75749  0.20112  1.0000
  C   C7        1.0  0.69107  0.18850  0.70648  1.0000
  C   C8        1.0  0.30892  0.81149  0.29352  1.0000
  C   C9        1.0  0.27070  0.68175  0.64336  1.0000
  C   C10       1.0  0.72930  0.31825  0.35664  1.0000
  C   C11       1.0  0.54173  0.74906  0.89017  1.0000
  C   C12       1.0  0.45826  0.25095  0.10983  1.0000
  N   N1        1.0  0.49110  0.32496  0.66387  1.0000
  N   N2        1.0  0.50889  0.67505  0.33613  1.0000
  N   N3        1.0  0.80665  0.42119  0.85707  1.0000
  N   N4        1.0  0.19337  0.57881  0.14294  1.0000
  N   N5        1.0  0.73499  0.79327  0.96566  1.0000
  N   N6        1.0  0.26500  0.20674  0.03434  1.0000
  O   O1        1.0  0.04217  0.62681  0.61580  1.0000
  O   O2        1.0  0.95783  0.37318  0.38420  1.0000
  O   O3        1.0  0.37672  0.85648  0.61025  1.0000
  O   O4        1.0  0.62329  0.14352  0.38975  1.0000
  O   O5        1.0  0.32119  0.85433  0.88010  1.0000
  O   O6        1.0  0.67881  0.14566  0.11990  1.0000
