data_image0
_chemical_formula_structural       Mn2H16C20O12
_chemical_formula_sum              "Mn2 H16 C20 O12"
_cell_length_a       7.5917
_cell_length_b       8.30039
_cell_length_c       9.42518
_cell_angle_alpha    116.074
_cell_angle_beta     98.7761
_cell_angle_gamma    90.002

_space_group_name_H-M_alt    "P 1"
_space_group_IT_number       1

loop_
  _space_group_symop_operation_xyz
  'x, y, z'

loop_
  _atom_site_type_symbol
  _atom_site_label
  _atom_site_symmetry_multiplicity
  _atom_site_fract_x
  _atom_site_fract_y
  _atom_site_fract_z
  _atom_site_occupancy
  Mn  Mn1       1.0  0.75006  0.07162  0.99987  1.0000
  Mn  Mn2       1.0  0.24994  0.92838  0.00012  1.0000
  H   H1        1.0  0.21458  0.86781  0.51213  1.0000
  H   H2        1.0  0.28496  0.35497  0.48808  1.0000
  H   H3        1.0  0.78542  0.13219  0.48787  1.0000
  H   H4        1.0  0.71504  0.64503  0.51192  1.0000
  H   H5        1.0  0.12469  0.63299  0.27581  1.0000
  H   H6        1.0  0.37589  0.35797  0.72494  1.0000
  H   H7        1.0  0.87531  0.36701  0.72419  1.0000
  H   H8        1.0  0.62412  0.64203  0.27506  1.0000
  H   H9        1.0  0.02868  0.65782  0.09992  1.0000
  H   H10       1.0  0.47177  0.55898  0.90032  1.0000
  H   H11       1.0  0.97132  0.34218  0.90007  1.0000
  H   H12       1.0  0.52823  0.44102  0.09968  1.0000
  H   H13       1.0  0.01556  0.83282  0.29418  1.0000
  H   H14       1.0  0.48462  0.53915  0.70568  1.0000
  H   H15       1.0  0.98444  0.16718  0.70582  1.0000
  H   H16       1.0  0.51538  0.46086  0.29432  1.0000
  C   C1        1.0  0.54320  0.97759  0.35194  1.0000
  C   C2        1.0  0.95721  0.62632  0.64790  1.0000
  C   C3        1.0  0.45680  0.02241  0.64806  1.0000
  C   C4        1.0  0.04279  0.37368  0.35210  1.0000
  C   C5        1.0  0.37813  0.90097  0.35597  1.0000
  C   C6        1.0  0.12200  0.54519  0.64406  1.0000
  C   C7        1.0  0.62187  0.09904  0.64403  1.0000
  C   C8        1.0  0.87800  0.45480  0.35594  1.0000
  C   C9        1.0  0.33908  0.92503  0.50360  1.0000
  C   C10       1.0  0.16060  0.42093  0.49654  1.0000
  C   C11       1.0  0.66093  0.07498  0.49640  1.0000
  C   C12       1.0  0.83940  0.57906  0.50346  1.0000
  C   C13       1.0  0.59958  0.96397  0.20263  1.0000
  C   C14       1.0  0.90072  0.76181  0.79714  1.0000
  C   C15       1.0  0.40042  0.03604  0.79737  1.0000
  C   C16       1.0  0.09928  0.23818  0.20286  1.0000
  C   C17       1.0  0.09787  0.72757  0.22380  1.0000
  C   C18       1.0  0.40255  0.50446  0.77641  1.0000
  C   C19       1.0  0.90213  0.27243  0.77620  1.0000
  C   C20       1.0  0.59745  0.49554  0.22359  1.0000
  O   O1        1.0  0.74637  0.04734  0.21420  1.0000
  O   O2        1.0  0.75401  0.83359  0.78531  1.0000
  O   O3        1.0  0.25363  0.95266  0.78580  1.0000
  O   O4        1.0  0.24598  0.16641  0.21469  1.0000
  O   O5        1.0  0.50150  0.87133  0.06571  1.0000
  O   O6        1.0  0.99848  0.80574  0.93422  1.0000
  O   O7        1.0  0.49850  0.12867  0.93429  1.0000
  O   O8        1.0  0.00152  0.19426  0.06578  1.0000
  O   O9        1.0  0.26280  0.80565  0.21520  1.0000
  O   O10       1.0  0.23748  0.59096  0.78483  1.0000
  O   O11       1.0  0.73721  0.19435  0.78480  1.0000
  O   O12       1.0  0.76252  0.40904  0.21517  1.0000
