data_image0
_chemical_formula_structural       Ag2H16C20N6O6
_chemical_formula_sum              "Ag2 H16 C20 N6 O6"
_cell_length_a       5.27676
_cell_length_b       9.78808
_cell_length_c       10.8965
_cell_angle_alpha    94.8335
_cell_angle_beta     103.6
_cell_angle_gamma    101.945

_space_group_name_H-M_alt    "P 1"
_space_group_IT_number       1

loop_
  _space_group_symop_operation_xyz
  'x, y, z'

loop_
  _atom_site_type_symbol
  _atom_site_label
  _atom_site_symmetry_multiplicity
  _atom_site_fract_x
  _atom_site_fract_y
  _atom_site_fract_z
  _atom_site_occupancy
  Ag  Ag1       1.0  0.63432  0.86985  0.63913  1.0000
  Ag  Ag2       1.0  0.36569  0.13014  0.36087  1.0000
  H   H1        1.0  0.82451  0.58468  0.57321  1.0000
  H   H2        1.0  0.17550  0.41530  0.42680  1.0000
  H   H3        1.0  0.75794  0.33327  0.61324  1.0000
  H   H4        1.0  0.24204  0.66673  0.38677  1.0000
  H   H5        1.0  0.47843  0.24829  0.75905  1.0000
  H   H6        1.0  0.52152  0.75170  0.24095  1.0000
  H   H7        1.0  0.32136  0.66373  0.79786  1.0000
  H   H8        1.0  0.67864  0.33627  0.20214  1.0000
  H   H9        1.0  0.05169  0.17869  0.70864  1.0000
  H   H10       1.0  0.94827  0.82132  0.29135  1.0000
  H   H11       1.0  0.07505  0.39003  0.07760  1.0000
  H   H12       1.0  0.92495  0.60998  0.92240  1.0000
  H   H13       1.0  0.79453  0.16115  0.11437  1.0000
  H   H14       1.0  0.20554  0.83884  0.88563  1.0000
  H   H15       1.0  0.64264  0.95846  0.93813  1.0000
  H   H16       1.0  0.35740  0.04154  0.06189  1.0000
  C   C1        1.0  0.69835  0.54384  0.63442  1.0000
  C   C2        1.0  0.30164  0.45616  0.36557  1.0000
  C   C3        1.0  0.66318  0.40469  0.65863  1.0000
  C   C4        1.0  0.33679  0.59531  0.34136  1.0000
  C   C5        1.0  0.50337  0.35653  0.73868  1.0000
  C   C6        1.0  0.49661  0.64347  0.26132  1.0000
  C   C7        1.0  0.38013  0.45200  0.79021  1.0000
  C   C8        1.0  0.61987  0.54800  0.20979  1.0000
  C   C9        1.0  0.41917  0.58919  0.75877  1.0000
  C   C10       1.0  0.58082  0.41081  0.24123  1.0000
  C   C11       1.0  0.00144  0.18039  0.80006  1.0000
  C   C12       1.0  0.99853  0.81962  0.19993  1.0000
  C   C13       1.0  0.08943  0.29987  0.89280  1.0000
  C   C14       1.0  0.91056  0.70014  0.10719  1.0000
  C   C15       1.0  0.01188  0.29594  0.00689  1.0000
  C   C16       1.0  0.98812  0.70407  0.99312  1.0000
  C   C17       1.0  0.85083  0.17177  0.02495  1.0000
  C   C18       1.0  0.14920  0.82822  0.97505  1.0000
  C   C19       1.0  0.76852  0.05772  0.92758  1.0000
  C   C20       1.0  0.23152  0.94228  0.07243  1.0000
  N   N1        1.0  0.57703  0.63501  0.68377  1.0000
  N   N2        1.0  0.42299  0.36499  0.31624  1.0000
  N   N3        1.0  0.84145  0.06216  0.81802  1.0000
  N   N4        1.0  0.15854  0.93784  0.18198  1.0000
  N   N5        1.0  0.96779  0.12253  0.41617  1.0000
  N   N6        1.0  0.03222  0.87748  0.58383  1.0000
  O   O1        1.0  0.23297  0.42945  0.87864  1.0000
  O   O2        1.0  0.76701  0.57054  0.12135  1.0000
  O   O3        1.0  0.95077  0.21618  0.49798  1.0000
  O   O4        1.0  0.04926  0.78383  0.50203  1.0000
  O   O5        1.0  0.74871  0.05118  0.34032  1.0000
  O   O6        1.0  0.25129  0.94884  0.65967  1.0000
