data_image0
_chemical_formula_structural       Tl2H24Au2C32N4Cl20
_chemical_formula_sum              "Tl2 H24 Au2 C32 N4 Cl20"
_cell_length_a       9.34117
_cell_length_b       12.1718
_cell_length_c       12.0413
_cell_angle_alpha    100.32
_cell_angle_beta     93.3646
_cell_angle_gamma    110.827

_space_group_name_H-M_alt    "P 1"
_space_group_IT_number       1

loop_
  _space_group_symop_operation_xyz
  'x, y, z'

loop_
  _atom_site_type_symbol
  _atom_site_label
  _atom_site_symmetry_multiplicity
  _atom_site_fract_x
  _atom_site_fract_y
  _atom_site_fract_z
  _atom_site_occupancy
  Tl  Tl1       1.0  0.44642  0.24697  0.03019  1.0000
  Tl  Tl2       1.0  0.55358  0.75303  0.96981  1.0000
  H   H1        1.0  0.43539  0.29391  0.29669  1.0000
  H   H2        1.0  0.56461  0.70609  0.70331  1.0000
  H   H3        1.0  0.26590  0.28021  0.23827  1.0000
  H   H4        1.0  0.73409  0.71979  0.76174  1.0000
  H   H5        1.0  0.23698  0.13243  0.35372  1.0000
  H   H6        1.0  0.76302  0.86757  0.64627  1.0000
  H   H7        1.0  0.36289  0.08228  0.27275  1.0000
  H   H8        1.0  0.63711  0.91771  0.72725  1.0000
  H   H9        1.0  0.17265  0.01103  0.10075  1.0000
  H   H10       1.0  0.82734  0.98896  0.89925  1.0000
  H   H11       1.0  0.05660  0.08362  0.16890  1.0000
  H   H12       1.0  0.94340  0.91638  0.83109  1.0000
  H   H13       1.0  0.03714  0.95299  0.31895  1.0000
  H   H14       1.0  0.96285  0.04701  0.68105  1.0000
  H   H15       1.0  0.10840  0.86307  0.22430  1.0000
  H   H16       1.0  0.89160  0.13692  0.77570  1.0000
  H   H17       1.0  0.81429  0.78971  0.21549  1.0000
  H   H18       1.0  0.18570  0.21029  0.78451  1.0000
  H   H19       1.0  0.82167  0.92087  0.16933  1.0000
  H   H20       1.0  0.17832  0.07913  0.83066  1.0000
  H   H21       1.0  0.87913  0.71306  0.04468  1.0000
  H   H22       1.0  0.12087  0.28694  0.95532  1.0000
  H   H23       1.0  0.93930  0.84146  0.00400  1.0000
  H   H24       1.0  0.06069  0.15854  0.99600  1.0000
  Au  Au1       1.0  0.50000  0.50000  0.00000  1.0000
  Au  Au2       1.0  0.50001  1.00000  1.00000  1.0000
  C   C1        1.0  0.44298  0.53919  0.16152  1.0000
  C   C2        1.0  0.55702  0.46081  0.83847  1.0000
  C   C3        1.0  0.54469  0.55933  0.26008  1.0000
  C   C4        1.0  0.45532  0.44068  0.73992  1.0000
  C   C5        1.0  0.51670  0.60177  0.36995  1.0000
  C   C6        1.0  0.48329  0.39824  0.63005  1.0000
  C   C7        1.0  0.37926  0.62250  0.38357  1.0000
  C   C8        1.0  0.62074  0.37751  0.61643  1.0000
  C   C9        1.0  0.27168  0.59948  0.28722  1.0000
  C   C10       1.0  0.72832  0.40052  0.71278  1.0000
  C   C11       1.0  0.30540  0.55786  0.17912  1.0000
  C   C12       1.0  0.69459  0.44214  0.82089  1.0000
  C   C13       1.0  0.63528  0.05705  0.15747  1.0000
  C   C14       1.0  0.36473  0.94295  0.84253  1.0000
  C   C15       1.0  0.59921  0.99375  0.24554  1.0000
  C   C16       1.0  0.40080  0.00626  0.75445  1.0000
  C   C17       1.0  0.69805  0.02301  0.34814  1.0000
  C   C18       1.0  0.30196  0.97699  0.65186  1.0000
  C   C19       1.0  0.83727  0.12376  0.36750  1.0000
  C   C20       1.0  0.16274  0.87625  0.63250  1.0000
  C   C21       1.0  0.87256  0.19468  0.28528  1.0000
  C   C22       1.0  0.12745  0.80532  0.71472  1.0000
  C   C23       1.0  0.77384  0.15870  0.18177  1.0000
  C   C24       1.0  0.22617  0.84130  0.81823  1.0000
  C   C25       1.0  0.27406  0.12159  0.26843  1.0000
  C   C26       1.0  0.72594  0.87841  0.73157  1.0000
  C   C27       1.0  0.13451  0.03582  0.18337  1.0000
  C   C28       1.0  0.86549  0.96418  0.81663  1.0000
  C   C29       1.0  0.04471  0.92404  0.22809  1.0000
  C   C30       1.0  0.95528  0.07595  0.77191  1.0000
  C   C31       1.0  0.87955  0.85609  0.16784  1.0000
  C   C32       1.0  0.12045  0.14391  0.83216  1.0000
  N   N1        1.0  0.34412  0.23885  0.23673  1.0000
  N   N2        1.0  0.65588  0.76114  0.76327  1.0000
  N   N3        1.0  0.86100  0.79164  0.04884  1.0000
  N   N4        1.0  0.13899  0.20836  0.95115  1.0000
  Cl  Cl1       1.0  0.71326  0.53094  0.24658  1.0000
  Cl  Cl2       1.0  0.28675  0.46907  0.75342  1.0000
  Cl  Cl3       1.0  0.65095  0.63209  0.48586  1.0000
  Cl  Cl4       1.0  0.34905  0.36792  0.51414  1.0000
  Cl  Cl5       1.0  0.34342  0.67726  0.51615  1.0000
  Cl  Cl6       1.0  0.65657  0.32274  0.48385  1.0000
  Cl  Cl7       1.0  0.10574  0.62754  0.30264  1.0000
  Cl  Cl8       1.0  0.89425  0.37246  0.69736  1.0000
  Cl  Cl9       1.0  0.17233  0.53218  0.06140  1.0000
  Cl  Cl10      1.0  0.82767  0.46782  0.93860  1.0000
  Cl  Cl11      1.0  0.42745  0.87039  0.22661  1.0000
  Cl  Cl12      1.0  0.57256  0.12960  0.77339  1.0000
  Cl  Cl13      1.0  0.65397  0.93669  0.44856  1.0000
  Cl  Cl14      1.0  0.34604  0.06331  0.55144  1.0000
  Cl  Cl15      1.0  0.96379  0.15856  0.48870  1.0000
  Cl  Cl16      1.0  0.03622  0.84145  0.51131  1.0000
  Cl  Cl17      1.0  0.03514  0.32459  0.31312  1.0000
  Cl  Cl18      1.0  0.96487  0.67541  0.68688  1.0000
  Cl  Cl19      1.0  0.82825  0.24480  0.08001  1.0000
  Cl  Cl20      1.0  0.17175  0.75520  0.92000  1.0000
