data_image0
_chemical_formula_structural       Tl2H56Au2C56N4Cl20O8
_chemical_formula_sum              "Tl2 H56 Au2 C56 N4 Cl20 O8"
_cell_length_a       11.5412
_cell_length_b       12.8401
_cell_length_c       15.192
_cell_angle_alpha    105.306
_cell_angle_beta     103.454
_cell_angle_gamma    111.675

_space_group_name_H-M_alt    "P 1"
_space_group_IT_number       1

loop_
  _space_group_symop_operation_xyz
  'x, y, z'

loop_
  _atom_site_type_symbol
  _atom_site_label
  _atom_site_symmetry_multiplicity
  _atom_site_fract_x
  _atom_site_fract_y
  _atom_site_fract_z
  _atom_site_occupancy
  Tl  Tl1       1.0  0.78186  0.99746  0.08237  1.0000
  Tl  Tl2       1.0  0.21814  0.00254  0.91763  1.0000
  H   H1        1.0  0.11765  0.19756  0.32999  1.0000
  H   H2        1.0  0.88234  0.80243  0.67000  1.0000
  H   H3        1.0  0.11719  0.25412  0.45119  1.0000
  H   H4        1.0  0.88281  0.74588  0.54880  1.0000
  H   H5        1.0  0.00685  0.25870  0.35010  1.0000
  H   H6        1.0  0.99314  0.74129  0.64990  1.0000
  H   H7        1.0  0.95926  0.12533  0.50090  1.0000
  H   H8        1.0  0.04075  0.87467  0.49910  1.0000
  H   H9        1.0  0.75626  0.84506  0.50305  1.0000
  H   H10       1.0  0.24374  0.15494  0.49695  1.0000
  H   H11       1.0  0.65869  0.92253  0.48745  1.0000
  H   H12       1.0  0.34131  0.07747  0.51255  1.0000
  H   H13       1.0  0.83024  0.00574  0.56589  1.0000
  H   H14       1.0  0.16976  0.99426  0.43411  1.0000
  H   H15       1.0  0.76354  0.87978  0.26996  1.0000
  H   H16       1.0  0.23645  0.12022  0.73004  1.0000
  H   H17       1.0  0.53905  0.72312  0.22742  1.0000
  H   H18       1.0  0.46094  0.27688  0.77258  1.0000
  H   H19       1.0  0.57139  0.74515  0.35249  1.0000
  H   H20       1.0  0.42861  0.25484  0.64751  1.0000
  H   H21       1.0  0.56122  0.55257  0.25401  1.0000
  H   H22       1.0  0.43877  0.44743  0.74599  1.0000
  H   H23       1.0  0.69704  0.63435  0.22188  1.0000
  H   H24       1.0  0.30296  0.36565  0.77812  1.0000
  H   H25       1.0  0.70555  0.47749  0.29750  1.0000
  H   H26       1.0  0.29445  0.52251  0.70250  1.0000
  H   H27       1.0  0.77484  0.53723  0.42765  1.0000
  H   H28       1.0  0.22516  0.46277  0.57235  1.0000
  H   H29       1.0  0.99600  0.66932  0.42873  1.0000
  H   H30       1.0  0.00400  0.33069  0.57127  1.0000
  H   H31       1.0  0.93952  0.51284  0.35881  1.0000
  H   H32       1.0  0.06049  0.48717  0.64119  1.0000
  H   H33       1.0  0.10841  0.78148  0.34958  1.0000
  H   H34       1.0  0.89159  0.21852  0.65042  1.0000
  H   H35       1.0  0.95431  0.79179  0.32850  1.0000
  H   H36       1.0  0.04569  0.20821  0.67150  1.0000
  H   H37       1.0  0.07171  0.85247  0.21707  1.0000
  H   H38       1.0  0.92829  0.14753  0.78292  1.0000
  H   H39       1.0  0.05647  0.70463  0.16817  1.0000
  H   H40       1.0  0.94353  0.29537  0.83182  1.0000
  H   H41       1.0  0.83421  0.77630  0.14099  1.0000
  H   H42       1.0  0.16579  0.22371  0.85902  1.0000
  H   H43       1.0  0.94443  0.55447  0.02900  1.0000
  H   H44       1.0  0.05557  0.44553  0.97100  1.0000
  H   H45       1.0  0.77477  0.44285  0.96298  1.0000
  H   H46       1.0  0.22523  0.55715  0.03702  1.0000
  H   H47       1.0  0.85126  0.48254  0.09189  1.0000
  H   H48       1.0  0.14874  0.51747  0.90812  1.0000
  H   H49       1.0  0.61513  0.50655  0.92982  1.0000
  H   H50       1.0  0.38487  0.49345  0.07018  1.0000
  H   H51       1.0  0.45475  0.71124  0.96163  1.0000
  H   H52       1.0  0.54525  0.28876  0.03837  1.0000
  H   H53       1.0  0.42405  0.55945  0.89640  1.0000
  H   H54       1.0  0.57595  0.44055  0.10360  1.0000
  H   H55       1.0  0.52581  0.68244  0.87185  1.0000
  H   H56       1.0  0.47419  0.31757  0.12815  1.0000
  Au  Au1       1.0  0.50000  1.00000  1.00000  1.0000
  Au  Au2       1.0  0.00000  0.00000  0.00000  1.0000
  C   C1        1.0  0.54313  0.03497  0.14756  1.0000
  C   C2        1.0  0.45687  0.96502  0.85244  1.0000
  C   C3        1.0  0.46932  0.94741  0.17870  1.0000
  C   C4        1.0  0.53068  0.05258  0.82130  1.0000
  C   C5        1.0  0.48231  0.97126  0.27705  1.0000
  C   C6        1.0  0.51770  0.02874  0.72295  1.0000
  C   C7        1.0  0.57766  0.08591  0.34938  1.0000
  C   C8        1.0  0.42235  0.91409  0.65062  1.0000
  C   C9        1.0  0.66029  0.17319  0.32231  1.0000
  C   C10       1.0  0.33972  0.82681  0.67769  1.0000
  C   C11       1.0  0.64053  0.14711  0.22262  1.0000
  C   C12       1.0  0.35947  0.85289  0.77738  1.0000
  C   C13       1.0  0.11928  0.17073  0.11221  1.0000
  C   C14       1.0  0.88072  0.82927  0.88779  1.0000
  C   C15       1.0  0.08779  0.26795  0.12153  1.0000
  C   C16       1.0  0.91221  0.73205  0.87847  1.0000
  C   C17       1.0  0.16108  0.38019  0.20220  1.0000
  C   C18       1.0  0.83892  0.61981  0.79780  1.0000
  C   C19       1.0  0.27603  0.40009  0.27543  1.0000
  C   C20       1.0  0.72397  0.59991  0.72457  1.0000
  C   C21       1.0  0.31406  0.30680  0.26757  1.0000
  C   C22       1.0  0.68594  0.69320  0.73243  1.0000
  C   C23       1.0  0.23399  0.19426  0.18775  1.0000
  C   C24       1.0  0.76602  0.80574  0.81226  1.0000
  C   C25       1.0  0.05467  0.20514  0.37291  1.0000
  C   C26       1.0  0.94533  0.79485  0.62708  1.0000
  C   C27       1.0  0.94687  0.08040  0.35089  1.0000
  C   C28       1.0  0.05313  0.91960  0.64911  1.0000
  C   C29       1.0  0.90536  0.05596  0.42693  1.0000
  C   C30       1.0  0.09464  0.94403  0.57307  1.0000
  C   C31       1.0  0.79819  0.94719  0.41276  1.0000
  C   C32       1.0  0.20181  0.05281  0.58724  1.0000
  C   C33       1.0  0.75896  0.92919  0.49706  1.0000
  C   C34       1.0  0.24103  0.07081  0.50294  1.0000
  C   C35       1.0  0.61595  0.74220  0.29617  1.0000
  C   C36       1.0  0.38405  0.25780  0.70383  1.0000
  C   C37       1.0  0.65347  0.63890  0.27944  1.0000
  C   C38       1.0  0.34653  0.36110  0.72056  1.0000
  C   C39       1.0  0.78015  0.55921  0.36283  1.0000
  C   C40       1.0  0.21985  0.44079  0.63717  1.0000
  C   C41       1.0  0.92002  0.59120  0.36130  1.0000
  C   C42       1.0  0.07998  0.40880  0.63870  1.0000
  C   C43       1.0  0.00473  0.74219  0.29662  1.0000
  C   C44       1.0  0.99527  0.25782  0.70338  1.0000
  C   C45       1.0  0.00906  0.75609  0.20092  1.0000
  C   C46       1.0  0.99095  0.24392  0.79908  1.0000
  C   C47       1.0  0.84454  0.51758  0.03321  1.0000
  C   C48       1.0  0.15546  0.48242  0.96679  1.0000
  C   C49       1.0  0.79839  0.61293  0.05466  1.0000
  C   C50       1.0  0.20161  0.38708  0.94535  1.0000
  C   C51       1.0  0.67345  0.59191  0.99358  1.0000
  C   C52       1.0  0.32656  0.40810  0.00642  1.0000
  C   C53       1.0  0.62284  0.67729  0.00791  1.0000
  C   C54       1.0  0.37716  0.32271  0.99209  1.0000
  C   C55       1.0  0.49863  0.65545  0.93015  1.0000
  C   C56       1.0  0.50137  0.34455  0.06985  1.0000
  N   N1        1.0  0.72840  0.85905  0.32306  1.0000
  N   N2        1.0  0.27159  0.14094  0.67694  1.0000
  N   N3        1.0  0.87711  0.71824  0.13185  1.0000
  N   N4        1.0  0.12290  0.28176  0.86815  1.0000
  Cl  Cl1       1.0  0.35352  0.80360  0.09213  1.0000
  Cl  Cl2       1.0  0.64649  0.19640  0.90788  1.0000
  Cl  Cl3       1.0  0.38065  0.86269  0.30884  1.0000
  Cl  Cl4       1.0  0.61935  0.13732  0.69116  1.0000
  Cl  Cl5       1.0  0.59263  0.11955  0.46950  1.0000
  Cl  Cl6       1.0  0.40737  0.88045  0.53050  1.0000
  Cl  Cl7       1.0  0.78296  0.30998  0.41240  1.0000
  Cl  Cl8       1.0  0.21705  0.69002  0.58760  1.0000
  Cl  Cl9       1.0  0.74355  0.25859  0.19227  1.0000
  Cl  Cl10      1.0  0.25643  0.74140  0.80772  1.0000
  Cl  Cl11      1.0  0.94828  0.24781  0.03153  1.0000
  Cl  Cl12      1.0  0.05172  0.75219  0.96847  1.0000
  Cl  Cl13      1.0  0.10905  0.49090  0.21486  1.0000
  Cl  Cl14      1.0  0.89095  0.50909  0.78515  1.0000
  Cl  Cl15      1.0  0.36683  0.53566  0.37537  1.0000
  Cl  Cl16      1.0  0.63316  0.46434  0.62464  1.0000
  Cl  Cl17      1.0  0.45454  0.33064  0.35696  1.0000
  Cl  Cl18      1.0  0.54546  0.66937  0.64304  1.0000
  Cl  Cl19      1.0  0.27939  0.07922  0.18410  1.0000
  Cl  Cl20      1.0  0.72061  0.92078  0.81590  1.0000
  O   O1        1.0  0.89470  0.00102  0.26281  1.0000
  O   O2        1.0  0.10529  0.99897  0.73719  1.0000
  O   O3        1.0  0.74657  0.65733  0.36938  1.0000
  O   O4        1.0  0.25342  0.34267  0.63062  1.0000
  O   O5        1.0  0.93423  0.61583  0.27663  1.0000
  O   O6        1.0  0.06577  0.38417  0.72336  1.0000
  O   O7        1.0  0.68211  0.77633  0.08460  1.0000
  O   O8        1.0  0.31788  0.22367  0.91540  1.0000
