data_image0
_chemical_formula_structural       Co2H28C32N4O10
_chemical_formula_sum              "Co2 H28 C32 N4 O10"
_cell_length_a       7.34676
_cell_length_b       10.1391
_cell_length_c       10.3043
_cell_angle_alpha    98.3818
_cell_angle_beta     106.956
_cell_angle_gamma    98.971

_space_group_name_H-M_alt    "P 1"
_space_group_IT_number       1

loop_
  _space_group_symop_operation_xyz
  'x, y, z'

loop_
  _atom_site_type_symbol
  _atom_site_label
  _atom_site_symmetry_multiplicity
  _atom_site_fract_x
  _atom_site_fract_y
  _atom_site_fract_z
  _atom_site_occupancy
  Co  Co1       1.0  0.79099  0.29460  0.78394  1.0000
  Co  Co2       1.0  0.20993  0.70558  0.21625  1.0000
  H   H1        1.0  0.23355  0.38310  0.53552  1.0000
  H   H2        1.0  0.76716  0.61819  0.46427  1.0000
  H   H3        1.0  0.38680  0.54093  0.55776  1.0000
  H   H4        1.0  0.61579  0.45999  0.44367  1.0000
  H   H5        1.0  0.25899  0.61845  0.76779  1.0000
  H   H6        1.0  0.74258  0.38221  0.23309  1.0000
  H   H7        1.0  0.09657  0.59566  0.59624  1.0000
  H   H8        1.0  0.90489  0.40483  0.40470  1.0000
  H   H9        1.0  0.35032  0.17029  0.64294  1.0000
  H   H10       1.0  0.65057  0.83116  0.35706  1.0000
  H   H11       1.0  0.17265  0.92832  0.54213  1.0000
  H   H12       1.0  0.82684  0.07360  0.45749  1.0000
  H   H13       1.0  0.35099  0.74144  0.56183  1.0000
  H   H14       1.0  0.64739  0.25985  0.43699  1.0000
  H   H15       1.0  0.68569  0.67146  0.67365  1.0000
  H   H16       1.0  0.31233  0.32878  0.32511  1.0000
  H   H17       1.0  0.03344  0.74442  0.80855  1.0000
  H   H18       1.0  0.96431  0.25486  0.19049  1.0000
  H   H19       1.0  0.32887  0.94118  0.94269  1.0000
  H   H20       1.0  0.66982  0.05775  0.05751  1.0000
  H   H21       1.0  0.45167  0.19695  0.02069  1.0000
  H   H22       1.0  0.54766  0.80184  0.98022  1.0000
  H   H23       1.0  0.22553  0.35132  0.96068  1.0000
  H   H24       1.0  0.77471  0.64795  0.04004  1.0000
  H   H25       1.0  0.84804  0.41176  0.05021  1.0000
  H   H26       1.0  0.15206  0.58777  0.95004  1.0000
  H   H27       1.0  0.63174  0.38872  0.94509  1.0000
  H   H28       1.0  0.36783  0.60963  0.05498  1.0000
  C   C1        1.0  0.47119  0.43252  0.72349  1.0000
  C   C2        1.0  0.52891  0.56655  0.27662  1.0000
  C   C3        1.0  0.31681  0.47557  0.61330  1.0000
  C   C4        1.0  0.68458  0.52504  0.38726  1.0000
  C   C5        1.0  0.17857  0.54284  0.67250  1.0000
  C   C6        1.0  0.82312  0.45773  0.32839  1.0000
  C   C7        1.0  0.03209  0.43758  0.70001  1.0000
  C   C8        1.0  0.96971  0.56251  0.30041  1.0000
  C   C9        1.0  0.42632  0.08673  0.65447  1.0000
  C   C10       1.0  0.57391  0.91438  0.34533  1.0000
  C   C11       1.0  0.32798  0.95083  0.59877  1.0000
  C   C12       1.0  0.67150  0.05050  0.40078  1.0000
  C   C13       1.0  0.42725  0.84540  0.61186  1.0000
  C   C14       1.0  0.57162  0.15562  0.38738  1.0000
  C   C15       1.0  0.62835  0.87681  0.68611  1.0000
  C   C16       1.0  0.37050  0.12358  0.31316  1.0000
  C   C17       1.0  0.75036  0.77965  0.71212  1.0000
  C   C18       1.0  0.24803  0.22047  0.28699  1.0000
  C   C19       1.0  0.94454  0.81998  0.78659  1.0000
  C   C20       1.0  0.05382  0.17967  0.21272  1.0000
  C   C21       1.0  0.03500  0.96120  0.83959  1.0000
  C   C22       1.0  0.96407  0.03824  0.16012  1.0000
  C   C23       1.0  0.23319  0.01230  0.91793  1.0000
  C   C24       1.0  0.76586  0.98675  0.08215  1.0000
  C   C25       1.0  0.29980  0.15203  0.96181  1.0000
  C   C26       1.0  0.69970  0.84692  0.03863  1.0000
  C   C27       1.0  0.17304  0.24152  0.92844  1.0000
  C   C28       1.0  0.82706  0.75776  0.07197  1.0000
  C   C29       1.0  0.91727  0.05780  0.81216  1.0000
  C   C30       1.0  0.08235  0.94194  0.18753  1.0000
  C   C31       1.0  0.71622  0.01618  0.73837  1.0000
  C   C32       1.0  0.28335  0.98402  0.26121  1.0000
  N   N1        1.0  0.61880  0.12060  0.72137  1.0000
  N   N2        1.0  0.38141  0.87994  0.27845  1.0000
  N   N3        1.0  0.98476  0.19605  0.85384  1.0000
  N   N4        1.0  0.01548  0.80361  0.14617  1.0000
  O   O1        1.0  0.59542  0.37839  0.67893  1.0000
  O   O2        1.0  0.40622  0.62244  0.32146  1.0000
  O   O3        1.0  0.46645  0.44819  0.84574  1.0000
  O   O4        1.0  0.53145  0.54834  0.15384  1.0000
  O   O5        1.0  0.95265  0.32713  0.61421  1.0000
  O   O6        1.0  0.04919  0.67338  0.38560  1.0000
  O   O7        1.0  0.98624  0.46309  0.81276  1.0000
  O   O8        1.0  0.01549  0.53640  0.18769  1.0000
  O   O9        1.0  0.74147  0.34061  0.98134  1.0000
  O   O10       1.0  0.25920  0.65867  0.01881  1.0000
