data_image0
_chemical_formula_structural       CdH36C40N10O10
_chemical_formula_sum              "Cd1 H36 C40 N10 O10"
_cell_length_a       10.08
_cell_length_b       10.555
_cell_length_c       11.4937
_cell_angle_alpha    67.4697
_cell_angle_beta     67.9994
_cell_angle_gamma    69.9803

_space_group_name_H-M_alt    "P 1"
_space_group_IT_number       1

loop_
  _space_group_symop_operation_xyz
  'x, y, z'

loop_
  _atom_site_type_symbol
  _atom_site_label
  _atom_site_symmetry_multiplicity
  _atom_site_fract_x
  _atom_site_fract_y
  _atom_site_fract_z
  _atom_site_occupancy
  Cd  Cd1       1.0  0.50000  0.50000  0.99999  1.0000
  H   H1        1.0  0.68046  0.99533  0.07648  1.0000
  H   H2        1.0  0.31954  0.00466  0.92354  1.0000
  H   H3        1.0  0.47693  0.74808  0.09746  1.0000
  H   H4        1.0  0.52307  0.25191  0.90254  1.0000
  H   H5        1.0  0.84923  0.49600  0.91272  1.0000
  H   H6        1.0  0.15077  0.50400  0.08727  1.0000
  H   H7        1.0  0.01119  0.64002  0.89578  1.0000
  H   H8        1.0  0.98881  0.35997  0.10423  1.0000
  H   H9        1.0  0.89901  0.84534  0.98753  1.0000
  H   H10       1.0  0.10099  0.15464  0.01250  1.0000
  H   H11       1.0  0.32939  0.11551  0.25518  1.0000
  H   H12       1.0  0.67061  0.88449  0.74483  1.0000
  H   H13       1.0  0.50783  0.14864  0.17202  1.0000
  H   H14       1.0  0.49216  0.85135  0.82798  1.0000
  H   H15       1.0  0.25112  0.02104  0.49016  1.0000
  H   H16       1.0  0.74887  0.97896  0.50985  1.0000
  H   H17       1.0  0.70505  0.03998  0.29524  1.0000
  H   H18       1.0  0.29494  0.96001  0.70477  1.0000
  H   H19       1.0  0.37964  0.73878  0.42500  1.0000
  H   H20       1.0  0.62036  0.26122  0.57499  1.0000
  H   H21       1.0  0.34540  0.58371  0.78018  1.0000
  H   H22       1.0  0.65461  0.41629  0.21982  1.0000
  H   H23       1.0  0.78021  0.56051  0.73685  1.0000
  H   H24       1.0  0.21979  0.43950  0.26313  1.0000
  H   H25       1.0  0.83745  0.63965  0.49147  1.0000
  H   H26       1.0  0.16256  0.36036  0.50852  1.0000
  H   H27       1.0  0.63848  0.68934  0.38942  1.0000
  H   H28       1.0  0.36152  0.31066  0.61057  1.0000
  H   H29       1.0  0.00660  0.80617  0.70665  1.0000
  H   H30       1.0  0.99339  0.19383  0.29335  1.0000
  H   H31       1.0  0.10058  0.94753  0.28580  1.0000
  H   H32       1.0  0.89942  0.05248  0.71419  1.0000
  H   H33       1.0  0.18317  0.70513  0.39148  1.0000
  H   H34       1.0  0.81682  0.29487  0.60852  1.0000
  H   H35       1.0  0.04094  0.64715  0.53364  1.0000
  H   H36       1.0  0.95906  0.35285  0.46636  1.0000
  C   C1        1.0  0.67890  0.81050  0.05334  1.0000
  C   C2        1.0  0.32110  0.18949  0.94667  1.0000
  C   C3        1.0  0.59537  0.72704  0.05503  1.0000
  C   C4        1.0  0.40463  0.27295  0.94498  1.0000
  C   C5        1.0  0.80365  0.58823  0.94843  1.0000
  C   C6        1.0  0.19636  0.41177  0.05157  1.0000
  C   C7        1.0  0.89334  0.66765  0.94103  1.0000
  C   C8        1.0  0.10667  0.33235  0.05897  1.0000
  C   C9        1.0  0.83088  0.78095  0.99303  1.0000
  C   C10       1.0  0.16913  0.21904  0.00698  1.0000
  C   C11       1.0  0.48860  0.93886  0.20460  1.0000
  C   C12       1.0  0.51139  0.06113  0.79541  1.0000
  C   C13       1.0  0.44713  0.07055  0.24698  1.0000
  C   C14       1.0  0.55287  0.92944  0.75303  1.0000
  C   C15       1.0  0.47443  0.03500  0.37780  1.0000
  C   C16       1.0  0.52556  0.96499  0.62221  1.0000
  C   C17       1.0  0.36057  0.01165  0.49425  1.0000
  C   C18       1.0  0.63942  0.98835  0.50576  1.0000
  C   C19       1.0  0.61445  0.02271  0.38474  1.0000
  C   C20       1.0  0.38554  0.97728  0.61527  1.0000
  C   C21       1.0  0.47571  0.64045  0.57721  1.0000
  C   C22       1.0  0.52429  0.35956  0.42278  1.0000
  C   C23       1.0  0.45305  0.59583  0.71369  1.0000
  C   C24       1.0  0.54696  0.40417  0.28630  1.0000
  C   C25       1.0  0.69617  0.58419  0.68876  1.0000
  C   C26       1.0  0.30383  0.41582  0.31122  1.0000
  C   C27       1.0  0.72719  0.62804  0.55272  1.0000
  C   C28       1.0  0.27281  0.37197  0.44727  1.0000
  C   C29       1.0  0.61639  0.65679  0.49574  1.0000
  C   C30       1.0  0.38361  0.34322  0.50425  1.0000
  C   C31       1.0  0.23112  0.63497  0.57845  1.0000
  C   C32       1.0  0.76888  0.36504  0.42155  1.0000
  C   C33       1.0  0.00298  0.89107  0.61566  1.0000
  C   C34       1.0  0.99701  0.10894  0.38434  1.0000
  C   C35       1.0  0.05931  0.85903  0.49609  1.0000
  C   C36       1.0  0.94069  0.14097  0.50391  1.0000
  C   C37       1.0  0.05599  0.96996  0.38006  1.0000
  C   C38       1.0  0.94401  0.03004  0.61993  1.0000
  C   C39       1.0  0.12590  0.70768  0.49317  1.0000
  C   C40       1.0  0.87410  0.29232  0.50683  1.0000
  N   N1        1.0  0.65733  0.61936  0.00242  1.0000
  N   N2        1.0  0.34268  0.38064  0.99757  1.0000
  N   N3        1.0  0.61511  0.92488  0.10558  1.0000
  N   N4        1.0  0.38489  0.07511  0.89443  1.0000
  N   N5        1.0  0.56096  0.56933  0.76723  1.0000
  N   N6        1.0  0.43905  0.43068  0.23276  1.0000
  N   N7        1.0  0.36317  0.67362  0.52044  1.0000
  N   N8        1.0  0.63683  0.32638  0.47956  1.0000
  N   N9        1.0  0.22218  0.79020  0.95820  1.0000
  N   N10       1.0  0.77782  0.20980  0.04180  1.0000
  O   O1        1.0  0.41235  0.84968  0.25910  1.0000
  O   O2        1.0  0.58764  0.15032  0.74090  1.0000
  O   O3        1.0  0.19698  0.55324  0.69003  1.0000
  O   O4        1.0  0.80302  0.44678  0.30997  1.0000
  O   O5        1.0  0.18047  0.73815  0.90054  1.0000
  O   O6        1.0  0.81953  0.26185  0.09946  1.0000
  O   O7        1.0  0.18315  0.92154  0.94448  1.0000
  O   O8        1.0  0.81684  0.07846  0.05553  1.0000
  O   O9        1.0  0.30623  0.71112  0.03287  1.0000
  O   O10       1.0  0.69377  0.28888  0.96713  1.0000
