data_image0
_chemical_formula_structural       CdH36C42S2N10O4
_chemical_formula_sum              "Cd1 H36 C42 S2 N10 O4"
_cell_length_a       10.0808
_cell_length_b       11.1588
_cell_length_c       10.6065
_cell_angle_alpha    71.1833
_cell_angle_beta     68.8527
_cell_angle_gamma    76.0262

_space_group_name_H-M_alt    "P 1"
_space_group_IT_number       1

loop_
  _space_group_symop_operation_xyz
  'x, y, z'

loop_
  _atom_site_type_symbol
  _atom_site_label
  _atom_site_symmetry_multiplicity
  _atom_site_fract_x
  _atom_site_fract_y
  _atom_site_fract_z
  _atom_site_occupancy
  Cd  Cd1       1.0  0.00001  0.50001  0.99999  1.0000
  H   H1        1.0  0.81006  0.01532  0.92462  1.0000
  H   H2        1.0  0.18994  0.98468  0.07538  1.0000
  H   H3        1.0  0.01995  0.26393  0.89591  1.0000
  H   H4        1.0  0.98006  0.73607  0.10409  1.0000
  H   H5        1.0  0.65650  0.49276  0.07512  1.0000
  H   H6        1.0  0.34352  0.50725  0.92489  1.0000
  H   H7        1.0  0.49336  0.35010  0.08274  1.0000
  H   H8        1.0  0.50665  0.64990  0.91729  1.0000
  H   H9        1.0  0.60258  0.15538  0.99422  1.0000
  H   H10       1.0  0.39742  0.84461  0.00582  1.0000
  H   H11       1.0  0.15686  0.88378  0.76620  1.0000
  H   H12       1.0  0.84315  0.11623  0.23381  1.0000
  H   H13       1.0  0.97305  0.85873  0.85014  1.0000
  H   H14       1.0  0.02696  0.14127  0.14986  1.0000
  H   H15       1.0  0.24541  0.97897  0.51547  1.0000
  H   H16       1.0  0.75460  0.02103  0.48453  1.0000
  H   H17       1.0  0.79403  0.95109  0.71662  1.0000
  H   H18       1.0  0.20598  0.04891  0.28339  1.0000
  H   H19       1.0  0.13921  0.24411  0.60268  1.0000
  H   H20       1.0  0.86076  0.75590  0.39733  1.0000
  H   H21       1.0  0.17184  0.38022  0.22657  1.0000
  H   H22       1.0  0.82817  0.61976  0.77342  1.0000
  H   H23       1.0  0.73312  0.43427  0.28999  1.0000
  H   H24       1.0  0.26689  0.56575  0.70998  1.0000
  H   H25       1.0  0.68041  0.36642  0.55210  1.0000
  H   H26       1.0  0.31958  0.63363  0.44786  1.0000
  H   H27       1.0  0.88491  0.30849  0.65035  1.0000
  H   H28       1.0  0.11508  0.69156  0.34962  1.0000
  H   H29       1.0  0.48895  0.31931  0.48138  1.0000
  H   H30       1.0  0.51104  0.68066  0.51865  1.0000
  H   H31       1.0  0.34594  0.26364  0.63363  1.0000
  H   H32       1.0  0.65404  0.73633  0.36638  1.0000
  H   H33       1.0  0.50085  0.17729  0.28685  1.0000
  H   H34       1.0  0.49913  0.82269  0.71317  1.0000
  H   H35       1.0  0.41333  0.04494  0.73369  1.0000
  H   H36       1.0  0.58664  0.95504  0.26632  1.0000
  C   C1        1.0  0.82096  0.19280  0.93870  1.0000
  C   C2        1.0  0.17904  0.80720  0.06131  1.0000
  C   C3        1.0  0.90342  0.27898  0.93599  1.0000
  C   C4        1.0  0.09659  0.72103  0.06401  1.0000
  C   C5        1.0  0.69870  0.40723  0.03661  1.0000
  C   C6        1.0  0.30131  0.59277  0.96339  1.0000
  C   C7        1.0  0.60941  0.32783  0.03990  1.0000
  C   C8        1.0  0.39061  0.67216  0.96013  1.0000
  C   C9        1.0  0.67088  0.21920  0.99142  1.0000
  C   C10       1.0  0.32912  0.78080  0.00861  1.0000
  C   C11       1.0  0.01739  0.05040  0.81436  1.0000
  C   C12       1.0  0.98261  0.94961  0.18564  1.0000
  C   C13       1.0  0.04521  0.92624  0.77276  1.0000
  C   C14       1.0  0.95480  0.07377  0.22724  1.0000
  C   C15       1.0  0.02257  0.95999  0.63132  1.0000
  C   C16       1.0  0.97744  0.04001  0.36868  1.0000
  C   C17       1.0  0.13782  0.98786  0.50882  1.0000
  C   C18       1.0  0.86220  0.01213  0.49119  1.0000
  C   C19       1.0  0.88464  0.97266  0.62151  1.0000
  C   C20       1.0  0.11537  0.02734  0.37850  1.0000
  C   C21       1.0  0.04543  0.33859  0.44622  1.0000
  C   C22       1.0  0.95456  0.66141  0.55377  1.0000
  C   C23       1.0  0.06476  0.37585  0.30153  1.0000
  C   C24       1.0  0.93525  0.62414  0.69846  1.0000
  C   C25       1.0  0.81906  0.40492  0.33795  1.0000
  C   C26       1.0  0.18095  0.59509  0.66202  1.0000
  C   C27       1.0  0.79059  0.36784  0.48266  1.0000
  C   C28       1.0  0.20941  0.63220  0.51730  1.0000
  C   C29       1.0  0.90448  0.33499  0.53754  1.0000
  C   C30       1.0  0.09551  0.66504  0.46244  1.0000
  C   C31       1.0  0.29709  0.33111  0.43644  1.0000
  C   C32       1.0  0.70291  0.66888  0.56356  1.0000
  C   C33       1.0  0.39883  0.26384  0.52302  1.0000
  C   C34       1.0  0.60115  0.73614  0.47699  1.0000
  C   C35       1.0  0.45199  0.12729  0.51137  1.0000
  C   C36       1.0  0.54798  0.87269  0.48865  1.0000
  C   C37       1.0  0.50059  0.09957  0.38084  1.0000
  C   C38       1.0  0.49936  0.90040  0.61918  1.0000
  C   C39       1.0  0.45173  0.02577  0.63083  1.0000
  C   C40       1.0  0.54825  0.97421  0.36918  1.0000
  C   C41       1.0  0.26737  0.24795  0.96797  1.0000
  C   C42       1.0  0.73265  0.75204  0.03200  1.0000
  S   S1        1.0  0.36360  0.10941  0.00209  1.0000
  S   S2        1.0  0.63642  0.89059  0.99785  1.0000
  N   N1        1.0  0.84226  0.38215  0.98584  1.0000
  N   N2        1.0  0.15775  0.61786  0.01416  1.0000
  N   N3        1.0  0.88063  0.08020  0.89549  1.0000
  N   N4        1.0  0.11937  0.91981  0.10452  1.0000
  N   N5        1.0  0.95387  0.40834  0.24999  1.0000
  N   N6        1.0  0.04614  0.59166  0.74999  1.0000
  N   N7        1.0  0.15952  0.30254  0.50220  1.0000
  N   N8        1.0  0.84046  0.69746  0.49780  1.0000
  N   N9        1.0  0.19779  0.34966  0.94190  1.0000
  N   N10       1.0  0.80222  0.65035  0.05810  1.0000
  O   O1        1.0  0.11055  0.12232  0.76992  1.0000
  O   O2        1.0  0.88945  0.87770  0.23007  1.0000
  O   O3        1.0  0.33761  0.40132  0.31661  1.0000
  O   O4        1.0  0.66240  0.59867  0.68339  1.0000
