data_image0
_chemical_formula_structural       Gd4H36C18O36
_chemical_formula_sum              "Gd4 H36 C18 O36"
_cell_length_a       10.4858
_cell_length_b       10.4867
_cell_length_c       10.7661
_cell_angle_alpha    101.401
_cell_angle_beta     117.881
_cell_angle_gamma    108.484

_space_group_name_H-M_alt    "P 1"
_space_group_IT_number       1

loop_
  _space_group_symop_operation_xyz
  'x, y, z'

loop_
  _atom_site_type_symbol
  _atom_site_label
  _atom_site_symmetry_multiplicity
  _atom_site_fract_x
  _atom_site_fract_y
  _atom_site_fract_z
  _atom_site_occupancy
  Gd  Gd1       1.0  0.75538  0.07050  0.11969  1.0000
  Gd  Gd2       1.0  0.45088  0.63560  0.38033  1.0000
  Gd  Gd3       1.0  0.24462  0.92950  0.88031  1.0000
  Gd  Gd4       1.0  0.54912  0.36440  0.61967  1.0000
  H   H1        1.0  0.79584  0.71746  0.16598  1.0000
  H   H2        1.0  0.05168  0.62994  0.33407  1.0000
  H   H3        1.0  0.20416  0.28254  0.83402  1.0000
  H   H4        1.0  0.94832  0.37005  0.66592  1.0000
  H   H5        1.0  0.87006  0.73573  0.35765  1.0000
  H   H6        1.0  0.87821  0.51244  0.14244  1.0000
  H   H7        1.0  0.12994  0.26427  0.64235  1.0000
  H   H8        1.0  0.12179  0.48756  0.85757  1.0000
  H   H9        1.0  0.75084  0.39344  0.28598  1.0000
  H   H10       1.0  0.60758  0.46478  0.21412  1.0000
  H   H11       1.0  0.24916  0.60656  0.71401  1.0000
  H   H12       1.0  0.39242  0.53522  0.78588  1.0000
  H   H13       1.0  0.69373  0.18404  0.85688  1.0000
  H   H14       1.0  0.82723  0.83702  0.64332  1.0000
  H   H15       1.0  0.30627  0.81596  0.14312  1.0000
  H   H16       1.0  0.17277  0.16298  0.35668  1.0000
  H   H17       1.0  0.52883  0.10665  0.84107  1.0000
  H   H18       1.0  0.76566  0.68784  0.65898  1.0000
  H   H19       1.0  0.47117  0.89335  0.15893  1.0000
  H   H20       1.0  0.23434  0.31216  0.34102  1.0000
  H   H21       1.0  0.85228  0.14179  0.44876  1.0000
  H   H22       1.0  0.19305  0.40342  0.05124  1.0000
  H   H23       1.0  0.14772  0.85821  0.55124  1.0000
  H   H24       1.0  0.80695  0.59658  0.94876  1.0000
  H   H25       1.0  0.75018  0.22302  0.39289  1.0000
  H   H26       1.0  0.33006  0.35703  0.10703  1.0000
  H   H27       1.0  0.24982  0.77698  0.60711  1.0000
  H   H28       1.0  0.66994  0.64297  0.89297  1.0000
  H   H29       1.0  0.88267  0.99093  0.93300  1.0000
  H   H30       1.0  0.55777  0.94949  0.56697  1.0000
  H   H31       1.0  0.11733  0.00907  0.06700  1.0000
  H   H32       1.0  0.44223  0.05051  0.43303  1.0000
  H   H33       1.0  0.93781  0.16221  0.97801  1.0000
  H   H34       1.0  0.68404  0.95973  0.52193  1.0000
  H   H35       1.0  0.06219  0.83779  0.02199  1.0000
  H   H36       1.0  0.31596  0.04027  0.47807  1.0000
  C   C1        1.0  0.68829  0.80479  0.25884  1.0000
  C   C2        1.0  0.04604  0.42944  0.24124  1.0000
  C   C3        1.0  0.31171  0.19521  0.74116  1.0000
  C   C4        1.0  0.95397  0.57056  0.75876  1.0000
  C   C5        1.0  0.83644  0.79109  0.28038  1.0000
  C   C6        1.0  0.01085  0.55607  0.21968  1.0000
  C   C7        1.0  0.16356  0.20891  0.71962  1.0000
  C   C8        1.0  0.98916  0.44393  0.78032  1.0000
  C   C9        1.0  0.98712  0.93042  0.33487  1.0000
  C   C10       1.0  0.09565  0.65213  0.16510  1.0000
  C   C11       1.0  0.01288  0.06958  0.66513  1.0000
  C   C12       1.0  0.90435  0.34787  0.83491  1.0000
  C   C13       1.0  0.49910  0.22625  0.12238  1.0000
  C   C14       1.0  0.60399  0.37664  0.37768  1.0000
  C   C15       1.0  0.50090  0.77375  0.87762  1.0000
  C   C16       1.0  0.39601  0.62336  0.62232  1.0000
  C   C17       1.0  0.62860  0.37849  0.25004  1.0000
  C   C18       1.0  0.37140  0.62151  0.74996  1.0000
  O   O1        1.0  0.65226  0.89711  0.20919  1.0000
  O   O2        1.0  0.18803  0.44306  0.29093  1.0000
  O   O3        1.0  0.34774  0.10289  0.79081  1.0000
  O   O4        1.0  0.81198  0.55694  0.70907  1.0000
  O   O5        1.0  0.60363  0.71672  0.28823  1.0000
  O   O6        1.0  0.92854  0.31538  0.21179  1.0000
  O   O7        1.0  0.39637  0.28328  0.71177  1.0000
  O   O8        1.0  0.07146  0.68462  0.78821  1.0000
  O   O9        1.0  0.97253  0.02702  0.28138  1.0000
  O   O10       1.0  0.24570  0.69089  0.21840  1.0000
  O   O11       1.0  0.02747  0.97298  0.71862  1.0000
  O   O12       1.0  0.75431  0.30911  0.78160  1.0000
  O   O13       1.0  0.12521  0.94297  0.43146  1.0000
  O   O14       1.0  0.01161  0.69371  0.06861  1.0000
  O   O15       1.0  0.87479  0.05704  0.56855  1.0000
  O   O16       1.0  0.98839  0.30629  0.93139  1.0000
  O   O17       1.0  0.54064  0.13022  0.08853  1.0000
  O   O18       1.0  0.54178  0.45204  0.41151  1.0000
  O   O19       1.0  0.45936  0.86979  0.91147  1.0000
  O   O20       1.0  0.45822  0.54796  0.58849  1.0000
  O   O21       1.0  0.34886  0.19338  0.05693  1.0000
  O   O22       1.0  0.63649  0.29180  0.44307  1.0000
  O   O23       1.0  0.65114  0.80662  0.94307  1.0000
  O   O24       1.0  0.36351  0.70820  0.55693  1.0000
  O   O25       1.0  0.63707  0.10885  0.88203  1.0000
  O   O26       1.0  0.72687  0.75509  0.61803  1.0000
  O   O27       1.0  0.36293  0.89115  0.11797  1.0000
  O   O28       1.0  0.27313  0.24491  0.38197  1.0000
  O   O29       1.0  0.82990  0.19820  0.38329  1.0000
  O   O30       1.0  0.31492  0.44638  0.11673  1.0000
  O   O31       1.0  0.17010  0.80180  0.61671  1.0000
  O   O32       1.0  0.68508  0.55361  0.88327  1.0000
  O   O33       1.0  0.92087  0.08227  0.01545  1.0000
  O   O34       1.0  0.56667  0.90529  0.48451  1.0000
  O   O35       1.0  0.07913  0.91773  0.98455  1.0000
  O   O36       1.0  0.43333  0.09471  0.51549  1.0000
