data_image0
_chemical_formula_structural       Cd3H40C28Br2N4Cl4O4
_chemical_formula_sum              "Cd3 H40 C28 Br2 N4 Cl4 O4"
_cell_length_a       8.14183
_cell_length_b       10.2843
_cell_length_c       11.3566
_cell_angle_alpha    100.48
_cell_angle_beta     96.4326
_cell_angle_gamma    99.3368

_space_group_name_H-M_alt    "P 1"
_space_group_IT_number       1

loop_
  _space_group_symop_operation_xyz
  'x, y, z'

loop_
  _atom_site_type_symbol
  _atom_site_label
  _atom_site_symmetry_multiplicity
  _atom_site_fract_x
  _atom_site_fract_y
  _atom_site_fract_z
  _atom_site_occupancy
  Cd  Cd1       1.0  0.50000  0.50000  0.50000  1.0000
  Cd  Cd2       1.0  0.90858  0.66136  0.42836  1.0000
  Cd  Cd3       1.0  0.09142  0.33864  0.57164  1.0000
  H   H1        1.0  0.25118  0.29760  0.33963  1.0000
  H   H2        1.0  0.74882  0.70241  0.66037  1.0000
  H   H3        1.0  0.36399  0.14386  0.22011  1.0000
  H   H4        1.0  0.63600  0.85614  0.77989  1.0000
  H   H5        1.0  0.56498  0.25126  0.26340  1.0000
  H   H6        1.0  0.43501  0.74874  0.73660  1.0000
  H   H7        1.0  0.46890  0.17390  0.37333  1.0000
  H   H8        1.0  0.53109  0.82609  0.62666  1.0000
  H   H9        1.0  0.08307  0.46972  0.11409  1.0000
  H   H10       1.0  0.91693  0.53028  0.88592  1.0000
  H   H11       1.0  0.06657  0.43685  0.26148  1.0000
  H   H12       1.0  0.93343  0.56315  0.73852  1.0000
  H   H13       1.0  0.81732  0.31967  0.06663  1.0000
  H   H14       1.0  0.18268  0.68033  0.93337  1.0000
  H   H15       1.0  0.76796  0.36448  0.21429  1.0000
  H   H16       1.0  0.23203  0.63552  0.78571  1.0000
  H   H17       1.0  0.68373  0.49422  0.00776  1.0000
  H   H18       1.0  0.31627  0.50578  0.99224  1.0000
  H   H19       1.0  0.62398  0.52458  0.15383  1.0000
  H   H20       1.0  0.37602  0.47542  0.84617  1.0000
  H   H21       1.0  0.81156  0.73304  0.17833  1.0000
  H   H22       1.0  0.18844  0.26696  0.82167  1.0000
  H   H23       1.0  0.92335  0.66844  0.06177  1.0000
  H   H24       1.0  0.07664  0.33156  0.93823  1.0000
  H   H25       1.0  0.25073  0.66799  0.29669  1.0000
  H   H26       1.0  0.74927  0.33200  0.70330  1.0000
  H   H27       1.0  0.19542  0.71177  0.15475  1.0000
  H   H28       1.0  0.80458  0.28822  0.84525  1.0000
  H   H29       1.0  0.06178  0.89558  0.25671  1.0000
  H   H30       1.0  0.93823  0.10442  0.74329  1.0000
  H   H31       1.0  0.27799  0.91569  0.31612  1.0000
  H   H32       1.0  0.72202  0.08430  0.68388  1.0000
  H   H33       1.0  0.30439  0.00023  0.50815  1.0000
  H   H34       1.0  0.69562  0.99977  0.49185  1.0000
  H   H35       1.0  0.93901  0.82629  0.85486  1.0000
  H   H36       1.0  0.06100  0.17371  0.14514  1.0000
  H   H37       1.0  0.16583  0.98851  0.99731  1.0000
  H   H38       1.0  0.83417  0.01150  0.00269  1.0000
  H   H39       1.0  0.40159  0.08600  0.69583  1.0000
  H   H40       1.0  0.59842  0.91400  0.30417  1.0000
  C   C1        1.0  0.44497  0.21926  0.29385  1.0000
  C   C2        1.0  0.55502  0.78074  0.70615  1.0000
  C   C3        1.0  0.00511  0.47580  0.18792  1.0000
  C   C4        1.0  0.99488  0.52420  0.81208  1.0000
  C   C5        1.0  0.82335  0.40492  0.14174  1.0000
  C   C6        1.0  0.17664  0.59508  0.85826  1.0000
  C   C7        1.0  0.73155  0.51531  0.10487  1.0000
  C   C8        1.0  0.26845  0.48469  0.89514  1.0000
  C   C9        1.0  0.86350  0.64548  0.14032  1.0000
  C   C10       1.0  0.13649  0.35452  0.85968  1.0000
  C   C11       1.0  0.15668  0.70905  0.24476  1.0000
  C   C12       1.0  0.84332  0.29094  0.75524  1.0000
  C   C13       1.0  0.15290  0.85228  0.30958  1.0000
  C   C14       1.0  0.84710  0.14772  0.69042  1.0000
  C   C15       1.0  0.19496  0.92880  0.52215  1.0000
  C   C16       1.0  0.80504  0.07119  0.47784  1.0000
  C   C17       1.0  0.17411  0.93576  0.64782  1.0000
  C   C18       1.0  0.82590  0.06424  0.35218  1.0000
  C   C19       1.0  0.03903  0.85942  0.69243  1.0000
  C   C20       1.0  0.96098  0.14059  0.30757  1.0000
  C   C21       1.0  0.04121  0.88344  0.82026  1.0000
  C   C22       1.0  0.95879  0.11656  0.17974  1.0000
  C   C23       1.0  0.16789  0.97385  0.90003  1.0000
  C   C24       1.0  0.83212  0.02616  0.09997  1.0000
  C   C25       1.0  0.29938  0.04572  0.85440  1.0000
  C   C26       1.0  0.70063  0.95428  0.14560  1.0000
  C   C27       1.0  0.30180  0.02724  0.73115  1.0000
  C   C28       1.0  0.69821  0.97276  0.26885  1.0000
  Br  Br1       1.0  0.47329  0.17261  0.96211  1.0000
  Br  Br2       1.0  0.52672  0.82739  0.03789  1.0000
  N   N1        1.0  0.99289  0.61836  0.23114  1.0000
  N   N2        1.0  0.00711  0.38164  0.76886  1.0000
  N   N3        1.0  0.10295  0.85017  0.42816  1.0000
  N   N4        1.0  0.89706  0.14984  0.57185  1.0000
  Cl  Cl1       1.0  0.59435  0.68316  0.37661  1.0000
  Cl  Cl2       1.0  0.40565  0.31684  0.62339  1.0000
  Cl  Cl3       1.0  0.20863  0.57230  0.52435  1.0000
  Cl  Cl4       1.0  0.79137  0.42769  0.47565  1.0000
  O   O1        1.0  0.91559  0.77281  0.62205  1.0000
  O   O2        1.0  0.08441  0.22719  0.37795  1.0000
  O   O3        1.0  0.36792  0.33490  0.32309  1.0000
  O   O4        1.0  0.63208  0.66510  0.67691  1.0000
