data_image0
_chemical_formula_structural       Co2H32C32N8O8
_chemical_formula_sum              "Co2 H32 C32 N8 O8"
_cell_length_a       7.58118
_cell_length_b       8.65007
_cell_length_c       13.2962
_cell_angle_alpha    81.4813
_cell_angle_beta     77.3843
_cell_angle_gamma    72.8329

_space_group_name_H-M_alt    "P 1"
_space_group_IT_number       1

loop_
  _space_group_symop_operation_xyz
  'x, y, z'

loop_
  _atom_site_type_symbol
  _atom_site_label
  _atom_site_symmetry_multiplicity
  _atom_site_fract_x
  _atom_site_fract_y
  _atom_site_fract_z
  _atom_site_occupancy
  Co  Co1       1.0  0.20264  0.79384  0.78159  1.0000
  Co  Co2       1.0  0.79736  0.20617  0.21841  1.0000
  H   H1        1.0  0.53939  0.10444  0.81458  1.0000
  H   H2        1.0  0.46060  0.89556  0.18541  1.0000
  H   H3        1.0  0.78292  0.86309  0.07839  1.0000
  H   H4        1.0  0.21706  0.13693  0.92160  1.0000
  H   H5        1.0  0.83610  0.56866  0.67719  1.0000
  H   H6        1.0  0.16392  0.43133  0.32282  1.0000
  H   H7        1.0  0.32133  0.53496  0.43527  1.0000
  H   H8        1.0  0.67869  0.46503  0.56473  1.0000
  H   H9        1.0  0.51023  0.74901  0.92875  1.0000
  H   H10       1.0  0.48976  0.25100  0.07127  1.0000
  H   H11       1.0  0.76259  0.28238  0.81998  1.0000
  H   H12       1.0  0.23739  0.71762  0.18003  1.0000
  H   H13       1.0  0.42824  0.42204  0.74850  1.0000
  H   H14       1.0  0.57173  0.57797  0.25152  1.0000
  H   H15       1.0  0.89558  0.36770  0.96705  1.0000
  H   H16       1.0  0.10440  0.63231  0.03296  1.0000
  H   H17       1.0  0.95101  0.53509  0.87983  1.0000
  H   H18       1.0  0.04898  0.46492  0.12018  1.0000
  H   H19       1.0  0.79700  0.57074  0.00178  1.0000
  H   H20       1.0  0.20298  0.42927  0.99823  1.0000
  H   H21       1.0  0.61040  0.78583  0.67467  1.0000
  H   H22       1.0  0.38961  0.21417  0.32534  1.0000
  H   H23       1.0  0.43616  0.28381  0.57253  1.0000
  H   H24       1.0  0.56385  0.71618  0.42745  1.0000
  H   H25       1.0  0.12571  0.18362  0.68980  1.0000
  H   H26       1.0  0.87431  0.81637  0.31020  1.0000
  H   H27       1.0  0.76986  0.14437  0.51707  1.0000
  H   H28       1.0  0.23015  0.85561  0.48292  1.0000
  H   H29       1.0  0.85625  0.00844  0.62264  1.0000
  H   H30       1.0  0.14377  0.99154  0.37735  1.0000
  H   H31       1.0  0.82600  0.93031  0.51118  1.0000
  H   H32       1.0  0.17401  0.06967  0.48882  1.0000
  C   C1        1.0  0.87091  0.95715  0.87261  1.0000
  C   C2        1.0  0.12908  0.04288  0.12737  1.0000
  C   C3        1.0  0.68053  0.98180  0.93983  1.0000
  C   C4        1.0  0.31946  0.01821  0.06016  1.0000
  C   C5        1.0  0.52069  0.05990  0.89604  1.0000
  C   C6        1.0  0.47930  0.94010  0.10395  1.0000
  C   C7        1.0  0.65846  0.92204  0.04448  1.0000
  C   C8        1.0  0.34153  0.07796  0.95551  1.0000
  C   C9        1.0  0.17827  0.62970  0.62742  1.0000
  C   C10       1.0  0.82175  0.37028  0.37259  1.0000
  C   C11       1.0  0.08623  0.56095  0.56254  1.0000
  C   C12       1.0  0.91380  0.43902  0.43747  1.0000
  C   C13       1.0  0.90647  0.53897  0.59914  1.0000
  C   C14       1.0  0.09355  0.46102  0.40087  1.0000
  C   C15       1.0  0.17989  0.52112  0.46258  1.0000
  C   C16       1.0  0.82012  0.47887  0.53743  1.0000
  C   C17       1.0  0.53046  0.64268  0.88898  1.0000
  C   C18       1.0  0.46952  0.35733  0.11103  1.0000
  C   C19       1.0  0.65975  0.39901  0.83228  1.0000
  C   C20       1.0  0.34023  0.60100  0.16773  1.0000
  C   C21       1.0  0.49366  0.46884  0.79748  1.0000
  C   C22       1.0  0.50631  0.53117  0.20254  1.0000
  C   C23       1.0  0.84204  0.49434  0.93717  1.0000
  C   C24       1.0  0.15795  0.50567  0.06284  1.0000
  C   C25       1.0  0.51877  0.90737  0.66547  1.0000
  C   C26       1.0  0.48124  0.09262  0.33453  1.0000
  C   C27       1.0  0.42331  0.16843  0.61379  1.0000
  C   C28       1.0  0.57670  0.83156  0.38621  1.0000
  C   C29       1.0  0.27247  0.11736  0.67088  1.0000
  C   C30       1.0  0.72754  0.88264  0.32911  1.0000
  C   C31       1.0  0.77086  0.02835  0.56271  1.0000
  C   C32       1.0  0.22915  0.97163  0.43728  1.0000
  N   N1        1.0  0.41449  0.62138  0.83272  1.0000
  N   N2        1.0  0.58550  0.37862  0.16728  1.0000
  N   N3        1.0  0.68042  0.51038  0.89016  1.0000
  N   N4        1.0  0.31957  0.48963  0.10985  1.0000
  N   N5        1.0  0.33424  0.95374  0.70278  1.0000
  N   N6        1.0  0.66577  0.04626  0.29722  1.0000
  N   N7        1.0  0.57729  0.03364  0.61129  1.0000
  N   N8        1.0  0.42273  0.96636  0.38870  1.0000
  O   O1        1.0  0.00957  0.85013  0.90736  1.0000
  O   O2        1.0  0.99042  0.14989  0.09262  1.0000
  O   O3        1.0  0.89095  0.03365  0.78456  1.0000
  O   O4        1.0  0.10902  0.96639  0.21543  1.0000
  O   O5        1.0  0.07522  0.68223  0.71398  1.0000
  O   O6        1.0  0.92479  0.31775  0.28602  1.0000
  O   O7        1.0  0.34401  0.63863  0.59652  1.0000
  O   O8        1.0  0.65601  0.36137  0.40348  1.0000
