data_image0
_chemical_formula_structural       Cd4H64C36S16N8O8
_chemical_formula_sum              "Cd4 H64 C36 S16 N8 O8"
_cell_length_a       9.73184
_cell_length_b       11.7632
_cell_length_c       13.3667
_cell_angle_alpha    90.6374
_cell_angle_beta     90.9908
_cell_angle_gamma    105.259

_space_group_name_H-M_alt    "P 1"
_space_group_IT_number       1

loop_
  _space_group_symop_operation_xyz
  'x, y, z'

loop_
  _atom_site_type_symbol
  _atom_site_label
  _atom_site_symmetry_multiplicity
  _atom_site_fract_x
  _atom_site_fract_y
  _atom_site_fract_z
  _atom_site_occupancy
  Cd  Cd1       1.0  0.06512  0.02122  0.27351  1.0000
  Cd  Cd2       1.0  0.93488  0.97878  0.72649  1.0000
  Cd  Cd3       1.0  0.50000  0.00000  0.50000  1.0000
  Cd  Cd4       1.0  0.50000  0.00000  1.00000  1.0000
  H   H1        1.0  0.05167  0.68703  0.00308  1.0000
  H   H2        1.0  0.94833  0.31297  0.99692  1.0000
  H   H3        1.0  0.91348  0.75091  0.95987  1.0000
  H   H4        1.0  0.08652  0.24909  0.04013  1.0000
  H   H5        1.0  0.87460  0.54122  0.89308  1.0000
  H   H6        1.0  0.12541  0.45878  0.10692  1.0000
  H   H7        1.0  0.73343  0.55865  0.96996  1.0000
  H   H8        1.0  0.26657  0.44136  0.03004  1.0000
  H   H9        1.0  0.86292  0.48997  0.01835  1.0000
  H   H10       1.0  0.13708  0.51003  0.98165  1.0000
  H   H11       1.0  0.26351  0.30855  0.57851  1.0000
  H   H12       1.0  0.73649  0.69145  0.42150  1.0000
  H   H13       1.0  0.11914  0.35670  0.52718  1.0000
  H   H14       1.0  0.88086  0.64330  0.47282  1.0000
  H   H15       1.0  0.27476  0.52008  0.62758  1.0000
  H   H16       1.0  0.72524  0.47991  0.37242  1.0000
  H   H17       1.0  0.29638  0.55892  0.49886  1.0000
  H   H18       1.0  0.70362  0.44108  0.50115  1.0000
  H   H19       1.0  0.42882  0.50755  0.56390  1.0000
  H   H20       1.0  0.57118  0.49245  0.43610  1.0000
  H   H21       1.0  0.15798  0.67759  0.21967  1.0000
  H   H22       1.0  0.84202  0.32240  0.78033  1.0000
  H   H23       1.0  0.08569  0.70874  0.33518  1.0000
  H   H24       1.0  0.91431  0.29126  0.66481  1.0000
  H   H25       1.0  0.96810  0.50025  0.27091  1.0000
  H   H26       1.0  0.03191  0.49975  0.72909  1.0000
  H   H27       1.0  0.05450  0.50024  0.38925  1.0000
  H   H28       1.0  0.94550  0.49976  0.61075  1.0000
  H   H29       1.0  0.13730  0.46747  0.27908  1.0000
  H   H30       1.0  0.86270  0.53253  0.72093  1.0000
  H   H31       1.0  0.38583  0.57796  0.15193  1.0000
  H   H32       1.0  0.61417  0.42204  0.84807  1.0000
  H   H33       1.0  0.52782  0.65362  0.23394  1.0000
  H   H34       1.0  0.47218  0.34638  0.76605  1.0000
  H   H35       1.0  0.49893  0.43347  0.23437  1.0000
  H   H36       1.0  0.50107  0.56653  0.76563  1.0000
  H   H37       1.0  0.66847  0.50968  0.18680  1.0000
  H   H38       1.0  0.33154  0.49032  0.81320  1.0000
  H   H39       1.0  0.52700  0.43461  0.10352  1.0000
  H   H40       1.0  0.47301  0.56539  0.89648  1.0000
  H   H41       1.0  0.74093  0.96090  0.34579  1.0000
  H   H42       1.0  0.25906  0.03910  0.65421  1.0000
  H   H43       1.0  0.82629  0.09251  0.41508  1.0000
  H   H44       1.0  0.17371  0.90749  0.58492  1.0000
  H   H45       1.0  0.83654  0.08795  0.10081  1.0000
  H   H46       1.0  0.16346  0.91205  0.89919  1.0000
  H   H47       1.0  0.74845  0.95883  0.16666  1.0000
  H   H48       1.0  0.25155  0.04117  0.83334  1.0000
  H   H49       1.0  0.94602  0.26641  0.32935  1.0000
  H   H50       1.0  0.05398  0.73359  0.67065  1.0000
  H   H51       1.0  0.95220  0.26654  0.19564  1.0000
  H   H52       1.0  0.04780  0.73346  0.80436  1.0000
  H   H53       1.0  0.45412  0.07564  0.24627  1.0000
  H   H54       1.0  0.54588  0.92436  0.75373  1.0000
  H   H55       1.0  0.52714  0.95094  0.24985  1.0000
  H   H56       1.0  0.47286  0.04906  0.75015  1.0000
  H   H57       1.0  0.56887  0.25187  0.33957  1.0000
  H   H58       1.0  0.43113  0.74813  0.66042  1.0000
  H   H59       1.0  0.72817  0.25861  0.41151  1.0000
  H   H60       1.0  0.27183  0.74139  0.58849  1.0000
  H   H61       1.0  0.73700  0.25562  0.09809  1.0000
  H   H62       1.0  0.26299  0.74438  0.90191  1.0000
  H   H63       1.0  0.57397  0.24858  0.16082  1.0000
  H   H64       1.0  0.42603  0.75143  0.83918  1.0000
  C   C1        1.0  0.95017  0.80055  0.15275  1.0000
  C   C2        1.0  0.04983  0.19945  0.84725  1.0000
  C   C3        1.0  0.93638  0.67944  0.00416  1.0000
  C   C4        1.0  0.06362  0.32056  0.99584  1.0000
  C   C5        1.0  0.84642  0.55991  0.96958  1.0000
  C   C6        1.0  0.15358  0.44009  0.03042  1.0000
  C   C7        1.0  0.21997  0.23970  0.38687  1.0000
  C   C8        1.0  0.78004  0.76030  0.61313  1.0000
  C   C9        1.0  0.23577  0.37210  0.52784  1.0000
  C   C10       1.0  0.76423  0.62790  0.47217  1.0000
  C   C11       1.0  0.31385  0.49719  0.55551  1.0000
  C   C12       1.0  0.68615  0.50281  0.44450  1.0000
  C   C13       1.0  0.34901  0.78117  0.38329  1.0000
  C   C14       1.0  0.65098  0.21883  0.61671  1.0000
  C   C15       1.0  0.14350  0.65187  0.29842  1.0000
  C   C16       1.0  0.85650  0.34813  0.70158  1.0000
  C   C17       1.0  0.07222  0.52235  0.30999  1.0000
  C   C18       1.0  0.92778  0.47765  0.69001  1.0000
  C   C19       1.0  0.54258  0.76484  0.05660  1.0000
  C   C20       1.0  0.45742  0.23516  0.94340  1.0000
  C   C21       1.0  0.50118  0.59731  0.16636  1.0000
  C   C22       1.0  0.49882  0.40268  0.83364  1.0000
  C   C23       1.0  0.55293  0.48747  0.17292  1.0000
  C   C24       1.0  0.44708  0.51253  0.82708  1.0000
  C   C25       1.0  0.76630  0.05755  0.34619  1.0000
  C   C26       1.0  0.23370  0.94245  0.65381  1.0000
  C   C27       1.0  0.77260  0.05536  0.16659  1.0000
  C   C28       1.0  0.22740  0.94464  0.83341  1.0000
  C   C29       1.0  0.88610  0.23269  0.26006  1.0000
  C   C30       1.0  0.11390  0.76731  0.73994  1.0000
  C   C31       1.0  0.55313  0.04750  0.24993  1.0000
  C   C32       1.0  0.44687  0.95250  0.75007  1.0000
  C   C33       1.0  0.66839  0.22454  0.34233  1.0000
  C   C34       1.0  0.33161  0.77546  0.65767  1.0000
  C   C35       1.0  0.67409  0.22235  0.16406  1.0000
  C   C36       1.0  0.32590  0.77765  0.83594  1.0000
  S   S1        1.0  0.88474  0.81000  0.26905  1.0000
  S   S2        1.0  0.11526  0.19000  0.73095  1.0000
  S   S3        1.0  0.07177  0.91190  0.09838  1.0000
  S   S4        1.0  0.92823  0.08810  0.90162  1.0000
  S   S5        1.0  0.26029  0.22470  0.26422  1.0000
  S   S6        1.0  0.73972  0.77530  0.73578  1.0000
  S   S7        1.0  0.11583  0.12923  0.45440  1.0000
  S   S8        1.0  0.88417  0.87077  0.54560  1.0000
  S   S9        1.0  0.51653  0.79380  0.42925  1.0000
  S   S10       1.0  0.48346  0.20620  0.57075  1.0000
  S   S11       1.0  0.26622  0.89224  0.39149  1.0000
  S   S12       1.0  0.73378  0.10776  0.60851  1.0000
  S   S13       1.0  0.65812  0.84794  0.97474  1.0000
  S   S14       1.0  0.34188  0.15206  0.02526  1.0000
  S   S15       1.0  0.39725  0.80230  0.10157  1.0000
  S   S16       1.0  0.60275  0.19770  0.89843  1.0000
  N   N1        1.0  0.85578  0.10202  0.25897  1.0000
  N   N2        1.0  0.14422  0.89798  0.74103  1.0000
  N   N3        1.0  0.63223  0.09378  0.34368  1.0000
  N   N4        1.0  0.36777  0.90622  0.65632  1.0000
  N   N5        1.0  0.63862  0.09145  0.16096  1.0000
  N   N6        1.0  0.36138  0.90855  0.83904  1.0000
  N   N7        1.0  0.75476  0.27103  0.25559  1.0000
  N   N8        1.0  0.24524  0.72897  0.74441  1.0000
  O   O1        1.0  0.89859  0.69561  0.10714  1.0000
  O   O2        1.0  0.10141  0.30439  0.89286  1.0000
  O   O3        1.0  0.27571  0.34718  0.42652  1.0000
  O   O4        1.0  0.72429  0.65282  0.57348  1.0000
  O   O5        1.0  0.28591  0.67525  0.34349  1.0000
  O   O6        1.0  0.71409  0.32475  0.65651  1.0000
  O   O7        1.0  0.57410  0.66518  0.08282  1.0000
  O   O8        1.0  0.42590  0.33481  0.91717  1.0000
