data_image0
_chemical_formula_structural       Cu4H28C40N28O4
_chemical_formula_sum              "Cu4 H28 C40 N28 O4"
_cell_length_a       9.07909
_cell_length_b       11.6682
_cell_length_c       11.2516
_cell_angle_alpha    90
_cell_angle_beta     90.0004
_cell_angle_gamma    88.3086

_space_group_name_H-M_alt    "P 1"
_space_group_IT_number       1

loop_
  _space_group_symop_operation_xyz
  'x, y, z'

loop_
  _atom_site_type_symbol
  _atom_site_label
  _atom_site_symmetry_multiplicity
  _atom_site_fract_x
  _atom_site_fract_y
  _atom_site_fract_z
  _atom_site_occupancy
  Cu  Cu1       1.0  0.10126  0.27542  0.43114  1.0000
  Cu  Cu2       1.0  0.39874  0.72458  0.93113  1.0000
  Cu  Cu3       1.0  0.89874  0.72458  0.56886  1.0000
  Cu  Cu4       1.0  0.60127  0.27542  0.06886  1.0000
  H   H1        1.0  0.81069  0.40095  0.37857  1.0000
  H   H2        1.0  0.68932  0.59906  0.87855  1.0000
  H   H3        1.0  0.18930  0.59905  0.62143  1.0000
  H   H4        1.0  0.31070  0.40096  0.12143  1.0000
  H   H5        1.0  0.54822  0.38307  0.44947  1.0000
  H   H6        1.0  0.95179  0.61695  0.94946  1.0000
  H   H7        1.0  0.45178  0.61693  0.55054  1.0000
  H   H8        1.0  0.04823  0.38308  0.05053  1.0000
  H   H9        1.0  0.49371  0.22799  0.59689  1.0000
  H   H10       1.0  0.00629  0.77203  0.09689  1.0000
  H   H11       1.0  0.50629  0.77202  0.40311  1.0000
  H   H12       1.0  0.99371  0.22799  0.90312  1.0000
  H   H13       1.0  0.70316  0.10034  0.66938  1.0000
  H   H14       1.0  0.79684  0.89966  0.16938  1.0000
  H   H15       1.0  0.29685  0.89966  0.33062  1.0000
  H   H16       1.0  0.20314  0.10033  0.83063  1.0000
  H   H17       1.0  0.03863  0.15899  0.68556  1.0000
  H   H18       1.0  0.46136  0.84101  0.18555  1.0000
  H   H19       1.0  0.96137  0.84102  0.31445  1.0000
  H   H20       1.0  0.53862  0.15897  0.81445  1.0000
  H   H21       1.0  0.96662  0.02921  0.62588  1.0000
  H   H22       1.0  0.53337  0.97079  0.12588  1.0000
  H   H23       1.0  0.03338  0.97080  0.37412  1.0000
  H   H24       1.0  0.46661  0.02920  0.87413  1.0000
  H   H25       1.0  0.20151  0.09131  0.54896  1.0000
  H   H26       1.0  0.29849  0.90869  0.04896  1.0000
  H   H27       1.0  0.79849  0.90870  0.45104  1.0000
  H   H28       1.0  0.70150  0.09130  0.95104  1.0000
  C   C1        1.0  0.77939  0.33730  0.44381  1.0000
  C   C2        1.0  0.72062  0.66271  0.94380  1.0000
  C   C3        1.0  0.22062  0.66270  0.55619  1.0000
  C   C4        1.0  0.27938  0.33730  0.05618  1.0000
  C   C5        1.0  0.63577  0.32690  0.48437  1.0000
  C   C6        1.0  0.86423  0.67311  0.98436  1.0000
  C   C7        1.0  0.36422  0.67311  0.51564  1.0000
  C   C8        1.0  0.13578  0.32690  0.01564  1.0000
  C   C9        1.0  0.60588  0.24095  0.56644  1.0000
  C   C10       1.0  0.89412  0.75906  0.06644  1.0000
  C   C11       1.0  0.39412  0.75905  0.43356  1.0000
  C   C12       1.0  0.10588  0.24095  0.93357  1.0000
  C   C13       1.0  0.72097  0.16936  0.60623  1.0000
  C   C14       1.0  0.77903  0.83065  0.10624  1.0000
  C   C15       1.0  0.27904  0.83064  0.39377  1.0000
  C   C16       1.0  0.22095  0.16935  0.89378  1.0000
  C   C17       1.0  0.86285  0.18627  0.56388  1.0000
  C   C18       1.0  0.63715  0.81373  0.06388  1.0000
  C   C19       1.0  0.13715  0.81373  0.43612  1.0000
  C   C20       1.0  0.36284  0.18627  0.93613  1.0000
  C   C21       1.0  0.99466  0.11785  0.60522  1.0000
  C   C22       1.0  0.50534  0.88215  0.10522  1.0000
  C   C23       1.0  0.00534  0.88216  0.39478  1.0000
  C   C24       1.0  0.49465  0.11784  0.89479  1.0000
  C   C25       1.0  0.26793  0.38199  0.67063  1.0000
  C   C26       1.0  0.23207  0.61801  0.17064  1.0000
  C   C27       1.0  0.73207  0.61801  0.32937  1.0000
  C   C28       1.0  0.76793  0.38198  0.82936  1.0000
  C   C29       1.0  0.39337  0.50594  0.79109  1.0000
  C   C30       1.0  0.10663  0.49405  0.29109  1.0000
  C   C31       1.0  0.60664  0.49405  0.20891  1.0000
  C   C32       1.0  0.89338  0.50594  0.70891  1.0000
  C   C33       1.0  0.39133  0.17317  0.33458  1.0000
  C   C34       1.0  0.10867  0.82683  0.83457  1.0000
  C   C35       1.0  0.60867  0.82683  0.66542  1.0000
  C   C36       1.0  0.89133  0.17317  0.16542  1.0000
  C   C37       1.0  0.58133  0.03650  0.34632  1.0000
  C   C38       1.0  0.91867  0.96350  0.84632  1.0000
  C   C39       1.0  0.41867  0.96351  0.65369  1.0000
  C   C40       1.0  0.08133  0.03649  0.15369  1.0000
  N   N1        1.0  0.88991  0.26839  0.48322  1.0000
  N   N2        1.0  0.61009  0.73161  0.98321  1.0000
  N   N3        1.0  0.11009  0.73161  0.51678  1.0000
  N   N4        1.0  0.38991  0.26839  0.01678  1.0000
  N   N5        1.0  0.18822  0.35030  0.59571  1.0000
  N   N6        1.0  0.31178  0.64970  0.09572  1.0000
  N   N7        1.0  0.81178  0.64970  0.40428  1.0000
  N   N8        1.0  0.68824  0.35030  0.90427  1.0000
  N   N9        1.0  0.35810  0.40594  0.75598  1.0000
  N   N10       1.0  0.14190  0.59406  0.25598  1.0000
  N   N11       1.0  0.64189  0.59405  0.24403  1.0000
  N   N12       1.0  0.85811  0.40594  0.74401  1.0000
  N   N13       1.0  0.43895  0.59353  0.82668  1.0000
  N   N14       1.0  0.06105  0.40647  0.32668  1.0000
  N   N15       1.0  0.56106  0.40646  0.17331  1.0000
  N   N16       1.0  0.93895  0.59354  0.67331  1.0000
  N   N17       1.0  0.29174  0.23467  0.36159  1.0000
  N   N18       1.0  0.20825  0.76532  0.86158  1.0000
  N   N19       1.0  0.70825  0.76532  0.63841  1.0000
  N   N20       1.0  0.79175  0.23466  0.13840  1.0000
  N   N21       1.0  0.50061  0.11329  0.29281  1.0000
  N   N22       1.0  0.99939  0.88672  0.79280  1.0000
  N   N23       1.0  0.49940  0.88671  0.70720  1.0000
  N   N24       1.0  0.00061  0.11329  0.20720  1.0000
  N   N25       1.0  0.65991  0.96178  0.38206  1.0000
  N   N26       1.0  0.84008  0.03821  0.88206  1.0000
  N   N27       1.0  0.34009  0.03822  0.61795  1.0000
  N   N28       1.0  0.15991  0.96178  0.11795  1.0000
  O   O1        1.0  0.10271  0.11790  0.51223  1.0000
  O   O2        1.0  0.39729  0.88210  0.01222  1.0000
  O   O3        1.0  0.89730  0.88211  0.48778  1.0000
  O   O4        1.0  0.60270  0.11789  0.98778  1.0000
