data_image0
_chemical_formula_structural       Ca2H12C12O12
_chemical_formula_sum              "Ca2 H12 C12 O12"
_cell_length_a       7.28332
_cell_length_b       7.97878
_cell_length_c       8.87121
_cell_angle_alpha    105.909
_cell_angle_beta     89.9927
_cell_angle_gamma    117.149

_space_group_name_H-M_alt    "P 1"
_space_group_IT_number       1

loop_
  _space_group_symop_operation_xyz
  'x, y, z'

loop_
  _atom_site_type_symbol
  _atom_site_label
  _atom_site_symmetry_multiplicity
  _atom_site_fract_x
  _atom_site_fract_y
  _atom_site_fract_z
  _atom_site_occupancy
  Ca  Ca1       1.0  0.77528  0.55063  0.91348  1.0000
  Ca  Ca2       1.0  0.22471  0.44937  0.08653  1.0000
  H   H1        1.0  0.85155  0.70319  0.62602  1.0000
  H   H2        1.0  0.14845  0.29681  0.37398  1.0000
  H   H3        1.0  0.95511  0.91031  0.75811  1.0000
  H   H4        1.0  0.04489  0.08969  0.24188  1.0000
  H   H5        1.0  0.84822  0.99972  0.00004  1.0000
  H   H6        1.0  0.15178  0.00028  0.99996  1.0000
  H   H7        1.0  0.15126  0.00024  0.49992  1.0000
  H   H8        1.0  0.84875  0.99975  0.50008  1.0000
  H   H9        1.0  0.76945  0.75934  0.23134  1.0000
  H   H10       1.0  0.01028  0.24057  0.76869  1.0000
  H   H11       1.0  0.23055  0.24066  0.76866  1.0000
  H   H12       1.0  0.98972  0.75943  0.23131  1.0000
  C   C1        1.0  0.69369  0.17714  0.02231  1.0000
  C   C2        1.0  0.51619  0.82276  0.97774  1.0000
  C   C3        1.0  0.30631  0.82287  0.97769  1.0000
  C   C4        1.0  0.48381  0.17725  0.02226  1.0000
  C   C5        1.0  0.69941  0.99987  0.00012  1.0000
  C   C6        1.0  0.30059  0.00014  0.99988  1.0000
  C   C7        1.0  0.30082  0.00022  0.49989  1.0000
  C   C8        1.0  0.69918  0.99978  0.50011  1.0000
  C   C9        1.0  0.47418  0.15855  0.60492  1.0000
  C   C10       1.0  0.31571  0.84165  0.39499  1.0000
  C   C11       1.0  0.52582  0.84145  0.39508  1.0000
  C   C12       1.0  0.68429  0.15835  0.60501  1.0000
  O   O1        1.0  0.90201  0.80433  0.18402  1.0000
  O   O2        1.0  0.09799  0.19567  0.81598  1.0000
  O   O3        1.0  0.85371  0.34427  0.04147  1.0000
  O   O4        1.0  0.50893  0.65551  0.95843  1.0000
  O   O5        1.0  0.14629  0.65573  0.95853  1.0000
  O   O6        1.0  0.49107  0.34449  0.04157  1.0000
  O   O7        1.0  0.88256  0.76533  0.74005  1.0000
  O   O8        1.0  0.11744  0.23467  0.25995  1.0000
  O   O9        1.0  0.47032  0.30571  0.70524  1.0000
  O   O10       1.0  0.16467  0.69448  0.29475  1.0000
  O   O11       1.0  0.52967  0.69428  0.29476  1.0000
  O   O12       1.0  0.83533  0.30551  0.70525  1.0000
