data_image0
_chemical_formula_structural       Ag8H40C32N16O16
_chemical_formula_sum              "Ag8 H40 C32 N16 O16"
_cell_length_a       3.93996
_cell_length_b       11.2692
_cell_length_c       27.807
_cell_angle_alpha    90
_cell_angle_beta     90
_cell_angle_gamma    90

_space_group_name_H-M_alt    "P 1"
_space_group_IT_number       1

loop_
  _space_group_symop_operation_xyz
  'x, y, z'

loop_
  _atom_site_type_symbol
  _atom_site_label
  _atom_site_symmetry_multiplicity
  _atom_site_fract_x
  _atom_site_fract_y
  _atom_site_fract_z
  _atom_site_occupancy
  Ag  Ag1       1.0  0.03746  0.39135  0.02633  1.0000
  Ag  Ag2       1.0  0.46255  0.60865  0.52633  1.0000
  Ag  Ag3       1.0  0.96256  0.89136  0.47367  1.0000
  Ag  Ag4       1.0  0.53745  0.10864  0.97367  1.0000
  Ag  Ag5       1.0  0.96257  0.60865  0.97368  1.0000
  Ag  Ag6       1.0  0.53743  0.39136  0.47367  1.0000
  Ag  Ag7       1.0  0.03745  0.10865  0.52633  1.0000
  Ag  Ag8       1.0  0.46254  0.89135  0.02633  1.0000
  H   H1        1.0  0.57336  0.54761  0.21607  1.0000
  H   H2        1.0  0.92662  0.45239  0.71605  1.0000
  H   H3        1.0  0.42668  0.04761  0.28393  1.0000
  H   H4        1.0  0.07334  0.95239  0.78394  1.0000
  H   H5        1.0  0.42663  0.45239  0.78395  1.0000
  H   H6        1.0  0.07338  0.54763  0.28394  1.0000
  H   H7        1.0  0.57331  0.95240  0.71606  1.0000
  H   H8        1.0  0.92670  0.04760  0.21606  1.0000
  H   H9        1.0  0.88500  0.64852  0.19338  1.0000
  H   H10       1.0  0.61499  0.35147  0.69337  1.0000
  H   H11       1.0  0.11504  0.14853  0.30662  1.0000
  H   H12       1.0  0.38499  0.85147  0.80662  1.0000
  H   H13       1.0  0.11499  0.35148  0.80663  1.0000
  H   H14       1.0  0.38500  0.64854  0.30663  1.0000
  H   H15       1.0  0.88496  0.85148  0.69338  1.0000
  H   H16       1.0  0.61506  0.14852  0.19338  1.0000
  H   H17       1.0  0.95475  0.49129  0.19032  1.0000
  H   H18       1.0  0.54524  0.50871  0.69031  1.0000
  H   H19       1.0  0.04528  0.99130  0.30967  1.0000
  H   H20       1.0  0.45472  0.00871  0.80968  1.0000
  H   H21       1.0  0.04524  0.50871  0.80969  1.0000
  H   H22       1.0  0.45475  0.49131  0.30968  1.0000
  H   H23       1.0  0.95470  0.00871  0.69032  1.0000
  H   H24       1.0  0.54530  0.99129  0.19032  1.0000
  H   H25       1.0  0.83382  0.69863  0.09777  1.0000
  H   H26       1.0  0.66617  0.30137  0.59776  1.0000
  H   H27       1.0  0.16618  0.19863  0.40223  1.0000
  H   H28       1.0  0.33382  0.80136  0.90224  1.0000
  H   H29       1.0  0.16618  0.30137  0.90225  1.0000
  H   H30       1.0  0.33382  0.69864  0.40224  1.0000
  H   H31       1.0  0.83382  0.80137  0.59776  1.0000
  H   H32       1.0  0.66618  0.19863  0.09776  1.0000
  H   H33       1.0  0.44165  0.73854  0.12461  1.0000
  H   H34       1.0  0.05835  0.26146  0.62460  1.0000
  H   H35       1.0  0.55836  0.23854  0.37540  1.0000
  H   H36       1.0  0.94163  0.76146  0.87540  1.0000
  H   H37       1.0  0.55835  0.26146  0.87540  1.0000
  H   H38       1.0  0.94164  0.73855  0.37540  1.0000
  H   H39       1.0  0.44162  0.76146  0.62460  1.0000
  H   H40       1.0  0.05835  0.23854  0.12460  1.0000
  C   C1        1.0  0.76378  0.56211  0.18770  1.0000
  C   C2        1.0  0.73620  0.43788  0.68769  1.0000
  C   C3        1.0  0.23624  0.06212  0.31230  1.0000
  C   C4        1.0  0.26377  0.93788  0.81231  1.0000
  C   C5        1.0  0.23621  0.43789  0.81231  1.0000
  C   C6        1.0  0.26379  0.56213  0.31231  1.0000
  C   C7        1.0  0.76375  0.93789  0.68769  1.0000
  C   C8        1.0  0.73626  0.06211  0.18770  1.0000
  C   C9        1.0  0.44424  0.46677  0.12126  1.0000
  C   C10       1.0  0.05575  0.53322  0.62125  1.0000
  C   C11       1.0  0.55576  0.96678  0.37874  1.0000
  C   C12       1.0  0.94426  0.03319  0.87875  1.0000
  C   C13       1.0  0.55576  0.53322  0.87875  1.0000
  C   C14       1.0  0.94427  0.46680  0.37874  1.0000
  C   C15       1.0  0.44425  0.03320  0.62125  1.0000
  C   C16       1.0  0.05578  0.96677  0.12126  1.0000
  C   C17       1.0  0.39235  0.61264  0.06708  1.0000
  C   C18       1.0  0.10765  0.38737  0.56707  1.0000
  C   C19       1.0  0.60765  0.11263  0.43292  1.0000
  C   C20       1.0  0.89234  0.88736  0.93293  1.0000
  C   C21       1.0  0.60766  0.38736  0.93293  1.0000
  C   C22       1.0  0.89235  0.61264  0.43293  1.0000
  C   C23       1.0  0.39235  0.88737  0.56707  1.0000
  C   C24       1.0  0.10766  0.11263  0.06707  1.0000
  C   C25       1.0  0.58530  0.66377  0.10886  1.0000
  C   C26       1.0  0.91468  0.33622  0.60885  1.0000
  C   C27       1.0  0.41470  0.16378  0.39114  1.0000
  C   C28       1.0  0.08529  0.83621  0.89115  1.0000
  C   C29       1.0  0.41471  0.33622  0.89115  1.0000
  C   C30       1.0  0.08530  0.66379  0.39115  1.0000
  C   C31       1.0  0.58528  0.83622  0.60885  1.0000
  C   C32       1.0  0.91471  0.16378  0.10885  1.0000
  N   N1        1.0  0.60821  0.56209  0.14053  1.0000
  N   N2        1.0  0.89176  0.43791  0.64052  1.0000
  N   N3        1.0  0.39180  0.06209  0.35947  1.0000
  N   N4        1.0  0.10820  0.93791  0.85948  1.0000
  N   N5        1.0  0.39178  0.43791  0.85948  1.0000
  N   N6        1.0  0.10822  0.56210  0.35948  1.0000
  N   N7        1.0  0.60818  0.93791  0.64052  1.0000
  N   N8        1.0  0.89180  0.06209  0.14052  1.0000
  N   N9        1.0  0.31279  0.49936  0.07537  1.0000
  N   N10       1.0  0.18720  0.50063  0.57536  1.0000
  N   N11       1.0  0.68721  0.99936  0.42463  1.0000
  N   N12       1.0  0.81279  0.00063  0.92463  1.0000
  N   N13       1.0  0.68722  0.50063  0.92464  1.0000
  N   N14       1.0  0.81280  0.49937  0.42463  1.0000
  N   N15       1.0  0.31279  0.00063  0.57536  1.0000
  N   N16       1.0  0.18722  0.99937  0.07537  1.0000
  O   O1        1.0  0.41077  0.36851  0.14062  1.0000
  O   O2        1.0  0.08923  0.63148  0.64062  1.0000
  O   O3        1.0  0.58923  0.86851  0.35937  1.0000
  O   O4        1.0  0.91078  0.13149  0.85937  1.0000
  O   O5        1.0  0.58924  0.63149  0.85938  1.0000
  O   O6        1.0  0.91079  0.36852  0.35937  1.0000
  O   O7        1.0  0.41076  0.13150  0.64062  1.0000
  O   O8        1.0  0.08925  0.86852  0.14062  1.0000
  O   O9        1.0  0.31554  0.67364  0.03007  1.0000
  O   O10       1.0  0.18444  0.32636  0.53006  1.0000
  O   O11       1.0  0.68446  0.17364  0.46993  1.0000
  O   O12       1.0  0.81553  0.82636  0.96994  1.0000
  O   O13       1.0  0.68447  0.32636  0.96994  1.0000
  O   O14       1.0  0.81553  0.67364  0.46994  1.0000
  O   O15       1.0  0.31555  0.82637  0.53006  1.0000
  O   O16       1.0  0.18446  0.17364  0.03006  1.0000
