data_image0
_chemical_formula_structural       Cu3P2H24C34N4O10
_chemical_formula_sum              "Cu3 P2 H24 C34 N4 O10"
_cell_length_a       8.27665
_cell_length_b       9.66823
_cell_length_c       9.8279
_cell_angle_alpha    86.3334
_cell_angle_beta     85.1387
_cell_angle_gamma    88.7709

_space_group_name_H-M_alt    "P 1"
_space_group_IT_number       1

loop_
  _space_group_symop_operation_xyz
  'x, y, z'

loop_
  _atom_site_type_symbol
  _atom_site_label
  _atom_site_symmetry_multiplicity
  _atom_site_fract_x
  _atom_site_fract_y
  _atom_site_fract_z
  _atom_site_occupancy
  Cu  Cu1       1.0  0.50001  0.49998  0.49997  1.0000
  Cu  Cu2       1.0  0.85664  0.53058  0.73502  1.0000
  Cu  Cu3       1.0  0.14335  0.46942  0.26502  1.0000
  P   P1        1.0  0.84750  0.34375  0.47027  1.0000
  P   P2        1.0  0.15250  0.65622  0.52971  1.0000
  H   H1        1.0  0.63391  0.28343  0.72361  1.0000
  H   H2        1.0  0.36611  0.71655  0.27644  1.0000
  H   H3        1.0  0.02038  0.78514  0.82074  1.0000
  H   H4        1.0  0.97951  0.21491  0.17926  1.0000
  H   H5        1.0  0.88348  0.12325  0.68852  1.0000
  H   H6        1.0  0.11661  0.87668  0.31143  1.0000
  H   H7        1.0  0.69069  0.16707  0.29551  1.0000
  H   H8        1.0  0.30925  0.83293  0.70450  1.0000
  H   H9        1.0  0.61421  0.39009  0.20849  1.0000
  H   H10       1.0  0.38573  0.60994  0.79155  1.0000
  H   H11       1.0  0.47415  0.13076  0.89794  1.0000
  H   H12       1.0  0.52588  0.86921  0.10210  1.0000
  H   H13       1.0  0.04498  0.89416  0.04559  1.0000
  H   H14       1.0  0.95498  0.10591  0.95438  1.0000
  H   H15       1.0  0.74984  0.56524  0.24371  1.0000
  H   H16       1.0  0.25016  0.43482  0.75634  1.0000
  H   H17       1.0  0.80124  0.87410  0.71168  1.0000
  H   H18       1.0  0.19888  0.12582  0.28824  1.0000
  H   H19       1.0  0.60840  0.91932  0.32073  1.0000
  H   H20       1.0  0.39158  0.08067  0.67926  1.0000
  H   H21       1.0  0.46300  0.18870  0.14720  1.0000
  H   H22       1.0  0.53697  0.81134  0.85283  1.0000
  H   H23       1.0  0.90350  0.77799  0.26048  1.0000
  H   H24       1.0  0.09653  0.22206  0.73951  1.0000
  C   C1        1.0  0.79242  0.16192  0.49084  1.0000
  C   C2        1.0  0.20758  0.83806  0.50916  1.0000
  C   C3        1.0  0.70602  0.44292  0.99857  1.0000
  C   C4        1.0  0.29394  0.55711  0.00146  1.0000
  C   C5        1.0  0.62881  0.30220  0.83181  1.0000
  C   C6        1.0  0.37120  0.69780  0.16823  1.0000
  C   C7        1.0  0.96008  0.74361  0.91726  1.0000
  C   C8        1.0  0.03984  0.25643  0.08275  1.0000
  C   C9        1.0  0.79790  0.56638  0.02256  1.0000
  C   C10       1.0  0.20205  0.43366  0.97747  1.0000
  C   C11       1.0  0.82373  0.07823  0.60768  1.0000
  C   C12       1.0  0.17634  0.92171  0.39228  1.0000
  C   C13       1.0  0.71737  0.10261  0.38617  1.0000
  C   C14       1.0  0.28259  0.89737  0.61384  1.0000
  C   C15       1.0  0.61814  0.36356  0.10203  1.0000
  C   C16       1.0  0.38180  0.63648  0.89799  1.0000
  C   C17       1.0  0.53997  0.21773  0.93020  1.0000
  C   C18       1.0  0.46002  0.78227  0.06985  1.0000
  C   C19       1.0  0.97210  0.80213  0.04197  1.0000
  C   C20       1.0  0.02785  0.19793  0.95803  1.0000
  C   C21       1.0  0.80735  0.61796  0.15116  1.0000
  C   C22       1.0  0.19263  0.38210  0.84885  1.0000
  C   C23       1.0  0.77755  0.94002  0.62133  1.0000
  C   C24       1.0  0.22256  0.05991  0.37859  1.0000
  C   C25       1.0  0.67151  0.96459  0.39954  1.0000
  C   C26       1.0  0.32850  0.03540  0.60043  1.0000
  C   C27       1.0  0.53444  0.24906  0.06696  1.0000
  C   C28       1.0  0.46551  0.75096  0.93308  1.0000
  C   C29       1.0  0.89484  0.73802  0.16041  1.0000
  C   C30       1.0  0.10514  0.26205  0.83960  1.0000
  C   C31       1.0  0.69947  0.88220  0.51819  1.0000
  C   C32       1.0  0.30061  0.11775  0.48176  1.0000
  C   C33       1.0  0.63982  0.73681  0.53862  1.0000
  C   C34       1.0  0.36023  0.26314  0.46134  1.0000
  N   N1        1.0  0.71046  0.41130  0.86568  1.0000
  N   N2        1.0  0.28952  0.58870  0.13435  1.0000
  N   N3        1.0  0.87442  0.62893  0.90840  1.0000
  N   N4        1.0  0.12552  0.37111  0.09163  1.0000
  O   O1        1.0  0.64782  0.66993  0.65277  1.0000
  O   O2        1.0  0.35220  0.33002  0.34718  1.0000
  O   O3        1.0  0.70360  0.42684  0.41532  1.0000
  O   O4        1.0  0.29645  0.57311  0.58460  1.0000
  O   O5        1.0  0.89302  0.38223  0.61101  1.0000
  O   O6        1.0  0.10692  0.61779  0.38900  1.0000
  O   O7        1.0  0.99061  0.34153  0.35986  1.0000
  O   O8        1.0  0.00950  0.65839  0.64022  1.0000
  O   O9        1.0  0.57669  0.68780  0.43652  1.0000
  O   O10       1.0  0.42337  0.31216  0.56342  1.0000
