data_image0
_chemical_formula_structural       V2Cu2P2H24C34N4O14
_chemical_formula_sum              "V2 Cu2 P2 H24 C34 N4 O14"
_cell_length_a       9.51968
_cell_length_b       9.54344
_cell_length_c       10.8563
_cell_angle_alpha    111.479
_cell_angle_beta     95.8577
_cell_angle_gamma    110.632

_space_group_name_H-M_alt    "P 1"
_space_group_IT_number       1

loop_
  _space_group_symop_operation_xyz
  'x, y, z'

loop_
  _atom_site_type_symbol
  _atom_site_label
  _atom_site_symmetry_multiplicity
  _atom_site_fract_x
  _atom_site_fract_y
  _atom_site_fract_z
  _atom_site_occupancy
  V   V1        1.0  0.84695  0.46424  0.27394  1.0000
  V   V2        1.0  0.15305  0.53575  0.72605  1.0000
  Cu  Cu1       1.0  0.60908  0.13082  0.24919  1.0000
  Cu  Cu2       1.0  0.39092  0.86919  0.75081  1.0000
  P   P1        1.0  0.00615  0.29995  0.40007  1.0000
  P   P2        1.0  0.99385  0.70005  0.59993  1.0000
  H   H1        1.0  0.26652  0.37422  0.28414  1.0000
  H   H2        1.0  0.73348  0.62578  0.71586  1.0000
  H   H3        1.0  0.35371  0.20031  0.10616  1.0000
  H   H4        1.0  0.64629  0.79969  0.89384  1.0000
  H   H5        1.0  0.98055  0.76010  0.07402  1.0000
  H   H6        1.0  0.01945  0.23989  0.92598  1.0000
  H   H7        1.0  0.89329  0.93512  0.25228  1.0000
  H   H8        1.0  0.10671  0.06488  0.74772  1.0000
  H   H9        1.0  0.63425  0.43302  0.48902  1.0000
  H   H10       1.0  0.36574  0.56698  0.51098  1.0000
  H   H11       1.0  0.47899  0.48225  0.66476  1.0000
  H   H12       1.0  0.52100  0.51776  0.33524  1.0000
  H   H13       1.0  0.26563  0.23852  0.66336  1.0000
  H   H14       1.0  0.73437  0.76148  0.33664  1.0000
  H   H15       1.0  0.21544  0.95286  0.49518  1.0000
  H   H16       1.0  0.78456  0.04714  0.50482  1.0000
  H   H17       1.0  0.18075  0.72402  0.33656  1.0000
  H   H18       1.0  0.81925  0.27598  0.66344  1.0000
  H   H19       1.0  0.15569  0.46861  0.14233  1.0000
  H   H20       1.0  0.84431  0.53139  0.85767  1.0000
  H   H21       1.0  0.34444  0.49331  0.99535  1.0000
  H   H22       1.0  0.65556  0.50669  0.00465  1.0000
  H   H23       1.0  0.54508  0.77839  0.04883  1.0000
  H   H24       1.0  0.45493  0.22161  0.95118  1.0000
  C   C1        1.0  0.07376  0.16656  0.27959  1.0000
  C   C2        1.0  0.92624  0.83344  0.72041  1.0000
  C   C3        1.0  0.20465  0.23965  0.23867  1.0000
  C   C4        1.0  0.79536  0.76035  0.76134  1.0000
  C   C5        1.0  0.25211  0.14250  0.13740  1.0000
  C   C6        1.0  0.74789  0.85750  0.86260  1.0000
  C   C7        1.0  0.16891  0.96920  0.07404  1.0000
  C   C8        1.0  0.83110  0.03080  0.92596  1.0000
  C   C9        1.0  0.21232  0.86890  0.95508  1.0000
  C   C10       1.0  0.78769  0.13110  0.04492  1.0000
  C   C11       1.0  0.04211  0.89472  0.11867  1.0000
  C   C12       1.0  0.95789  0.10528  0.88132  1.0000
  C   C13       1.0  0.99462  0.99306  0.22050  1.0000
  C   C14       1.0  0.00538  0.00694  0.77950  1.0000
  C   C15       1.0  0.53902  0.33179  0.49393  1.0000
  C   C16       1.0  0.46098  0.66821  0.50607  1.0000
  C   C17       1.0  0.45442  0.35722  0.59089  1.0000
  C   C18       1.0  0.54558  0.64278  0.40911  1.0000
  C   C19       1.0  0.33490  0.22040  0.58992  1.0000
  C   C20       1.0  0.66509  0.77961  0.41008  1.0000
  C   C21       1.0  0.30390  0.06170  0.49362  1.0000
  C   C22       1.0  0.69609  0.93831  0.50637  1.0000
  C   C23       1.0  0.39212  0.04470  0.39844  1.0000
  C   C24       1.0  0.60788  0.95530  0.60156  1.0000
  C   C25       1.0  0.37133  0.88498  0.29146  1.0000
  C   C26       1.0  0.62866  0.11502  0.70854  1.0000
  C   C27       1.0  0.25863  0.73141  0.27023  1.0000
  C   C28       1.0  0.74136  0.26859  0.72977  1.0000
  C   C29       1.0  0.24686  0.58839  0.16246  1.0000
  C   C30       1.0  0.75314  0.41160  0.83754  1.0000
  C   C31       1.0  0.35145  0.60169  0.08190  1.0000
  C   C32       1.0  0.64856  0.39831  0.91810  1.0000
  C   C33       1.0  0.46229  0.75868  0.10953  1.0000
  C   C34       1.0  0.53771  0.24132  0.89047  1.0000
  N   N1        1.0  0.50648  0.17917  0.39932  1.0000
  N   N2        1.0  0.49352  0.82083  0.60067  1.0000
  N   N3        1.0  0.47046  0.89655  0.21053  1.0000
  N   N4        1.0  0.52954  0.10345  0.78947  1.0000
  O   O1        1.0  0.02317  0.44055  0.35210  1.0000
  O   O2        1.0  0.97683  0.55945  0.64790  1.0000
  O   O3        1.0  0.12980  0.38139  0.53948  1.0000
  O   O4        1.0  0.87020  0.61861  0.46052  1.0000
  O   O5        1.0  0.84080  0.20223  0.39723  1.0000
  O   O6        1.0  0.15920  0.79777  0.60277  1.0000
  O   O7        1.0  0.32013  0.95136  0.91516  1.0000
  O   O8        1.0  0.67987  0.04864  0.08484  1.0000
  O   O9        1.0  0.13733  0.71134  0.90081  1.0000
  O   O10       1.0  0.86267  0.28866  0.09919  1.0000
  O   O11       1.0  0.87228  0.59444  0.20682  1.0000
  O   O12       1.0  0.12772  0.40556  0.79318  1.0000
  O   O13       1.0  0.65479  0.34453  0.24037  1.0000
  O   O14       1.0  0.34521  0.65547  0.75963  1.0000
