data_image0
_chemical_formula_structural       Ni4H24C24N16
_chemical_formula_sum              "Ni4 H24 C24 N16"
_cell_length_a       7.45932
_cell_length_b       8.7205
_cell_length_c       10.3898
_cell_angle_alpha    90.0001
_cell_angle_beta     90.0005
_cell_angle_gamma    90

_space_group_name_H-M_alt    "P 1"
_space_group_IT_number       1

loop_
  _space_group_symop_operation_xyz
  'x, y, z'

loop_
  _atom_site_type_symbol
  _atom_site_label
  _atom_site_symmetry_multiplicity
  _atom_site_fract_x
  _atom_site_fract_y
  _atom_site_fract_z
  _atom_site_occupancy
  Ni  Ni1       1.0  0.00000  0.56627  0.25000  1.0000
  Ni  Ni2       1.0  0.50000  0.06627  0.25000  1.0000
  Ni  Ni3       1.0  0.00000  0.43373  0.75000  1.0000
  Ni  Ni4       1.0  0.50000  0.93373  0.75000  1.0000
  H   H1        1.0  0.16064  0.24991  0.16270  1.0000
  H   H2        1.0  0.66064  0.74991  0.33730  1.0000
  H   H3        1.0  0.16064  0.75009  0.66269  1.0000
  H   H4        1.0  0.33936  0.74991  0.16270  1.0000
  H   H5        1.0  0.83936  0.75009  0.83731  1.0000
  H   H6        1.0  0.33936  0.25009  0.66270  1.0000
  H   H7        1.0  0.83936  0.24990  0.33730  1.0000
  H   H8        1.0  0.66064  0.25009  0.83730  1.0000
  H   H9        1.0  0.25186  0.52426  0.49132  1.0000
  H   H10       1.0  0.75186  0.02426  0.00868  1.0000
  H   H11       1.0  0.25186  0.47574  0.99132  1.0000
  H   H12       1.0  0.24814  0.02426  0.49132  1.0000
  H   H13       1.0  0.74814  0.47574  0.50867  1.0000
  H   H14       1.0  0.24814  0.97573  0.99132  1.0000
  H   H15       1.0  0.74814  0.52426  0.00868  1.0000
  H   H16       1.0  0.75186  0.97574  0.50868  1.0000
  H   H17       1.0  0.49663  0.28401  0.48722  1.0000
  H   H18       1.0  0.99663  0.78401  0.01278  1.0000
  H   H19       1.0  0.49662  0.71600  0.98722  1.0000
  H   H20       1.0  0.00337  0.78401  0.48722  1.0000
  H   H21       1.0  0.50338  0.71600  0.51278  1.0000
  H   H22       1.0  0.00337  0.21599  0.98722  1.0000
  H   H23       1.0  0.50337  0.28401  0.01278  1.0000
  H   H24       1.0  0.99663  0.21599  0.51278  1.0000
  C   C1        1.0  0.21630  0.29107  0.25241  1.0000
  C   C2        1.0  0.71630  0.79107  0.24759  1.0000
  C   C3        1.0  0.21630  0.70893  0.75241  1.0000
  C   C4        1.0  0.28370  0.79107  0.25241  1.0000
  C   C5        1.0  0.78370  0.70893  0.74760  1.0000
  C   C6        1.0  0.28370  0.20893  0.75241  1.0000
  C   C7        1.0  0.78370  0.29107  0.24759  1.0000
  C   C8        1.0  0.71630  0.20893  0.74759  1.0000
  C   C9        1.0  0.26747  0.43163  0.42291  1.0000
  C   C10       1.0  0.76747  0.93163  0.07709  1.0000
  C   C11       1.0  0.26747  0.56837  0.92291  1.0000
  C   C12       1.0  0.23253  0.93163  0.42291  1.0000
  C   C13       1.0  0.73253  0.56837  0.57709  1.0000
  C   C14       1.0  0.23253  0.06836  0.92291  1.0000
  C   C15       1.0  0.73253  0.43163  0.07709  1.0000
  C   C16       1.0  0.76747  0.06836  0.57709  1.0000
  C   C17       1.0  0.38815  0.31180  0.42185  1.0000
  C   C18       1.0  0.88815  0.81180  0.07815  1.0000
  C   C19       1.0  0.38815  0.68821  0.92185  1.0000
  C   C20       1.0  0.11185  0.81180  0.42185  1.0000
  C   C21       1.0  0.61186  0.68821  0.57815  1.0000
  C   C22       1.0  0.11185  0.18820  0.92185  1.0000
  C   C23       1.0  0.61185  0.31180  0.07815  1.0000
  C   C24       1.0  0.88815  0.18820  0.57815  1.0000
  N   N1        1.0  0.15964  0.41817  0.31517  1.0000
  N   N2        1.0  0.65964  0.91817  0.18483  1.0000
  N   N3        1.0  0.15964  0.58183  0.81517  1.0000
  N   N4        1.0  0.34036  0.91817  0.31517  1.0000
  N   N5        1.0  0.84036  0.58183  0.68483  1.0000
  N   N6        1.0  0.34036  0.08183  0.81517  1.0000
  N   N7        1.0  0.84036  0.41817  0.18483  1.0000
  N   N8        1.0  0.65964  0.08183  0.68483  1.0000
  N   N9        1.0  0.35386  0.22414  0.31418  1.0000
  N   N10       1.0  0.85386  0.72414  0.18582  1.0000
  N   N11       1.0  0.35386  0.77586  0.81418  1.0000
  N   N12       1.0  0.14614  0.72414  0.31418  1.0000
  N   N13       1.0  0.64614  0.77586  0.68582  1.0000
  N   N14       1.0  0.14614  0.27586  0.81418  1.0000
  N   N15       1.0  0.64614  0.22414  0.18582  1.0000
  N   N16       1.0  0.85386  0.27586  0.68582  1.0000
