data_image0
_chemical_formula_structural       V4Cu2P2H24C38N4O18F2
_chemical_formula_sum              "V4 Cu2 P2 H24 C38 N4 O18 F2"
_cell_length_a       9.95996
_cell_length_b       11.113
_cell_length_c       11.2867
_cell_angle_alpha    114.202
_cell_angle_beta     104.806
_cell_angle_gamma    102.286

_space_group_name_H-M_alt    "P 1"
_space_group_IT_number       1

loop_
  _space_group_symop_operation_xyz
  'x, y, z'

loop_
  _atom_site_type_symbol
  _atom_site_label
  _atom_site_symmetry_multiplicity
  _atom_site_fract_x
  _atom_site_fract_y
  _atom_site_fract_z
  _atom_site_occupancy
  V   V1        1.0  0.12782  0.43889  0.46091  1.0000
  V   V2        1.0  0.87219  0.56111  0.53909  1.0000
  V   V3        1.0  0.54924  0.30435  0.32332  1.0000
  V   V4        1.0  0.45076  0.69564  0.67668  1.0000
  Cu  Cu1       1.0  0.22407  0.84020  0.74344  1.0000
  Cu  Cu2       1.0  0.77593  0.15979  0.25655  1.0000
  P   P1        1.0  0.35951  0.52751  0.34684  1.0000
  P   P2        1.0  0.64049  0.47249  0.65316  1.0000
  H   H1        1.0  0.56686  0.57003  0.21745  1.0000
  H   H2        1.0  0.43314  0.42998  0.78255  1.0000
  H   H3        1.0  0.56358  0.65066  0.04047  1.0000
  H   H4        1.0  0.43642  0.34934  0.95953  1.0000
  H   H5        1.0  0.15624  0.71939  0.04365  1.0000
  H   H6        1.0  0.84376  0.28062  0.95636  1.0000
  H   H7        1.0  0.15730  0.63702  0.21998  1.0000
  H   H8        1.0  0.84270  0.36298  0.78002  1.0000
  H   H9        1.0  0.20248  0.96709  0.03664  1.0000
  H   H10       1.0  0.79752  0.03291  0.96336  1.0000
  H   H11       1.0  0.13324  0.17413  0.16908  1.0000
  H   H12       1.0  0.86676  0.82587  0.83092  1.0000
  H   H13       1.0  0.08745  0.32928  0.06872  1.0000
  H   H14       1.0  0.91255  0.67072  0.93128  1.0000
  H   H15       1.0  0.08559  0.38853  0.86815  1.0000
  H   H16       1.0  0.91441  0.61147  0.13185  1.0000
  H   H17       1.0  0.12022  0.33023  0.64605  1.0000
  H   H18       1.0  0.87978  0.66977  0.35395  1.0000
  H   H19       1.0  0.20067  0.17719  0.45522  1.0000
  H   H20       1.0  0.79933  0.82281  0.54478  1.0000
  H   H21       1.0  0.27860  0.96758  0.35903  1.0000
  H   H22       1.0  0.72140  0.03242  0.64097  1.0000
  H   H23       1.0  0.28859  0.81933  0.47837  1.0000
  H   H24       1.0  0.71141  0.18067  0.52163  1.0000
  C   C1        1.0  0.36176  0.59764  0.22865  1.0000
  C   C2        1.0  0.63824  0.40236  0.77135  1.0000
  C   C3        1.0  0.47797  0.60427  0.18033  1.0000
  C   C4        1.0  0.52203  0.39574  0.81967  1.0000
  C   C5        1.0  0.47607  0.64901  0.08159  1.0000
  C   C6        1.0  0.52393  0.35100  0.91841  1.0000
  C   C7        1.0  0.35865  0.68763  0.03005  1.0000
  C   C8        1.0  0.64135  0.31238  0.96995  1.0000
  C   C9        1.0  0.35056  0.72212  0.91403  1.0000
  C   C10       1.0  0.64944  0.27788  0.08597  1.0000
  C   C11       1.0  0.24598  0.68743  0.08329  1.0000
  C   C12       1.0  0.75402  0.31257  0.91671  1.0000
  C   C13       1.0  0.24698  0.64181  0.18140  1.0000
  C   C14       1.0  0.75303  0.35819  0.81860  1.0000
  C   C15       1.0  0.17977  0.03690  0.99576  1.0000
  C   C16       1.0  0.82023  0.96310  0.00424  1.0000
  C   C17       1.0  0.14072  0.15225  0.06821  1.0000
  C   C18       1.0  0.85929  0.84775  0.93179  1.0000
  C   C19       1.0  0.11496  0.23826  0.01169  1.0000
  C   C20       1.0  0.88504  0.76174  0.98831  1.0000
  C   C21       1.0  0.12988  0.21062  0.88277  1.0000
  C   C22       1.0  0.87012  0.78938  0.11723  1.0000
  C   C23       1.0  0.16849  0.09198  0.81689  1.0000
  C   C24       1.0  0.83151  0.90802  0.18311  1.0000
  C   C25       1.0  0.11249  0.29523  0.81659  1.0000
  C   C26       1.0  0.88751  0.70477  0.18341  1.0000
  C   C27       1.0  0.13302  0.26355  0.69337  1.0000
  C   C28       1.0  0.86698  0.73645  0.30663  1.0000
  C   C29       1.0  0.17423  0.14481  0.62604  1.0000
  C   C30       1.0  0.82577  0.85519  0.37397  1.0000
  C   C31       1.0  0.18929  0.05832  0.68818  1.0000
  C   C32       1.0  0.81071  0.94168  0.31182  1.0000
  C   C33       1.0  0.20710  0.11067  0.50401  1.0000
  C   C34       1.0  0.79290  0.88933  0.49599  1.0000
  C   C35       1.0  0.24976  0.99510  0.45120  1.0000
  C   C36       1.0  0.75024  0.00490  0.54880  1.0000
  C   C37       1.0  0.25747  0.91212  0.51755  1.0000
  C   C38       1.0  0.74254  0.08788  0.48245  1.0000
  N   N1        1.0  0.19215  0.00784  0.87342  1.0000
  N   N2        1.0  0.80785  0.99216  0.12658  1.0000
  N   N3        1.0  0.22806  0.94344  0.63299  1.0000
  N   N4        1.0  0.77195  0.05656  0.36701  1.0000
  O   O1        1.0  0.40628  0.39929  0.29649  1.0000
  O   O2        1.0  0.59372  0.60071  0.70351  1.0000
  O   O3        1.0  0.46435  0.64779  0.49618  1.0000
  O   O4        1.0  0.53565  0.35221  0.50382  1.0000
  O   O5        1.0  0.19506  0.48550  0.33368  1.0000
  O   O6        1.0  0.80494  0.51450  0.66632  1.0000
  O   O7        1.0  0.43481  0.68528  0.84824  1.0000
  O   O8        1.0  0.56519  0.31472  0.15176  1.0000
  O   O9        1.0  0.26122  0.78336  0.89028  1.0000
  O   O10       1.0  0.73877  0.21665  0.10972  1.0000
  O   O11       1.0  0.28318  0.43922  0.55655  1.0000
  O   O12       1.0  0.71682  0.56078  0.44345  1.0000
  O   O13       1.0  0.44818  0.13901  0.24041  1.0000
  O   O14       1.0  0.55181  0.86098  0.75959  1.0000
  O   O15       1.0  0.26889  0.68952  0.62015  1.0000
  O   O16       1.0  0.73111  0.31048  0.37985  1.0000
  O   O17       1.0  0.97479  0.72934  0.64509  1.0000
  O   O18       1.0  0.02522  0.27066  0.35491  1.0000
  F   F1        1.0  0.03366  0.47523  0.59628  1.0000
  F   F2        1.0  0.96634  0.52477  0.40373  1.0000
