data_image0
_chemical_formula_structural       Cu4H40C24N4Cl4O2
_chemical_formula_sum              "Cu4 H40 C24 N4 Cl4 O2"
_cell_length_a       7.22233
_cell_length_b       10.0473
_cell_length_c       10.5144
_cell_angle_alpha    89.9999
_cell_angle_beta     89.9998
_cell_angle_gamma    98.9999

_space_group_name_H-M_alt    "P 1"
_space_group_IT_number       1

loop_
  _space_group_symop_operation_xyz
  'x, y, z'

loop_
  _atom_site_type_symbol
  _atom_site_label
  _atom_site_symmetry_multiplicity
  _atom_site_fract_x
  _atom_site_fract_y
  _atom_site_fract_z
  _atom_site_occupancy
  Cu  Cu1       1.0  0.33029  0.93410  0.91979  1.0000
  Cu  Cu2       1.0  0.66971  0.06590  0.41979  1.0000
  Cu  Cu3       1.0  0.41673  0.97526  0.17917  1.0000
  Cu  Cu4       1.0  0.58328  0.02473  0.67917  1.0000
  H   H1        1.0  0.53319  0.56741  0.90732  1.0000
  H   H2        1.0  0.46679  0.43260  0.40731  1.0000
  H   H3        1.0  0.58097  0.43878  0.80033  1.0000
  H   H4        1.0  0.41903  0.56124  0.30033  1.0000
  H   H5        1.0  0.65036  0.43477  0.96142  1.0000
  H   H6        1.0  0.34964  0.56524  0.46142  1.0000
  H   H7        1.0  0.35557  0.35013  0.14092  1.0000
  H   H8        1.0  0.64442  0.64985  0.64092  1.0000
  H   H9        1.0  0.30327  0.50770  0.08870  1.0000
  H   H10       1.0  0.69672  0.49229  0.58869  1.0000
  H   H11       1.0  0.97874  0.41951  0.07753  1.0000
  H   H12       1.0  0.02125  0.58048  0.57753  1.0000
  H   H13       1.0  0.02536  0.26429  0.13776  1.0000
  H   H14       1.0  0.97462  0.73570  0.63777  1.0000
  H   H15       1.0  0.89765  0.25852  0.89374  1.0000
  H   H16       1.0  0.10235  0.74148  0.39374  1.0000
  H   H17       1.0  0.11499  0.56983  0.94716  1.0000
  H   H18       1.0  0.88499  0.43017  0.44715  1.0000
  H   H19       1.0  0.97244  0.51968  0.81269  1.0000
  H   H20       1.0  0.02754  0.48031  0.31268  1.0000
  H   H21       1.0  0.20896  0.59713  0.79282  1.0000
  H   H22       1.0  0.79101  0.40286  0.29281  1.0000
  H   H23       1.0  0.05760  0.34167  0.66227  1.0000
  H   H24       1.0  0.94240  0.65834  0.16227  1.0000
  H   H25       1.0  0.23545  0.24476  0.70089  1.0000
  H   H26       1.0  0.76456  0.75525  0.20090  1.0000
  H   H27       1.0  0.29806  0.41694  0.66039  1.0000
  H   H28       1.0  0.70194  0.58308  0.16039  1.0000
  H   H29       1.0  0.01929  0.80248  0.82740  1.0000
  H   H30       1.0  0.98072  0.19752  0.32740  1.0000
  H   H31       1.0  0.77632  0.78441  0.86799  1.0000
  H   H32       1.0  0.22369  0.21558  0.36799  1.0000
  H   H33       1.0  0.94815  0.76900  0.98842  1.0000
  H   H34       1.0  0.05186  0.23099  0.48842  1.0000
  H   H35       1.0  0.76759  0.10408  0.99898  1.0000
  H   H36       1.0  0.23242  0.89592  0.49898  1.0000
  H   H37       1.0  0.88078  0.00977  0.11235  1.0000
  H   H38       1.0  0.11923  0.99023  0.61235  1.0000
  H   H39       1.0  0.68505  0.93094  0.02105  1.0000
  H   H40       1.0  0.31496  0.06905  0.52104  1.0000
  C   C1        1.0  0.15218  0.16431  0.92633  1.0000
  C   C2        1.0  0.84782  0.83569  0.42633  1.0000
  C   C3        1.0  0.34967  0.22398  0.92643  1.0000
  C   C4        1.0  0.65034  0.77602  0.42644  1.0000
  C   C5        1.0  0.35351  0.37546  0.93179  1.0000
  C   C6        1.0  0.64648  0.62454  0.43179  1.0000
  C   C7        1.0  0.53949  0.45933  0.89798  1.0000
  C   C8        1.0  0.46050  0.54068  0.39797  1.0000
  C   C9        1.0  0.27912  0.39901  0.06892  1.0000
  C   C10       1.0  0.72087  0.60098  0.56892  1.0000
  C   C11       1.0  0.06671  0.34083  0.06469  1.0000
  C   C12       1.0  0.93329  0.65916  0.56469  1.0000
  C   C13       1.0  0.04186  0.28007  0.92915  1.0000
  C   C14       1.0  0.95814  0.71992  0.42915  1.0000
  C   C15       1.0  0.17528  0.38698  0.84910  1.0000
  C   C16       1.0  0.82472  0.61302  0.34910  1.0000
  C   C17       1.0  0.11479  0.52603  0.85182  1.0000
  C   C18       1.0  0.88519  0.47397  0.35181  1.0000
  C   C19       1.0  0.19321  0.34470  0.71060  1.0000
  C   C20       1.0  0.80680  0.65531  0.21061  1.0000
  C   C21       1.0  0.91906  0.82170  0.90072  1.0000
  C   C22       1.0  0.08095  0.17830  0.40073  1.0000
  C   C23       1.0  0.81142  0.00702  0.01859  1.0000
  C   C24       1.0  0.18859  0.99298  0.51859  1.0000
  N   N1        1.0  0.11287  0.03253  0.91509  1.0000
  N   N2        1.0  0.88714  0.96746  0.41509  1.0000
  N   N3        1.0  0.93581  0.96654  0.92087  1.0000
  N   N4        1.0  0.06420  0.03346  0.42088  1.0000
  Cl  Cl1       1.0  0.32722  0.78617  0.09279  1.0000
  Cl  Cl2       1.0  0.67280  0.21382  0.59279  1.0000
  Cl  Cl3       1.0  0.46992  0.83533  0.75808  1.0000
  Cl  Cl4       1.0  0.53009  0.16467  0.25808  1.0000
  O   O1        1.0  0.48411  0.15949  0.92563  1.0000
  O   O2        1.0  0.51589  0.84053  0.42564  1.0000
