data_image0
_chemical_formula_structural       Li4H52C68N16
_chemical_formula_sum              "Li4 H52 C68 N16"
_cell_length_a       7.87852
_cell_length_b       11.1455
_cell_length_c       17.3036
_cell_angle_alpha    90
_cell_angle_beta     90
_cell_angle_gamma    90

_space_group_name_H-M_alt    "P 1"
_space_group_IT_number       1

loop_
  _space_group_symop_operation_xyz
  'x, y, z'

loop_
  _atom_site_type_symbol
  _atom_site_label
  _atom_site_symmetry_multiplicity
  _atom_site_fract_x
  _atom_site_fract_y
  _atom_site_fract_z
  _atom_site_occupancy
  Li  Li1       1.0  0.08723  0.58961  0.09365  1.0000
  Li  Li2       1.0  0.58723  0.41039  0.90635  1.0000
  Li  Li3       1.0  0.08723  0.08961  0.40635  1.0000
  Li  Li4       1.0  0.58723  0.91039  0.59365  1.0000
  H   H1        1.0  0.74563  0.55062  0.01842  1.0000
  H   H2        1.0  0.24563  0.44938  0.98158  1.0000
  H   H3        1.0  0.74563  0.05062  0.48158  1.0000
  H   H4        1.0  0.24563  0.94938  0.51842  1.0000
  H   H5        1.0  0.70463  0.10672  0.98452  1.0000
  H   H6        1.0  0.20463  0.89328  0.01548  1.0000
  H   H7        1.0  0.70463  0.60672  0.51548  1.0000
  H   H8        1.0  0.20463  0.39328  0.48452  1.0000
  H   H9        1.0  0.93663  0.97754  0.03601  1.0000
  H   H10       1.0  0.43663  0.02246  0.96399  1.0000
  H   H11       1.0  0.93663  0.47754  0.46399  1.0000
  H   H12       1.0  0.43663  0.52246  0.53601  1.0000
  H   H13       1.0  0.18628  0.06654  0.10219  1.0000
  H   H14       1.0  0.68628  0.93346  0.89781  1.0000
  H   H15       1.0  0.18628  0.56654  0.39781  1.0000
  H   H16       1.0  0.68628  0.43346  0.60219  1.0000
  H   H17       1.0  0.21102  0.28748  0.12037  1.0000
  H   H18       1.0  0.71102  0.71252  0.87963  1.0000
  H   H19       1.0  0.21102  0.78748  0.37963  1.0000
  H   H20       1.0  0.71102  0.21252  0.62037  1.0000
  H   H21       1.0  0.82270  0.75556  0.03574  1.0000
  H   H22       1.0  0.32270  0.24444  0.96426  1.0000
  H   H23       1.0  0.82270  0.25556  0.46426  1.0000
  H   H24       1.0  0.32270  0.74444  0.53574  1.0000
  H   H25       1.0  0.58225  0.87243  0.08963  1.0000
  H   H26       1.0  0.08225  0.12757  0.91037  1.0000
  H   H27       1.0  0.58225  0.37243  0.41037  1.0000
  H   H28       1.0  0.08225  0.62757  0.58963  1.0000
  H   H29       1.0  0.78182  0.79501  0.31775  1.0000
  H   H30       1.0  0.28182  0.20499  0.68225  1.0000
  H   H31       1.0  0.78182  0.29501  0.18225  1.0000
  H   H32       1.0  0.28182  0.70499  0.81775  1.0000
  H   H33       1.0  0.01121  0.67876  0.25418  1.0000
  H   H34       1.0  0.51121  0.32124  0.74582  1.0000
  H   H35       1.0  0.01121  0.17876  0.24582  1.0000
  H   H36       1.0  0.51121  0.82124  0.75418  1.0000
  H   H37       1.0  0.09743  0.95954  0.24591  1.0000
  H   H38       1.0  0.59743  0.04045  0.75409  1.0000
  H   H39       1.0  0.09743  0.45955  0.25409  1.0000
  H   H40       1.0  0.59743  0.54045  0.74591  1.0000
  H   H41       1.0  0.31955  0.84568  0.17382  1.0000
  H   H42       1.0  0.81955  0.15432  0.82618  1.0000
  H   H43       1.0  0.31954  0.34569  0.32618  1.0000
  H   H44       1.0  0.81955  0.65432  0.67382  1.0000
  H   H45       1.0  0.69098  0.00109  0.32848  1.0000
  H   H46       1.0  0.19098  0.99891  0.67152  1.0000
  H   H47       1.0  0.69097  0.50109  0.17152  1.0000
  H   H48       1.0  0.19098  0.49891  0.82848  1.0000
  H   H49       1.0  0.45378  0.10967  0.39310  1.0000
  H   H50       1.0  0.95379  0.89033  0.60690  1.0000
  H   H51       1.0  0.45379  0.60967  0.10690  1.0000
  H   H52       1.0  0.95379  0.39033  0.89310  1.0000
  C   C1        1.0  0.79952  0.46175  0.02763  1.0000
  C   C2        1.0  0.29952  0.53825  0.97237  1.0000
  C   C3        1.0  0.79952  0.96175  0.47237  1.0000
  C   C4        1.0  0.29952  0.03825  0.52763  1.0000
  C   C5        1.0  0.97040  0.32235  0.06244  1.0000
  C   C6        1.0  0.47040  0.67765  0.93756  1.0000
  C   C7        1.0  0.97040  0.82235  0.43756  1.0000
  C   C8        1.0  0.47040  0.17765  0.56244  1.0000
  C   C9        1.0  0.82786  0.27089  0.02281  1.0000
  C   C10       1.0  0.32786  0.72911  0.97719  1.0000
  C   C11       1.0  0.82786  0.77089  0.47719  1.0000
  C   C12       1.0  0.32786  0.22911  0.52281  1.0000
  C   C13       1.0  0.81425  0.14628  0.01337  1.0000
  C   C14       1.0  0.31425  0.85372  0.98663  1.0000
  C   C15       1.0  0.81425  0.64628  0.48663  1.0000
  C   C16       1.0  0.31425  0.35372  0.51337  1.0000
  C   C17       1.0  0.94441  0.07464  0.04267  1.0000
  C   C18       1.0  0.44441  0.92536  0.95733  1.0000
  C   C19       1.0  0.94441  0.57464  0.45733  1.0000
  C   C20       1.0  0.44441  0.42536  0.54267  1.0000
  C   C21       1.0  0.08627  0.12529  0.08052  1.0000
  C   C22       1.0  0.58627  0.87471  0.91948  1.0000
  C   C23       1.0  0.08627  0.62529  0.41948  1.0000
  C   C24       1.0  0.58627  0.37471  0.58052  1.0000
  C   C25       1.0  0.10128  0.24902  0.09091  1.0000
  C   C26       1.0  0.60128  0.75098  0.90909  1.0000
  C   C27       1.0  0.10128  0.74902  0.40909  1.0000
  C   C28       1.0  0.60127  0.25098  0.59091  1.0000
  C   C29       1.0  0.80885  0.76553  0.09824  1.0000
  C   C30       1.0  0.30885  0.23447  0.90176  1.0000
  C   C31       1.0  0.80885  0.26553  0.40176  1.0000
  C   C32       1.0  0.30885  0.73447  0.59824  1.0000
  C   C33       1.0  0.67389  0.83099  0.12857  1.0000
  C   C34       1.0  0.17389  0.16901  0.87143  1.0000
  C   C35       1.0  0.67389  0.33099  0.37144  1.0000
  C   C36       1.0  0.17389  0.66900  0.62857  1.0000
  C   C37       1.0  0.66207  0.84432  0.20892  1.0000
  C   C38       1.0  0.16207  0.15568  0.79108  1.0000
  C   C39       1.0  0.66207  0.34432  0.29108  1.0000
  C   C40       1.0  0.16207  0.65568  0.70892  1.0000
  C   C41       1.0  0.78626  0.78919  0.25492  1.0000
  C   C42       1.0  0.28626  0.21081  0.74508  1.0000
  C   C43       1.0  0.78626  0.28919  0.24508  1.0000
  C   C44       1.0  0.28626  0.71081  0.75492  1.0000
  C   C45       1.0  0.91453  0.72362  0.21940  1.0000
  C   C46       1.0  0.41453  0.27638  0.78060  1.0000
  C   C47       1.0  0.91453  0.22362  0.28060  1.0000
  C   C48       1.0  0.41453  0.77638  0.71940  1.0000
  C   C49       1.0  0.23116  0.96816  0.26174  1.0000
  C   C50       1.0  0.73116  0.03184  0.73826  1.0000
  C   C51       1.0  0.23116  0.46816  0.23826  1.0000
  C   C52       1.0  0.73116  0.53184  0.76174  1.0000
  C   C53       1.0  0.35520  0.90472  0.22144  1.0000
  C   C54       1.0  0.85520  0.09528  0.77856  1.0000
  C   C55       1.0  0.35520  0.40472  0.27856  1.0000
  C   C56       1.0  0.85520  0.59528  0.72144  1.0000
  C   C57       1.0  0.52480  0.91410  0.24547  1.0000
  C   C58       1.0  0.02480  0.08590  0.75453  1.0000
  C   C59       1.0  0.52480  0.41410  0.25453  1.0000
  C   C60       1.0  0.02480  0.58590  0.74547  1.0000
  C   C61       1.0  0.56126  0.99020  0.30780  1.0000
  C   C62       1.0  0.06126  0.00980  0.69220  1.0000
  C   C63       1.0  0.56126  0.49020  0.19220  1.0000
  C   C64       1.0  0.06126  0.50980  0.80780  1.0000
  C   C65       1.0  0.42915  0.05097  0.34387  1.0000
  C   C66       1.0  0.92915  0.94903  0.65613  1.0000
  C   C67       1.0  0.42915  0.55098  0.15613  1.0000
  C   C68       1.0  0.92915  0.44903  0.84387  1.0000
  N   N1        1.0  0.94816  0.44535  0.06516  1.0000
  N   N2        1.0  0.44816  0.55465  0.93484  1.0000
  N   N3        1.0  0.94816  0.94535  0.43484  1.0000
  N   N4        1.0  0.44816  0.05465  0.56516  1.0000
  N   N5        1.0  0.72063  0.36268  0.00053  1.0000
  N   N6        1.0  0.22063  0.63732  0.99947  1.0000
  N   N7        1.0  0.72063  0.86268  0.49947  1.0000
  N   N8        1.0  0.22063  0.13732  0.50053  1.0000
  N   N9        1.0  0.92737  0.71172  0.14221  1.0000
  N   N10       1.0  0.42737  0.28828  0.85779  1.0000
  N   N11       1.0  0.92737  0.21172  0.35779  1.0000
  N   N12       1.0  0.42737  0.78828  0.64221  1.0000
  N   N13       1.0  0.26575  0.03992  0.32234  1.0000
  N   N14       1.0  0.76575  0.96007  0.67766  1.0000
  N   N15       1.0  0.26575  0.53993  0.17766  1.0000
  N   N16       1.0  0.76575  0.46007  0.82234  1.0000
