data_image0
_chemical_formula_structural       Li2H22C26N8
_chemical_formula_sum              "Li2 H22 C26 N8"
_cell_length_a       7.85857
_cell_length_b       9.0949
_cell_length_c       9.15561
_cell_angle_alpha    86.6072
_cell_angle_beta     64.6144
_cell_angle_gamma    82.128

_space_group_name_H-M_alt    "P 1"
_space_group_IT_number       1

loop_
  _space_group_symop_operation_xyz
  'x, y, z'

loop_
  _atom_site_type_symbol
  _atom_site_label
  _atom_site_symmetry_multiplicity
  _atom_site_fract_x
  _atom_site_fract_y
  _atom_site_fract_z
  _atom_site_occupancy
  Li  Li1       1.0  0.94181  0.69268  0.35318  1.0000
  Li  Li2       1.0  0.29490  0.19259  0.64705  1.0000
  H   H1        1.0  0.74346  0.03399  0.44508  1.0000
  H   H2        1.0  0.18832  0.53389  0.55540  1.0000
  H   H3        1.0  0.24161  0.85346  0.73824  1.0000
  H   H4        1.0  0.98020  0.35369  0.26149  1.0000
  H   H5        1.0  0.54349  0.62975  0.64164  1.0000
  H   H6        1.0  0.18618  0.13000  0.35769  1.0000
  H   H7        1.0  0.65122  0.53630  0.38035  1.0000
  H   H8        1.0  0.03133  0.03618  0.61961  1.0000
  H   H9        1.0  0.49130  0.43027  0.23616  1.0000
  H   H10       1.0  0.72720  0.93013  0.76369  1.0000
  H   H11       1.0  0.87937  0.62366  0.79647  1.0000
  H   H12       1.0  0.67554  0.12334  0.20343  1.0000
  H   H13       1.0  0.02714  0.71827  0.95941  1.0000
  H   H14       1.0  0.98620  0.21793  0.04068  1.0000
  H   H15       1.0  0.15358  0.39823  0.93659  1.0000
  H   H16       1.0  0.08954  0.89841  0.06391  1.0000
  H   H17       1.0  0.29336  0.51144  0.09372  1.0000
  H   H18       1.0  0.38662  0.01138  0.90632  1.0000
  H   H19       1.0  0.84651  0.38083  0.70546  1.0000
  H   H20       1.0  0.55242  0.88024  0.29425  1.0000
  H   H21       1.0  0.68403  0.26406  0.57183  1.0000
  H   H22       1.0  0.25615  0.76368  0.42837  1.0000
  C   C1        1.0  0.64614  0.95425  0.51222  1.0000
  C   C2        1.0  0.15842  0.45421  0.48802  1.0000
  C   C3        1.0  0.39085  0.85960  0.66145  1.0000
  C   C4        1.0  0.05259  0.35980  0.33841  1.0000
  C   C5        1.0  0.54195  0.74735  0.61272  1.0000
  C   C6        1.0  0.15538  0.24753  0.38681  1.0000
  C   C7        1.0  0.69912  0.55289  0.25042  1.0000
  C   C8        1.0  0.94924  0.05274  0.74953  1.0000
  C   C9        1.0  0.60850  0.49487  0.16969  1.0000
  C   C10       1.0  0.77789  0.99474  0.83018  1.0000
  C   C11       1.0  0.67289  0.51826  0.00272  1.0000
  C   C12       1.0  0.67538  0.01796  0.99713  1.0000
  C   C13       1.0  0.82588  0.60081  0.92570  1.0000
  C   C14       1.0  0.75131  0.10049  0.07422  1.0000
  C   C15       1.0  0.90696  0.65458  0.01735  1.0000
  C   C16       1.0  0.92393  0.15437  0.98266  1.0000
  C   C17       1.0  0.30715  0.39436  0.89060  1.0000
  C   C18       1.0  0.19737  0.89425  0.10971  1.0000
  C   C19       1.0  0.38533  0.45933  0.97742  1.0000
  C   C20       1.0  0.36236  0.95917  0.02265  1.0000
  C   C21       1.0  0.58307  0.45538  0.91269  1.0000
  C   C22       1.0  0.49564  0.95501  0.08720  1.0000
  C   C23       1.0  0.69226  0.38723  0.76199  1.0000
  C   C24       1.0  0.45447  0.88675  0.23790  1.0000
  C   C25       1.0  0.60076  0.32187  0.68662  1.0000
  C   C26       1.0  0.28757  0.82154  0.31354  1.0000
  N   N1        1.0  0.70594  0.80784  0.51622  1.0000
  N   N2        1.0  0.22271  0.30787  0.48357  1.0000
  N   N3        1.0  0.45724  0.99268  0.59775  1.0000
  N   N4        1.0  0.05493  0.49273  0.40250  1.0000
  N   N5        1.0  0.84697  0.63167  0.17724  1.0000
  N   N6        1.0  0.02391  0.13148  0.82279  1.0000
  N   N7        1.0  0.41111  0.32403  0.74878  1.0000
  N   N8        1.0  0.15979  0.82391  0.25158  1.0000
