data_image0
_chemical_formula_structural       Li4H40C44N16
_chemical_formula_sum              "Li4 H40 C44 N16"
_cell_length_a       7.73286
_cell_length_b       8.68809
_cell_length_c       16.1226
_cell_angle_alpha    90
_cell_angle_beta     98.3348
_cell_angle_gamma    90

_space_group_name_H-M_alt    "P 1"
_space_group_IT_number       1

loop_
  _space_group_symop_operation_xyz
  'x, y, z'

loop_
  _atom_site_type_symbol
  _atom_site_label
  _atom_site_symmetry_multiplicity
  _atom_site_fract_x
  _atom_site_fract_y
  _atom_site_fract_z
  _atom_site_occupancy
  Li  Li1       1.0  0.71629  0.15638  0.62551  1.0000
  Li  Li2       1.0  0.78371  0.65638  0.87449  1.0000
  Li  Li3       1.0  0.28370  0.84362  0.37449  1.0000
  Li  Li4       1.0  0.21629  0.34362  0.12551  1.0000
  H   H1        1.0  0.16534  0.29939  0.41844  1.0000
  H   H2        1.0  0.33467  0.79939  0.08157  1.0000
  H   H3        1.0  0.83466  0.70061  0.58156  1.0000
  H   H4        1.0  0.66533  0.20061  0.91844  1.0000
  H   H5        1.0  0.28327  0.47650  0.43000  1.0000
  H   H6        1.0  0.21674  0.97651  0.07000  1.0000
  H   H7        1.0  0.71673  0.52350  0.57000  1.0000
  H   H8        1.0  0.78326  0.02349  0.93000  1.0000
  H   H9        1.0  0.33706  0.33506  0.35812  1.0000
  H   H10       1.0  0.16295  0.83507  0.14189  1.0000
  H   H11       1.0  0.66294  0.66494  0.64189  1.0000
  H   H12       1.0  0.83705  0.16494  0.85811  1.0000
  H   H13       1.0  0.18031  0.04864  0.91989  1.0000
  H   H14       1.0  0.31968  0.54864  0.58011  1.0000
  H   H15       1.0  0.81969  0.95137  0.08012  1.0000
  H   H16       1.0  0.68032  0.45136  0.41988  1.0000
  H   H17       1.0  0.15241  0.24024  0.80455  1.0000
  H   H18       1.0  0.34759  0.74024  0.69545  1.0000
  H   H19       1.0  0.84760  0.75976  0.19545  1.0000
  H   H20       1.0  0.65241  0.25976  0.30455  1.0000
  H   H21       1.0  0.83805  0.84738  0.72683  1.0000
  H   H22       1.0  0.66195  0.34738  0.77317  1.0000
  H   H23       1.0  0.16195  0.15262  0.27317  1.0000
  H   H24       1.0  0.33805  0.65262  0.22683  1.0000
  H   H25       1.0  0.70242  0.06472  0.43906  1.0000
  H   H26       1.0  0.79758  0.56472  0.06095  1.0000
  H   H27       1.0  0.29758  0.93529  0.56095  1.0000
  H   H28       1.0  0.20242  0.43528  0.93906  1.0000
  H   H29       1.0  0.35740  0.23965  0.69952  1.0000
  H   H30       1.0  0.14259  0.73965  0.80048  1.0000
  H   H31       1.0  0.64260  0.76035  0.30048  1.0000
  H   H32       1.0  0.85740  0.26035  0.19952  1.0000
  H   H33       1.0  0.07916  0.03196  0.65073  1.0000
  H   H34       1.0  0.42084  0.53196  0.84927  1.0000
  H   H35       1.0  0.92084  0.96805  0.34927  1.0000
  H   H36       1.0  0.57916  0.46804  0.15073  1.0000
  H   H37       1.0  0.41255  0.84696  0.93256  1.0000
  H   H38       1.0  0.08745  0.34696  0.56744  1.0000
  H   H39       1.0  0.58745  0.15304  0.06744  1.0000
  H   H40       1.0  0.91255  0.65304  0.43256  1.0000
  C   C1        1.0  0.29457  0.35227  0.41958  1.0000
  C   C2        1.0  0.20543  0.85226  0.08042  1.0000
  C   C3        1.0  0.70543  0.64774  0.58042  1.0000
  C   C4        1.0  0.79457  0.14773  0.91958  1.0000
  C   C5        1.0  0.27054  0.04339  0.87394  1.0000
  C   C6        1.0  0.22946  0.54339  0.62606  1.0000
  C   C7        1.0  0.72946  0.95661  0.12606  1.0000
  C   C8        1.0  0.77054  0.45661  0.37394  1.0000
  C   C9        1.0  0.25503  0.15318  0.80870  1.0000
  C   C10       1.0  0.24497  0.65318  0.69130  1.0000
  C   C11       1.0  0.74497  0.84682  0.19130  1.0000
  C   C12       1.0  0.75503  0.34682  0.30870  1.0000
  C   C13       1.0  0.72057  0.89393  0.74750  1.0000
  C   C14       1.0  0.77943  0.39393  0.75250  1.0000
  C   C15       1.0  0.27943  0.10607  0.25250  1.0000
  C   C16       1.0  0.22057  0.60607  0.24749  1.0000
  C   C17       1.0  0.83585  0.03606  0.46641  1.0000
  C   C18       1.0  0.66415  0.53605  0.03359  1.0000
  C   C19       1.0  0.16415  0.96395  0.53359  1.0000
  C   C20       1.0  0.33585  0.46394  0.96641  1.0000
  C   C21       1.0  0.36901  0.15298  0.74903  1.0000
  C   C22       1.0  0.13099  0.65297  0.75097  1.0000
  C   C23       1.0  0.63099  0.84703  0.25097  1.0000
  C   C24       1.0  0.86902  0.34703  0.24903  1.0000
  C   C25       1.0  0.41885  0.28447  0.48447  1.0000
  C   C26       1.0  0.08115  0.78447  0.01554  1.0000
  C   C27       1.0  0.58114  0.71553  0.51554  1.0000
  C   C28       1.0  0.91885  0.21552  0.98446  1.0000
  C   C29       1.0  0.04304  0.01682  0.58321  1.0000
  C   C30       1.0  0.45697  0.51682  0.91679  1.0000
  C   C31       1.0  0.95697  0.98318  0.41679  1.0000
  C   C32       1.0  0.54303  0.48318  0.08321  1.0000
  C   C33       1.0  0.51403  0.92708  0.82136  1.0000
  C   C34       1.0  0.98597  0.42708  0.67864  1.0000
  C   C35       1.0  0.48597  0.07292  0.17864  1.0000
  C   C36       1.0  0.01403  0.57292  0.32136  1.0000
  C   C37       1.0  0.39929  0.92980  0.88122  1.0000
  C   C38       1.0  0.10071  0.42980  0.61878  1.0000
  C   C39       1.0  0.60071  0.07020  0.11878  1.0000
  C   C40       1.0  0.89929  0.57020  0.38122  1.0000
  C   C41       1.0  0.49925  0.03919  0.75557  1.0000
  C   C42       1.0  0.00074  0.53919  0.74443  1.0000
  C   C43       1.0  0.50075  0.96081  0.24443  1.0000
  C   C44       1.0  0.99925  0.46081  0.25557  1.0000
  N   N1        1.0  0.63341  0.01476  0.70874  1.0000
  N   N2        1.0  0.86659  0.51476  0.79126  1.0000
  N   N3        1.0  0.36659  0.98524  0.29126  1.0000
  N   N4        1.0  0.13341  0.48524  0.20874  1.0000
  N   N5        1.0  0.52043  0.23231  0.53724  1.0000
  N   N6        1.0  0.97958  0.73231  0.96277  1.0000
  N   N7        1.0  0.47957  0.76770  0.46276  1.0000
  N   N8        1.0  0.02042  0.26769  0.03724  1.0000
  N   N9        1.0  0.87867  0.05291  0.54967  1.0000
  N   N10       1.0  0.62133  0.55291  0.95033  1.0000
  N   N11       1.0  0.12133  0.94709  0.45033  1.0000
  N   N12       1.0  0.37867  0.44709  0.04967  1.0000
  N   N13       1.0  0.65726  0.83487  0.81471  1.0000
  N   N14       1.0  0.84274  0.33488  0.68529  1.0000
  N   N15       1.0  0.34274  0.16512  0.18529  1.0000
  N   N16       1.0  0.15726  0.66512  0.31470  1.0000
