data_image0
_chemical_formula_structural       Zn4H36C64N4O32
_chemical_formula_sum              "Zn4 H36 C64 N4 O32"
_cell_length_a       4.66561
_cell_length_b       16.1559
_cell_length_c       20.7532
_cell_angle_alpha    84.276
_cell_angle_beta     83.5242
_cell_angle_gamma    81.696

_space_group_name_H-M_alt    "P 1"
_space_group_IT_number       1

loop_
  _space_group_symop_operation_xyz
  'x, y, z'

loop_
  _atom_site_type_symbol
  _atom_site_label
  _atom_site_symmetry_multiplicity
  _atom_site_fract_x
  _atom_site_fract_y
  _atom_site_fract_z
  _atom_site_occupancy
  Zn  Zn1       1.0  0.60704  0.11661  0.53730  1.0000
  Zn  Zn2       1.0  0.26103  0.38338  0.96271  1.0000
  Zn  Zn3       1.0  0.39297  0.88339  0.46270  1.0000
  Zn  Zn4       1.0  0.73897  0.61662  0.03729  1.0000
  H   H1        1.0  0.80351  0.75767  0.85424  1.0000
  H   H2        1.0  0.41555  0.74237  0.64576  1.0000
  H   H3        1.0  0.19649  0.24233  0.14576  1.0000
  H   H4        1.0  0.58445  0.25763  0.35425  1.0000
  H   H5        1.0  0.93465  0.21421  0.80054  1.0000
  H   H6        1.0  0.94930  0.28582  0.69946  1.0000
  H   H7        1.0  0.06535  0.78579  0.19946  1.0000
  H   H8        1.0  0.05070  0.71418  0.30054  1.0000
  H   H9        1.0  0.61804  0.82467  0.70485  1.0000
  H   H10       1.0  0.14780  0.67539  0.79513  1.0000
  H   H11       1.0  0.38196  0.17533  0.29515  1.0000
  H   H12       1.0  0.85220  0.32461  0.20487  1.0000
  H   H13       1.0  0.32318  0.02786  0.82419  1.0000
  H   H14       1.0  0.17517  0.47220  0.67581  1.0000
  H   H15       1.0  0.67682  0.97214  0.17581  1.0000
  H   H16       1.0  0.82483  0.52780  0.32419  1.0000
  H   H17       1.0  0.01059  0.21214  0.45742  1.0000
  H   H18       1.0  0.67993  0.28782  0.04258  1.0000
  H   H19       1.0  0.98941  0.78786  0.54258  1.0000
  H   H20       1.0  0.32007  0.71218  0.95742  1.0000
  H   H21       1.0  0.15122  0.35405  0.44563  1.0000
  H   H22       1.0  0.95076  0.14593  0.05435  1.0000
  H   H23       1.0  0.84878  0.64595  0.55438  1.0000
  H   H24       1.0  0.04924  0.85407  0.94565  1.0000
  H   H25       1.0  0.48770  0.41754  0.60284  1.0000
  H   H26       1.0  0.50823  0.08243  0.89716  1.0000
  H   H27       1.0  0.51230  0.58246  0.39716  1.0000
  H   H28       1.0  0.49177  0.91757  0.10284  1.0000
  H   H29       1.0  0.36949  0.27009  0.60802  1.0000
  H   H30       1.0  0.24765  0.22989  0.89200  1.0000
  H   H31       1.0  0.63050  0.72991  0.39198  1.0000
  H   H32       1.0  0.75235  0.77011  0.10800  1.0000
  H   H33       1.0  0.76136  0.52390  0.55568  1.0000
  H   H34       1.0  0.84100  0.97608  0.94434  1.0000
  H   H35       1.0  0.23864  0.47610  0.44432  1.0000
  H   H36       1.0  0.15899  0.02392  0.05566  1.0000
  C   C1        1.0  0.49879  0.88679  0.71104  1.0000
  C   C2        1.0  0.09702  0.61324  0.78895  1.0000
  C   C3        1.0  0.50121  0.11321  0.28896  1.0000
  C   C4        1.0  0.90298  0.38676  0.21105  1.0000
  C   C5        1.0  0.36568  0.93135  0.65875  1.0000
  C   C6        1.0  0.95623  0.56867  0.84126  1.0000
  C   C7        1.0  0.63431  0.06865  0.34125  1.0000
  C   C8        1.0  0.04377  0.43133  0.15874  1.0000
  C   C9        1.0  0.21902  0.01313  0.66532  1.0000
  C   C10       1.0  0.89778  0.48690  0.83471  1.0000
  C   C11       1.0  0.78098  0.98687  0.33468  1.0000
  C   C12       1.0  0.10222  0.51310  0.16529  1.0000
  C   C13       1.0  0.20276  0.04778  0.72584  1.0000
  C   C14       1.0  0.97652  0.45224  0.77418  1.0000
  C   C15       1.0  0.79724  0.95222  0.27416  1.0000
  C   C16       1.0  0.02348  0.54776  0.22582  1.0000
  C   C17       1.0  0.33660  0.00127  0.77767  1.0000
  C   C18       1.0  0.11564  0.49877  0.72234  1.0000
  C   C19       1.0  0.66340  0.99873  0.22233  1.0000
  C   C20       1.0  0.88436  0.50123  0.27767  1.0000
  C   C21       1.0  0.48696  0.92117  0.77048  1.0000
  C   C22       1.0  0.17896  0.57884  0.72952  1.0000
  C   C23       1.0  0.51305  0.07883  0.22952  1.0000
  C   C24       1.0  0.82104  0.42116  0.27048  1.0000
  C   C25       1.0  0.63541  0.87358  0.82572  1.0000
  C   C26       1.0  0.33507  0.62642  0.67427  1.0000
  C   C27       1.0  0.36459  0.12642  0.17428  1.0000
  C   C28       1.0  0.66493  0.37358  0.32573  1.0000
  C   C29       1.0  0.39983  0.88964  0.59618  1.0000
  C   C30       1.0  0.88585  0.61041  0.90382  1.0000
  C   C31       1.0  0.60017  0.11036  0.40382  1.0000
  C   C32       1.0  0.11415  0.38959  0.09618  1.0000
  C   C33       1.0  0.06891  0.06107  0.60954  1.0000
  C   C34       1.0  0.73970  0.43900  0.89052  1.0000
  C   C35       1.0  0.93109  0.93893  0.39046  1.0000
  C   C36       1.0  0.26030  0.56100  0.10948  1.0000
  C   C37       1.0  0.05662  0.13442  0.73574  1.0000
  C   C38       1.0  0.92711  0.36558  0.76427  1.0000
  C   C39       1.0  0.94338  0.86558  0.26426  1.0000
  C   C40       1.0  0.07289  0.63442  0.23573  1.0000
  C   C41       1.0  0.89646  0.25957  0.48828  1.0000
  C   C42       1.0  0.64414  0.24040  0.01172  1.0000
  C   C43       1.0  0.10354  0.74043  0.51172  1.0000
  C   C44       1.0  0.35586  0.75960  0.98828  1.0000
  C   C45       1.0  0.97509  0.33933  0.48221  1.0000
  C   C46       1.0  0.79651  0.16064  0.01778  1.0000
  C   C47       1.0  0.02491  0.66067  0.51779  1.0000
  C   C48       1.0  0.20348  0.83936  0.98222  1.0000
  C   C49       1.0  0.82775  0.39912  0.52355  1.0000
  C   C50       1.0  0.75038  0.10086  0.97644  1.0000
  C   C51       1.0  0.17225  0.60088  0.47645  1.0000
  C   C52       1.0  0.24962  0.89914  0.02356  1.0000
  C   C53       1.0  0.60616  0.37341  0.56972  1.0000
  C   C54       1.0  0.54934  0.12656  0.93028  1.0000
  C   C55       1.0  0.39384  0.62659  0.43028  1.0000
  C   C56       1.0  0.45066  0.87343  0.06972  1.0000
  C   C57       1.0  0.53973  0.29206  0.57286  1.0000
  C   C58       1.0  0.40466  0.20791  0.92714  1.0000
  C   C59       1.0  0.46027  0.70794  0.42714  1.0000
  C   C60       1.0  0.59534  0.79209  0.07286  1.0000
  C   C61       1.0  0.89473  0.48444  0.52085  1.0000
  C   C62       1.0  0.90002  0.01555  0.97916  1.0000
  C   C63       1.0  0.10527  0.51556  0.47915  1.0000
  C   C64       1.0  0.09998  0.98445  0.02084  1.0000
  N   N1        1.0  0.68235  0.23595  0.53267  1.0000
  N   N2        1.0  0.45088  0.26401  0.96734  1.0000
  N   N3        1.0  0.31766  0.76405  0.46733  1.0000
  N   N4        1.0  0.54912  0.73599  0.03266  1.0000
  O   O1        1.0  0.70666  0.79246  0.81666  1.0000
  O   O2        1.0  0.31611  0.70753  0.68334  1.0000
  O   O3        1.0  0.29334  0.20754  0.18334  1.0000
  O   O4        1.0  0.68390  0.29247  0.31666  1.0000
  O   O5        1.0  0.68373  0.90698  0.87351  1.0000
  O   O6        1.0  0.46455  0.59302  0.62646  1.0000
  O   O7        1.0  0.31627  0.09302  0.12649  1.0000
  O   O8        1.0  0.53545  0.40698  0.37354  1.0000
  O   O9        1.0  0.51667  0.81416  0.59483  1.0000
  O   O10       1.0  0.92561  0.68592  0.90516  1.0000
  O   O11       1.0  0.48333  0.18584  0.40517  1.0000
  O   O12       1.0  0.07439  0.31408  0.09484  1.0000
  O   O13       1.0  0.31087  0.93506  0.54597  1.0000
  O   O14       1.0  0.79194  0.56500  0.95402  1.0000
  O   O15       1.0  0.68913  0.06494  0.45403  1.0000
  O   O16       1.0  0.20806  0.43500  0.04598  1.0000
  O   O17       1.0  0.19449  0.10945  0.56726  1.0000
  O   O18       1.0  0.87116  0.39067  0.93284  1.0000
  O   O19       1.0  0.80551  0.89055  0.43274  1.0000
  O   O20       1.0  0.12884  0.60933  0.06716  1.0000
  O   O21       1.0  0.80433  0.05038  0.60958  1.0000
  O   O22       1.0  0.46449  0.44967  0.89044  1.0000
  O   O23       1.0  0.19567  0.94962  0.39042  1.0000
  O   O24       1.0  0.53551  0.55033  0.10956  1.0000
  O   O25       1.0  0.98116  0.18648  0.69027  1.0000
  O   O26       1.0  0.85877  0.31348  0.80976  1.0000
  O   O27       1.0  0.01884  0.81352  0.30972  1.0000
  O   O28       1.0  0.14123  0.68652  0.19024  1.0000
  O   O29       1.0  0.01883  0.15251  0.79757  1.0000
  O   O30       1.0  0.96892  0.34751  0.70243  1.0000
  O   O31       1.0  0.98117  0.84749  0.20243  1.0000
  O   O32       1.0  0.03108  0.65249  0.29757  1.0000
