data_image0
_chemical_formula_structural       Zn4H32C60N4O32
_chemical_formula_sum              "Zn4 H32 C60 N4 O32"
_cell_length_a       4.65149
_cell_length_b       14.4375
_cell_length_c       21.208
_cell_angle_alpha    95.0302
_cell_angle_beta     90
_cell_angle_gamma    90

_space_group_name_H-M_alt    "P 1"
_space_group_IT_number       1

loop_
  _space_group_symop_operation_xyz
  'x, y, z'

loop_
  _atom_site_type_symbol
  _atom_site_label
  _atom_site_symmetry_multiplicity
  _atom_site_fract_x
  _atom_site_fract_y
  _atom_site_fract_z
  _atom_site_occupancy
  Zn  Zn1       1.0  0.16460  0.62922  0.96762  1.0000
  Zn  Zn2       1.0  0.66460  0.87078  0.53238  1.0000
  Zn  Zn3       1.0  0.83540  0.37078  0.03238  1.0000
  Zn  Zn4       1.0  0.33540  0.12922  0.46762  1.0000
  H   H1        1.0  0.43704  0.27160  0.65027  1.0000
  H   H2        1.0  0.93704  0.22840  0.84973  1.0000
  H   H3        1.0  0.56296  0.72840  0.34973  1.0000
  H   H4        1.0  0.06296  0.77160  0.15027  1.0000
  H   H5        1.0  0.37866  0.74215  0.80299  1.0000
  H   H6        1.0  0.87866  0.75785  0.69701  1.0000
  H   H7        1.0  0.62134  0.25785  0.19701  1.0000
  H   H8        1.0  0.12134  0.24215  0.30299  1.0000
  H   H9        1.0  0.19453  0.32880  0.79630  1.0000
  H   H10       1.0  0.69453  0.17120  0.70370  1.0000
  H   H11       1.0  0.80547  0.67120  0.20370  1.0000
  H   H12       1.0  0.30547  0.82880  0.29630  1.0000
  H   H13       1.0  0.98845  0.55782  0.68844  1.0000
  H   H14       1.0  0.48845  0.94218  0.81156  1.0000
  H   H15       1.0  0.01155  0.44218  0.31156  1.0000
  H   H16       1.0  0.51155  0.05782  0.18844  1.0000
  H   H17       1.0  0.57693  0.73750  0.04656  1.0000
  H   H18       1.0  0.07692  0.76250  0.45344  1.0000
  H   H19       1.0  0.42308  0.26250  0.95344  1.0000
  H   H20       1.0  0.92308  0.23750  0.54656  1.0000
  H   H21       1.0  0.73883  0.89858  0.06606  1.0000
  H   H22       1.0  0.23883  0.60142  0.43394  1.0000
  H   H23       1.0  0.26117  0.10142  0.93394  1.0000
  H   H24       1.0  0.76117  0.39858  0.56606  1.0000
  H   H25       1.0  0.14387  0.96901  0.91922  1.0000
  H   H26       1.0  0.64388  0.53099  0.58079  1.0000
  H   H27       1.0  0.85612  0.03099  0.08079  1.0000
  H   H28       1.0  0.35612  0.46901  0.41922  1.0000
  H   H29       1.0  0.00587  0.80399  0.90656  1.0000
  H   H30       1.0  0.50587  0.69601  0.59344  1.0000
  H   H31       1.0  0.99413  0.19601  0.09344  1.0000
  H   H32       1.0  0.49413  0.30399  0.40656  1.0000
  C   C1        1.0  0.08619  0.39472  0.79231  1.0000
  C   C2        1.0  0.58619  0.10528  0.70769  1.0000
  C   C3        1.0  0.91381  0.60528  0.20769  1.0000
  C   C4        1.0  0.41381  0.89472  0.29231  1.0000
  C   C5        1.0  0.93018  0.43501  0.84380  1.0000
  C   C6        1.0  0.43018  0.06499  0.65620  1.0000
  C   C7        1.0  0.06982  0.56499  0.15620  1.0000
  C   C8        1.0  0.56982  0.93501  0.34380  1.0000
  C   C9        1.0  0.79335  0.52138  0.83993  1.0000
  C   C10       1.0  0.29334  0.97862  0.66007  1.0000
  C   C11       1.0  0.20665  0.47862  0.16007  1.0000
  C   C12       1.0  0.70665  0.02138  0.33993  1.0000
  C   C13       1.0  0.80974  0.56414  0.78244  1.0000
  C   C14       1.0  0.30974  0.93586  0.71756  1.0000
  C   C15       1.0  0.19026  0.43587  0.21756  1.0000
  C   C16       1.0  0.69026  0.06413  0.28244  1.0000
  C   C17       1.0  0.97449  0.52338  0.73202  1.0000
  C   C18       1.0  0.47449  0.97662  0.76798  1.0000
  C   C19       1.0  0.02551  0.47662  0.26798  1.0000
  C   C20       1.0  0.52550  0.02338  0.23202  1.0000
  C   C21       1.0  0.11462  0.43906  0.73674  1.0000
  C   C22       1.0  0.61462  0.06094  0.76325  1.0000
  C   C23       1.0  0.88538  0.56094  0.26326  1.0000
  C   C24       1.0  0.38538  0.93906  0.23674  1.0000
  C   C25       1.0  0.28879  0.39600  0.68264  1.0000
  C   C26       1.0  0.78879  0.10399  0.81736  1.0000
  C   C27       1.0  0.71120  0.60400  0.31736  1.0000
  C   C28       1.0  0.21121  0.89601  0.18264  1.0000
  C   C29       1.0  0.93056  0.38584  0.90333  1.0000
  C   C30       1.0  0.43056  0.11416  0.59667  1.0000
  C   C31       1.0  0.06944  0.61416  0.09667  1.0000
  C   C32       1.0  0.56944  0.88584  0.40333  1.0000
  C   C33       1.0  0.63909  0.56858  0.89665  1.0000
  C   C34       1.0  0.13909  0.93142  0.60335  1.0000
  C   C35       1.0  0.36091  0.43142  0.10335  1.0000
  C   C36       1.0  0.86091  0.06858  0.39665  1.0000
  C   C37       1.0  0.65247  0.65037  0.76982  1.0000
  C   C38       1.0  0.15246  0.84963  0.73018  1.0000
  C   C39       1.0  0.34753  0.34963  0.23018  1.0000
  C   C40       1.0  0.84754  0.15037  0.26982  1.0000
  C   C41       1.0  0.48307  0.79107  0.01985  1.0000
  C   C42       1.0  0.98307  0.70893  0.48015  1.0000
  C   C43       1.0  0.51693  0.20893  0.98015  1.0000
  C   C44       1.0  0.01693  0.29107  0.51985  1.0000
  C   C45       1.0  0.57421  0.88245  0.03023  1.0000
  C   C46       1.0  0.07421  0.61755  0.46977  1.0000
  C   C47       1.0  0.42579  0.11755  0.96977  1.0000
  C   C48       1.0  0.92579  0.38245  0.53023  1.0000
  C   C49       1.0  0.45505  0.95075  0.99478  1.0000
  C   C50       1.0  0.95505  0.54925  0.50522  1.0000
  C   C51       1.0  0.54495  0.04925  0.00522  1.0000
  C   C52       1.0  0.04495  0.45075  0.49478  1.0000
  C   C53       1.0  0.24762  0.92128  0.94911  1.0000
  C   C54       1.0  0.74762  0.57872  0.55089  1.0000
  C   C55       1.0  0.75238  0.07872  0.05089  1.0000
  C   C56       1.0  0.25238  0.42128  0.44911  1.0000
  C   C57       1.0  0.16687  0.82830  0.94151  1.0000
  C   C58       1.0  0.66687  0.67170  0.55849  1.0000
  C   C59       1.0  0.83313  0.17170  0.05849  1.0000
  C   C60       1.0  0.33313  0.32830  0.44151  1.0000
  N   N1        1.0  0.28164  0.76399  0.97636  1.0000
  N   N2        1.0  0.78164  0.73601  0.52364  1.0000
  N   N3        1.0  0.71837  0.23601  0.02364  1.0000
  N   N4        1.0  0.21836  0.26399  0.47636  1.0000
  O   O1        1.0  0.37015  0.43902  0.63817  1.0000
  O   O2        1.0  0.87015  0.06099  0.86183  1.0000
  O   O3        1.0  0.62984  0.56098  0.36183  1.0000
  O   O4        1.0  0.12985  0.93901  0.13817  1.0000
  O   O5        1.0  0.34090  0.30664  0.68877  1.0000
  O   O6        1.0  0.84090  0.19336  0.81123  1.0000
  O   O7        1.0  0.65910  0.69337  0.31123  1.0000
  O   O8        1.0  0.15910  0.80663  0.18877  1.0000
  O   O9        1.0  0.02779  0.30404  0.90292  1.0000
  O   O10       1.0  0.52779  0.19596  0.59708  1.0000
  O   O11       1.0  0.97221  0.69596  0.09708  1.0000
  O   O12       1.0  0.47221  0.80404  0.40292  1.0000
  O   O13       1.0  0.83253  0.43220  0.95324  1.0000
  O   O14       1.0  0.33254  0.06780  0.54676  1.0000
  O   O15       1.0  0.16747  0.56780  0.04676  1.0000
  O   O16       1.0  0.66746  0.93220  0.45324  1.0000
  O   O17       1.0  0.37612  0.54864  0.90289  1.0000
  O   O18       1.0  0.87612  0.95136  0.59711  1.0000
  O   O19       1.0  0.62388  0.45136  0.09711  1.0000
  O   O20       1.0  0.12387  0.04864  0.40289  1.0000
  O   O21       1.0  0.76923  0.62939  0.93315  1.0000
  O   O22       1.0  0.26923  0.87061  0.56685  1.0000
  O   O23       1.0  0.23077  0.37061  0.06685  1.0000
  O   O24       1.0  0.73077  0.12939  0.43315  1.0000
  O   O25       1.0  0.49804  0.68900  0.81747  1.0000
  O   O26       1.0  0.99804  0.81100  0.68253  1.0000
  O   O27       1.0  0.50196  0.31100  0.18253  1.0000
  O   O28       1.0  0.00196  0.18900  0.31747  1.0000
  O   O29       1.0  0.65988  0.68240  0.71719  1.0000
  O   O30       1.0  0.15988  0.81760  0.78281  1.0000
  O   O31       1.0  0.34012  0.31760  0.28281  1.0000
  O   O32       1.0  0.84012  0.18240  0.21719  1.0000
