data_image0
_chemical_formula_structural       Zn4H32C44N4O18
_chemical_formula_sum              "Zn4 H32 C44 N4 O18"
_cell_length_a       9.70343
_cell_length_b       11.0133
_cell_length_c       11.873
_cell_angle_alpha    106.59
_cell_angle_beta     93.147
_cell_angle_gamma    109.434

_space_group_name_H-M_alt    "P 1"
_space_group_IT_number       1

loop_
  _space_group_symop_operation_xyz
  'x, y, z'

loop_
  _atom_site_type_symbol
  _atom_site_label
  _atom_site_symmetry_multiplicity
  _atom_site_fract_x
  _atom_site_fract_y
  _atom_site_fract_z
  _atom_site_occupancy
  Zn  Zn1       1.0  0.97335  0.72907  0.19460  1.0000
  Zn  Zn2       1.0  0.02665  0.27093  0.80540  1.0000
  Zn  Zn3       1.0  0.79788  0.09984  0.06030  1.0000
  Zn  Zn4       1.0  0.20212  0.90016  0.93970  1.0000
  H   H1        1.0  0.75159  0.22205  0.90568  1.0000
  H   H2        1.0  0.24840  0.77795  0.09432  1.0000
  H   H3        1.0  0.60259  0.16503  0.96364  1.0000
  H   H4        1.0  0.39741  0.83497  0.03636  1.0000
  H   H5        1.0  0.41488  0.70606  0.19769  1.0000
  H   H6        1.0  0.58512  0.29394  0.80231  1.0000
  H   H7        1.0  0.59033  0.38737  0.11154  1.0000
  H   H8        1.0  0.40967  0.61263  0.88846  1.0000
  H   H9        1.0  0.05689  0.00226  0.17590  1.0000
  H   H10       1.0  0.94311  0.99774  0.82410  1.0000
  H   H11       1.0  0.23432  0.23309  0.28763  1.0000
  H   H12       1.0  0.76568  0.76691  0.71237  1.0000
  H   H13       1.0  0.27694  0.09253  0.58812  1.0000
  H   H14       1.0  0.72306  0.90747  0.41188  1.0000
  H   H15       1.0  0.10288  0.86322  0.46106  1.0000
  H   H16       1.0  0.89711  0.13678  0.53894  1.0000
  H   H17       1.0  0.37125  0.36036  0.59922  1.0000
  H   H18       1.0  0.62875  0.63964  0.40078  1.0000
  H   H19       1.0  0.40741  0.38597  0.46108  1.0000
  H   H20       1.0  0.59259  0.61403  0.53891  1.0000
  H   H21       1.0  0.63115  0.40126  0.58948  1.0000
  H   H22       1.0  0.36885  0.59874  0.41052  1.0000
  H   H23       1.0  0.54108  0.23240  0.58696  1.0000
  H   H24       1.0  0.45892  0.76760  0.41304  1.0000
  H   H25       1.0  0.80345  0.35885  0.21586  1.0000
  H   H26       1.0  0.19655  0.64115  0.78414  1.0000
  H   H27       1.0  0.71139  0.44926  0.40090  1.0000
  H   H28       1.0  0.28861  0.55074  0.59910  1.0000
  H   H29       1.0  0.51781  0.03743  0.40767  1.0000
  H   H30       1.0  0.48219  0.96257  0.59233  1.0000
  H   H31       1.0  0.61643  0.96194  0.22096  1.0000
  H   H32       1.0  0.38356  0.03806  0.77904  1.0000
  C   C1        1.0  0.39687  0.59811  0.16722  1.0000
  C   C2        1.0  0.60313  0.40189  0.83278  1.0000
  C   C3        1.0  0.25219  0.50246  0.13532  1.0000
  C   C4        1.0  0.74781  0.49754  0.86467  1.0000
  C   C5        1.0  0.22939  0.36249  0.09406  1.0000
  C   C6        1.0  0.77061  0.63751  0.90594  1.0000
  C   C7        1.0  0.35257  0.32149  0.08403  1.0000
  C   C8        1.0  0.64743  0.67852  0.91597  1.0000
  C   C9        1.0  0.49586  0.41964  0.11960  1.0000
  C   C10       1.0  0.50414  0.58036  0.88040  1.0000
  C   C11       1.0  0.51924  0.55799  0.16208  1.0000
  C   C12       1.0  0.48076  0.44201  0.83792  1.0000
  C   C13       1.0  0.67346  0.66310  0.19699  1.0000
  C   C14       1.0  0.32654  0.33690  0.80301  1.0000
  C   C15       1.0  0.12246  0.54886  0.14727  1.0000
  C   C16       1.0  0.87754  0.45114  0.85273  1.0000
  C   C17       1.0  0.07435  0.25866  0.05907  1.0000
  C   C18       1.0  0.92565  0.74134  0.94092  1.0000
  C   C19       1.0  0.33623  0.17500  0.03226  1.0000
  C   C20       1.0  0.66378  0.82500  0.96774  1.0000
  C   C21       1.0  0.10897  0.02548  0.26685  1.0000
  C   C22       1.0  0.89104  0.97452  0.73315  1.0000
  C   C23       1.0  0.20958  0.15476  0.33046  1.0000
  C   C24       1.0  0.79042  0.84524  0.66955  1.0000
  C   C25       1.0  0.27788  0.18112  0.44594  1.0000
  C   C26       1.0  0.72212  0.81887  0.55406  1.0000
  C   C27       1.0  0.23454  0.07545  0.49567  1.0000
  C   C28       1.0  0.76546  0.92455  0.50433  1.0000
  C   C29       1.0  0.13540  0.94831  0.42605  1.0000
  C   C30       1.0  0.86459  0.05169  0.57395  1.0000
  C   C31       1.0  0.39856  0.31539  0.51214  1.0000
  C   C32       1.0  0.60144  0.68461  0.48786  1.0000
  C   C33       1.0  0.55056  0.30146  0.53436  1.0000
  C   C34       1.0  0.44944  0.69854  0.46564  1.0000
  C   C35       1.0  0.73795  0.29066  0.26041  1.0000
  C   C36       1.0  0.26205  0.70934  0.73959  1.0000
  C   C37       1.0  0.68680  0.34019  0.36435  1.0000
  C   C38       1.0  0.31320  0.65981  0.63565  1.0000
  C   C39       1.0  0.60659  0.25069  0.42137  1.0000
  C   C40       1.0  0.39341  0.74931  0.57863  1.0000
  C   C41       1.0  0.58005  0.11222  0.36791  1.0000
  C   C42       1.0  0.41996  0.88778  0.63209  1.0000
  C   C43       1.0  0.63339  0.06879  0.26337  1.0000
  C   C44       1.0  0.36660  0.93121  0.73663  1.0000
  N   N1        1.0  0.07552  0.92224  0.31241  1.0000
  N   N2        1.0  0.92448  0.07776  0.68759  1.0000
  N   N3        1.0  0.71146  0.15677  0.21064  1.0000
  N   N4        1.0  0.28854  0.84323  0.78936  1.0000
  O   O1        1.0  0.69611  0.15271  0.94086  1.0000
  O   O2        1.0  0.30389  0.84729  0.05913  1.0000
  O   O3        1.0  0.77757  0.61363  0.20327  1.0000
  O   O4        1.0  0.22243  0.38637  0.79673  1.0000
  O   O5        1.0  0.69421  0.78598  0.21703  1.0000
  O   O6        1.0  0.30579  0.21402  0.78296  1.0000
  O   O7        1.0  0.15595  0.68100  0.18628  1.0000
  O   O8        1.0  0.84405  0.31900  0.81372  1.0000
  O   O9        1.0  0.99340  0.46514  0.12324  1.0000
  O   O10       1.0  0.00660  0.53486  0.87676  1.0000
  O   O11       1.0  0.01159  0.21546  0.13849  1.0000
  O   O12       1.0  0.98841  0.78454  0.86151  1.0000
  O   O13       1.0  0.00972  0.21551  0.95150  1.0000
  O   O14       1.0  0.99028  0.78449  0.04850  1.0000
  O   O15       1.0  0.20443  0.08531  0.01302  1.0000
  O   O16       1.0  0.79557  0.91469  0.98698  1.0000
  O   O17       1.0  0.44744  0.14391  0.00997  1.0000
  O   O18       1.0  0.55256  0.85609  0.99003  1.0000
