data_image0
_chemical_formula_structural       Cd4H36C28N28O4
_chemical_formula_sum              "Cd4 H36 C28 N28 O4"
_cell_length_a       3.70714
_cell_length_b       16.6346
_cell_length_c       16.5906
_cell_angle_alpha    90
_cell_angle_beta     89.9999
_cell_angle_gamma    89.9999

_space_group_name_H-M_alt    "P 1"
_space_group_IT_number       1

loop_
  _space_group_symop_operation_xyz
  'x, y, z'

loop_
  _atom_site_type_symbol
  _atom_site_label
  _atom_site_symmetry_multiplicity
  _atom_site_fract_x
  _atom_site_fract_y
  _atom_site_fract_z
  _atom_site_occupancy
  Cd  Cd1       1.0  0.51576  0.91985  0.05742  1.0000
  Cd  Cd2       1.0  0.01576  0.08015  0.94258  1.0000
  Cd  Cd3       1.0  0.51576  0.58015  0.55741  1.0000
  Cd  Cd4       1.0  0.01576  0.41985  0.44258  1.0000
  H   H1        1.0  0.11932  0.56329  0.95975  1.0000
  H   H2        1.0  0.61933  0.43671  0.04025  1.0000
  H   H3        1.0  0.11933  0.93671  0.45975  1.0000
  H   H4        1.0  0.61933  0.06329  0.54024  1.0000
  H   H5        1.0  0.02857  0.51982  0.10460  1.0000
  H   H6        1.0  0.52857  0.48018  0.89540  1.0000
  H   H7        1.0  0.02857  0.98018  0.60460  1.0000
  H   H8        1.0  0.52857  0.01982  0.39540  1.0000
  H   H9        1.0  0.24096  0.61107  0.21408  1.0000
  H   H10       1.0  0.74095  0.38893  0.78592  1.0000
  H   H11       1.0  0.24095  0.88893  0.71408  1.0000
  H   H12       1.0  0.74095  0.11107  0.28591  1.0000
  H   H13       1.0  0.42128  0.81294  0.19503  1.0000
  H   H14       1.0  0.92128  0.18706  0.80497  1.0000
  H   H15       1.0  0.42130  0.68706  0.69503  1.0000
  H   H16       1.0  0.92129  0.31294  0.30497  1.0000
  H   H17       1.0  0.85654  0.77244  0.18558  1.0000
  H   H18       1.0  0.35654  0.22756  0.81442  1.0000
  H   H19       1.0  0.85655  0.72756  0.68558  1.0000
  H   H20       1.0  0.35655  0.27244  0.31442  1.0000
  H   H21       1.0  0.54748  0.72873  0.25564  1.0000
  H   H22       1.0  0.04748  0.27127  0.74436  1.0000
  H   H23       1.0  0.54750  0.77127  0.75564  1.0000
  H   H24       1.0  0.04749  0.22873  0.24436  1.0000
  H   H25       1.0  0.75016  0.70852  0.89996  1.0000
  H   H26       1.0  0.25017  0.29148  0.10004  1.0000
  H   H27       1.0  0.75017  0.79148  0.39996  1.0000
  H   H28       1.0  0.25017  0.20852  0.60004  1.0000
  H   H29       1.0  0.33606  0.75915  0.89731  1.0000
  H   H30       1.0  0.83606  0.24085  0.10269  1.0000
  H   H31       1.0  0.33606  0.74085  0.39732  1.0000
  H   H32       1.0  0.83606  0.25915  0.60269  1.0000
  H   H33       1.0  0.35832  0.65636  0.86520  1.0000
  H   H34       1.0  0.85832  0.34365  0.13480  1.0000
  H   H35       1.0  0.35833  0.84364  0.36520  1.0000
  H   H36       1.0  0.85832  0.15636  0.63480  1.0000
  C   C1        1.0  0.38237  0.67240  0.99194  1.0000
  C   C2        1.0  0.88238  0.32760  0.00806  1.0000
  C   C3        1.0  0.38236  0.82760  0.49195  1.0000
  C   C4        1.0  0.88237  0.17240  0.50805  1.0000
  C   C5        1.0  0.21055  0.60017  0.01001  1.0000
  C   C6        1.0  0.71055  0.39983  0.98999  1.0000
  C   C7        1.0  0.21054  0.89983  0.51001  1.0000
  C   C8        1.0  0.71056  0.10017  0.48999  1.0000
  C   C9        1.0  0.15900  0.57648  0.08960  1.0000
  C   C10       1.0  0.65900  0.42352  0.91040  1.0000
  C   C11       1.0  0.15899  0.92351  0.58960  1.0000
  C   C12       1.0  0.65901  0.07648  0.41040  1.0000
  C   C13       1.0  0.27786  0.62692  0.15100  1.0000
  C   C14       1.0  0.77786  0.37308  0.84900  1.0000
  C   C15       1.0  0.27785  0.87308  0.65100  1.0000
  C   C16       1.0  0.77787  0.12692  0.34899  1.0000
  C   C17       1.0  0.44349  0.69974  0.13350  1.0000
  C   C18       1.0  0.94349  0.30026  0.86650  1.0000
  C   C19       1.0  0.44349  0.80026  0.63351  1.0000
  C   C20       1.0  0.94350  0.19974  0.36649  1.0000
  C   C21       1.0  0.57425  0.75630  0.19617  1.0000
  C   C22       1.0  0.07424  0.24370  0.80383  1.0000
  C   C23       1.0  0.57425  0.74370  0.69617  1.0000
  C   C24       1.0  0.07425  0.25630  0.30383  1.0000
  C   C25       1.0  0.45963  0.70024  0.90890  1.0000
  C   C26       1.0  0.95963  0.29977  0.09110  1.0000
  C   C27       1.0  0.45963  0.79977  0.40890  1.0000
  C   C28       1.0  0.95963  0.20023  0.59110  1.0000
  N   N1        1.0  0.02363  0.93741  0.14290  1.0000
  N   N2        1.0  0.52363  0.06259  0.85711  1.0000
  N   N3        1.0  0.02363  0.56259  0.64289  1.0000
  N   N4        1.0  0.52363  0.43741  0.35710  1.0000
  N   N5        1.0  0.02766  0.93900  0.21595  1.0000
  N   N6        1.0  0.52766  0.06100  0.78405  1.0000
  N   N7        1.0  0.02766  0.56100  0.71595  1.0000
  N   N8        1.0  0.52766  0.43900  0.28405  1.0000
  N   N9        1.0  0.03042  0.94018  0.28605  1.0000
  N   N10       1.0  0.53041  0.05982  0.71396  1.0000
  N   N11       1.0  0.03041  0.55982  0.78605  1.0000
  N   N12       1.0  0.53041  0.44018  0.21395  1.0000
  N   N13       1.0  0.51862  0.06621  0.03627  1.0000
  N   N14       1.0  0.01862  0.93379  0.96373  1.0000
  N   N15       1.0  0.51862  0.43379  0.53626  1.0000
  N   N16       1.0  0.01862  0.56621  0.46373  1.0000
  N   N17       1.0  0.48825  0.10181  0.10000  1.0000
  N   N18       1.0  0.98825  0.89819  0.90000  1.0000
  N   N19       1.0  0.48825  0.39819  0.60000  1.0000
  N   N20       1.0  0.98825  0.60181  0.40000  1.0000
  N   N21       1.0  0.45592  0.13488  0.16103  1.0000
  N   N22       1.0  0.95592  0.86512  0.83898  1.0000
  N   N23       1.0  0.45593  0.36513  0.66102  1.0000
  N   N24       1.0  0.95592  0.63488  0.33898  1.0000
  N   N25       1.0  0.49304  0.72081  0.05423  1.0000
  N   N26       1.0  0.99304  0.27919  0.94577  1.0000
  N   N27       1.0  0.49305  0.77919  0.55423  1.0000
  N   N28       1.0  0.99304  0.22081  0.44577  1.0000
  O   O1        1.0  0.66919  0.78792  0.03622  1.0000
  O   O2        1.0  0.16920  0.21208  0.96378  1.0000
  O   O3        1.0  0.66920  0.71209  0.53622  1.0000
  O   O4        1.0  0.16919  0.28791  0.46378  1.0000
