data_image0
_chemical_formula_structural       Zn2H36C46N4O16
_chemical_formula_sum              "Zn2 H36 C46 N4 O16"
_cell_length_a       8.63207
_cell_length_b       12.5956
_cell_length_c       12.6117
_cell_angle_alpha    107.138
_cell_angle_beta     108.334
_cell_angle_gamma    108.627

_space_group_name_H-M_alt    "P 1"
_space_group_IT_number       1

loop_
  _space_group_symop_operation_xyz
  'x, y, z'

loop_
  _atom_site_type_symbol
  _atom_site_label
  _atom_site_symmetry_multiplicity
  _atom_site_fract_x
  _atom_site_fract_y
  _atom_site_fract_z
  _atom_site_occupancy
  Zn  Zn1       1.0  0.83363  0.92901  0.04038  1.0000
  Zn  Zn2       1.0  0.33271  0.04074  0.92863  1.0000
  H   H1        1.0  0.40343  0.97535  0.23233  1.0000
  H   H2        1.0  0.90182  0.23095  0.97496  1.0000
  H   H3        1.0  0.56620  0.62344  0.81913  1.0000
  H   H4        1.0  0.06598  0.81906  0.62296  1.0000
  H   H5        1.0  0.93997  0.10779  0.57166  1.0000
  H   H6        1.0  0.43887  0.57184  0.10784  1.0000
  H   H7        1.0  0.37280  0.96490  0.49251  1.0000
  H   H8        1.0  0.87171  0.49124  0.96466  1.0000
  H   H9        1.0  0.93841  0.00225  0.30441  1.0000
  H   H10       1.0  0.43955  0.30504  0.00308  1.0000
  H   H11       1.0  0.20911  0.16002  0.50819  1.0000
  H   H12       1.0  0.71057  0.50917  0.16097  1.0000
  H   H13       1.0  0.44951  0.31900  0.30374  1.0000
  H   H14       1.0  0.94761  0.30306  0.31791  1.0000
  H   H15       1.0  0.16846  0.16037  0.11120  1.0000
  H   H16       1.0  0.66662  0.11014  0.15894  1.0000
  H   H17       1.0  0.51041  0.31278  0.61654  1.0000
  H   H18       1.0  0.01187  0.61738  0.31342  1.0000
  H   H19       1.0  0.51370  0.43535  0.57631  1.0000
  H   H20       1.0  0.01306  0.57634  0.43513  1.0000
  H   H21       1.0  0.70495  0.28692  0.48793  1.0000
  H   H22       1.0  0.20480  0.48794  0.28701  1.0000
  H   H23       1.0  0.74939  0.44166  0.51477  1.0000
  H   H24       1.0  0.24765  0.51409  0.44106  1.0000
  H   H25       1.0  0.82997  0.49120  0.74459  1.0000
  H   H26       1.0  0.33048  0.74486  0.49157  1.0000
  H   H27       1.0  0.81791  0.34122  0.71069  1.0000
  H   H28       1.0  0.31979  0.71161  0.34223  1.0000
  H   H29       1.0  0.09191  0.31587  0.73074  1.0000
  H   H30       1.0  0.59339  0.73110  0.31652  1.0000
  H   H31       1.0  0.42493  0.42237  0.79419  1.0000
  H   H32       1.0  0.92611  0.79438  0.42254  1.0000
  H   H33       1.0  0.40353  0.74212  0.77726  1.0000
  H   H34       1.0  0.90197  0.77684  0.74114  1.0000
  H   H35       1.0  0.06613  0.64771  0.70859  1.0000
  H   H36       1.0  0.56492  0.70842  0.64722  1.0000
  C   C1        1.0  0.65174  0.03637  0.51902  1.0000
  C   C2        1.0  0.15066  0.51865  0.03632  1.0000
  C   C3        1.0  0.83347  0.07542  0.59972  1.0000
  C   C4        1.0  0.33268  0.59983  0.07556  1.0000
  C   C5        1.0  0.87996  0.06928  0.71355  1.0000
  C   C6        1.0  0.37971  0.71402  0.06958  1.0000
  C   C7        1.0  0.74155  0.02648  0.74895  1.0000
  C   C8        1.0  0.24156  0.74918  0.02687  1.0000
  C   C9        1.0  0.55948  0.99217  0.66980  1.0000
  C   C10       1.0  0.05906  0.66950  0.99220  1.0000
  C   C11       1.0  0.51480  0.99496  0.55474  1.0000
  C   C12       1.0  0.01385  0.55404  0.99481  1.0000
  C   C13       1.0  0.60731  0.03686  0.39491  1.0000
  C   C14       1.0  0.10573  0.39416  0.03654  1.0000
  C   C15       1.0  0.07748  0.10445  0.79139  1.0000
  C   C16       1.0  0.57741  0.79223  0.10453  1.0000
  C   C17       1.0  0.78234  0.01354  0.86831  1.0000
  C   C18       1.0  0.28298  0.86915  0.01476  1.0000
  C   C19       1.0  0.41217  0.95611  0.70997  1.0000
  C   C20       1.0  0.91218  0.70970  0.95611  1.0000
  C   C21       1.0  0.05515  0.07467  0.30954  1.0000
  C   C22       1.0  0.55569  0.30991  0.07508  1.0000
  C   C23       1.0  0.20642  0.16266  0.42191  1.0000
  C   C24       1.0  0.70708  0.42248  0.16316  1.0000
  C   C25       1.0  0.35510  0.25284  0.42413  1.0000
  C   C26       1.0  0.85485  0.42428  0.25282  1.0000
  C   C27       1.0  0.34065  0.25135  0.30984  1.0000
  C   C28       1.0  0.83946  0.30944  0.25066  1.0000
  C   C29       1.0  0.18463  0.16160  0.20073  1.0000
  C   C30       1.0  0.68343  0.20013  0.16076  1.0000
  C   C31       1.0  0.52019  0.34589  0.54614  1.0000
  C   C32       1.0  0.02024  0.54641  0.34599  1.0000
  C   C33       1.0  0.70878  0.37152  0.54908  1.0000
  C   C34       1.0  0.20842  0.54900  0.37149  1.0000
  C   C35       1.0  0.84939  0.41841  0.68417  1.0000
  C   C36       1.0  0.35004  0.68452  0.41886  1.0000
  C   C37       1.0  0.04697  0.47213  0.71113  1.0000
  C   C38       1.0  0.54724  0.71127  0.47230  1.0000
  C   C39       1.0  0.15101  0.40851  0.73531  1.0000
  C   C40       1.0  0.65187  0.73551  0.40881  1.0000
  C   C41       1.0  0.33694  0.46606  0.77158  1.0000
  C   C42       1.0  0.83756  0.77167  0.46607  1.0000
  C   C43       1.0  0.32481  0.64674  0.76014  1.0000
  C   C44       1.0  0.82391  0.75988  0.64611  1.0000
  C   C45       1.0  0.13786  0.59217  0.72186  1.0000
  C   C46       1.0  0.63715  0.72173  0.59184  1.0000
  N   N1        1.0  0.04458  0.07379  0.20023  1.0000
  N   N2        1.0  0.54420  0.20006  0.07353  1.0000
  N   N3        1.0  0.41952  0.58272  0.78379  1.0000
  N   N4        1.0  0.91925  0.78369  0.58230  1.0000
  O   O1        1.0  0.42873  0.97569  0.31934  1.0000
  O   O2        1.0  0.92711  0.31823  0.97549  1.0000
  O   O3        1.0  0.72689  0.08899  0.36818  1.0000
  O   O4        1.0  0.22495  0.36739  0.08829  1.0000
  O   O5        1.0  0.20195  0.18215  0.78449  1.0000
  O   O6        1.0  0.70142  0.78522  0.18176  1.0000
  O   O7        1.0  0.09862  0.04428  0.85825  1.0000
  O   O8        1.0  0.59925  0.85933  0.04456  1.0000
  O   O9        1.0  0.86224  0.10833  0.97181  1.0000
  O   O10       1.0  0.36282  0.97248  0.10974  1.0000
  O   O11       1.0  0.72984  0.90287  0.86004  1.0000
  O   O12       1.0  0.23052  0.86117  0.90448  1.0000
  O   O13       1.0  0.45665  0.02880  0.82044  1.0000
  O   O14       1.0  0.95682  0.82049  0.02864  1.0000
  O   O15       1.0  0.26088  0.86053  0.63266  1.0000
  O   O16       1.0  0.76111  0.63225  0.86074  1.0000
