data_image0
_chemical_formula_structural       Cd4H36C36S8N12O4
_chemical_formula_sum              "Cd4 H36 C36 S8 N12 O4"
_cell_length_a       8.1311
_cell_length_b       8.13109
_cell_length_c       19.429
_cell_angle_alpha    92.8706
_cell_angle_beta     92.8707
_cell_angle_gamma    93.5536

_space_group_name_H-M_alt    "P 1"
_space_group_IT_number       1

loop_
  _space_group_symop_operation_xyz
  'x, y, z'

loop_
  _atom_site_type_symbol
  _atom_site_label
  _atom_site_symmetry_multiplicity
  _atom_site_fract_x
  _atom_site_fract_y
  _atom_site_fract_z
  _atom_site_occupancy
  Cd  Cd1       1.0  0.03194  0.96806  0.75000  1.0000
  Cd  Cd2       1.0  0.96806  0.03194  0.25000  1.0000
  Cd  Cd3       1.0  0.70098  0.29902  0.75000  1.0000
  Cd  Cd4       1.0  0.29902  0.70098  0.25000  1.0000
  H   H1        1.0  0.80647  0.04408  0.03434  1.0000
  H   H2        1.0  0.95592  0.19353  0.46566  1.0000
  H   H3        1.0  0.19353  0.95592  0.96566  1.0000
  H   H4        1.0  0.04409  0.80647  0.53434  1.0000
  H   H5        1.0  0.59503  0.80307  0.02694  1.0000
  H   H6        1.0  0.19693  0.40497  0.47306  1.0000
  H   H7        1.0  0.40497  0.19693  0.97306  1.0000
  H   H8        1.0  0.80307  0.59504  0.52694  1.0000
  H   H9        1.0  0.47723  0.69893  0.90983  1.0000
  H   H10       1.0  0.30107  0.52277  0.59017  1.0000
  H   H11       1.0  0.52277  0.30107  0.09017  1.0000
  H   H12       1.0  0.69893  0.47723  0.40983  1.0000
  H   H13       1.0  0.03614  0.17883  0.89769  1.0000
  H   H14       1.0  0.82117  0.96385  0.60231  1.0000
  H   H15       1.0  0.96385  0.82117  0.10231  1.0000
  H   H16       1.0  0.17883  0.03615  0.39769  1.0000
  H   H17       1.0  0.96967  0.24294  0.98089  1.0000
  H   H18       1.0  0.75706  0.03033  0.51911  1.0000
  H   H19       1.0  0.03033  0.75706  0.01910  1.0000
  H   H20       1.0  0.24294  0.96967  0.48089  1.0000
  H   H21       1.0  0.87554  0.31283  0.90322  1.0000
  H   H22       1.0  0.68717  0.12446  0.59678  1.0000
  H   H23       1.0  0.12446  0.68717  0.09678  1.0000
  H   H24       1.0  0.31283  0.87554  0.40322  1.0000
  H   H25       1.0  0.42093  0.84072  0.78211  1.0000
  H   H26       1.0  0.15927  0.57907  0.71790  1.0000
  H   H27       1.0  0.57907  0.15928  0.21790  1.0000
  H   H28       1.0  0.84072  0.42093  0.28211  1.0000
  H   H29       1.0  0.55454  0.67774  0.78130  1.0000
  H   H30       1.0  0.32226  0.44546  0.71870  1.0000
  H   H31       1.0  0.44546  0.32226  0.21870  1.0000
  H   H32       1.0  0.67774  0.55454  0.28130  1.0000
  H   H33       1.0  0.61650  0.86888  0.74551  1.0000
  H   H34       1.0  0.13111  0.38350  0.75449  1.0000
  H   H35       1.0  0.38350  0.13112  0.25449  1.0000
  H   H36       1.0  0.86888  0.61649  0.24551  1.0000
  C   C1        1.0  0.95100  0.61038  0.83047  1.0000
  C   C2        1.0  0.38962  0.04900  0.66953  1.0000
  C   C3        1.0  0.04900  0.38962  0.16953  1.0000
  C   C4        1.0  0.61038  0.95100  0.33047  1.0000
  C   C5        1.0  0.34545  0.21600  0.83273  1.0000
  C   C6        1.0  0.78399  0.65455  0.66727  1.0000
  C   C7        1.0  0.65455  0.78399  0.16727  1.0000
  C   C8        1.0  0.21601  0.34545  0.33273  1.0000
  C   C9        1.0  0.80622  0.06420  0.92572  1.0000
  C   C10       1.0  0.93580  0.19377  0.57428  1.0000
  C   C11       1.0  0.19377  0.93580  0.07428  1.0000
  C   C12       1.0  0.06421  0.80622  0.42572  1.0000
  C   C13       1.0  0.75352  0.99231  0.98479  1.0000
  C   C14       1.0  0.00769  0.24648  0.51521  1.0000
  C   C15       1.0  0.24648  0.00770  0.01521  1.0000
  C   C16       1.0  0.99231  0.75352  0.48479  1.0000
  C   C17       1.0  0.63636  0.85939  0.98053  1.0000
  C   C18       1.0  0.14062  0.36364  0.51947  1.0000
  C   C19       1.0  0.36364  0.14062  0.01947  1.0000
  C   C20       1.0  0.85939  0.63636  0.48053  1.0000
  C   C21       1.0  0.57075  0.80127  0.91594  1.0000
  C   C22       1.0  0.19873  0.42925  0.58406  1.0000
  C   C23       1.0  0.42925  0.19873  0.08406  1.0000
  C   C24       1.0  0.80127  0.57075  0.41594  1.0000
  C   C25       1.0  0.62256  0.87207  0.85618  1.0000
  C   C26       1.0  0.12793  0.37744  0.64382  1.0000
  C   C27       1.0  0.37744  0.12793  0.14382  1.0000
  C   C28       1.0  0.87207  0.62256  0.35618  1.0000
  C   C29       1.0  0.92898  0.20749  0.92730  1.0000
  C   C30       1.0  0.79251  0.07102  0.57270  1.0000
  C   C31       1.0  0.07102  0.79251  0.07270  1.0000
  C   C32       1.0  0.20750  0.92898  0.42730  1.0000
  C   C33       1.0  0.55137  0.81247  0.78689  1.0000
  C   C34       1.0  0.18753  0.44863  0.71311  1.0000
  C   C35       1.0  0.44863  0.18753  0.21311  1.0000
  C   C36       1.0  0.81247  0.55137  0.28689  1.0000
  S   S1        1.0  0.08709  0.76131  0.85320  1.0000
  S   S2        1.0  0.23869  0.91291  0.64680  1.0000
  S   S3        1.0  0.91291  0.23869  0.14680  1.0000
  S   S4        1.0  0.76131  0.08709  0.35320  1.0000
  S   S5        1.0  0.49853  0.34896  0.85632  1.0000
  S   S6        1.0  0.65103  0.50147  0.64368  1.0000
  S   S7        1.0  0.50147  0.65104  0.14368  1.0000
  S   S8        1.0  0.34896  0.49853  0.35632  1.0000
  N   N1        1.0  0.85394  0.49961  0.81384  1.0000
  N   N2        1.0  0.50039  0.14605  0.68616  1.0000
  N   N3        1.0  0.14605  0.50039  0.18616  1.0000
  N   N4        1.0  0.49961  0.85395  0.31384  1.0000
  N   N5        1.0  0.23257  0.12063  0.81671  1.0000
  N   N6        1.0  0.87935  0.76742  0.68330  1.0000
  N   N7        1.0  0.76743  0.87936  0.18329  1.0000
  N   N8        1.0  0.12064  0.23258  0.31670  1.0000
  N   N9        1.0  0.74120  0.00027  0.86261  1.0000
  N   N10       1.0  0.99973  0.25880  0.63739  1.0000
  N   N11       1.0  0.25880  0.99973  0.13739  1.0000
  N   N12       1.0  0.00027  0.74120  0.36261  1.0000
  O   O1        1.0  0.79867  0.06606  0.80573  1.0000
  O   O2        1.0  0.93394  0.20133  0.69427  1.0000
  O   O3        1.0  0.20133  0.93394  0.19427  1.0000
  O   O4        1.0  0.06606  0.79867  0.30573  1.0000
