data_image0
_chemical_formula_structural       Ag2H48C54N18O6
_chemical_formula_sum              "Ag2 H48 C54 N18 O6"
_cell_length_a       7.56885
_cell_length_b       13.837
_cell_length_c       13.895
_cell_angle_alpha    120.139
_cell_angle_beta     90
_cell_angle_gamma    90

_space_group_name_H-M_alt    "P 1"
_space_group_IT_number       1

loop_
  _space_group_symop_operation_xyz
  'x, y, z'

loop_
  _atom_site_type_symbol
  _atom_site_label
  _atom_site_symmetry_multiplicity
  _atom_site_fract_x
  _atom_site_fract_y
  _atom_site_fract_z
  _atom_site_occupancy
  Ag  Ag1       1.0  0.67779  0.33371  0.66773  1.0000
  Ag  Ag2       1.0  0.17782  0.66629  0.33228  1.0000
  H   H1        1.0  0.95871  0.27230  0.10961  1.0000
  H   H2        1.0  0.95823  0.89093  0.16218  1.0000
  H   H3        1.0  0.95954  0.83771  0.72913  1.0000
  H   H4        1.0  0.45872  0.72770  0.89039  1.0000
  H   H5        1.0  0.45823  0.10907  0.83782  1.0000
  H   H6        1.0  0.45955  0.16229  0.27087  1.0000
  H   H7        1.0  0.15237  0.18284  0.17680  1.0000
  H   H8        1.0  0.15187  0.82294  0.00607  1.0000
  H   H9        1.0  0.15255  0.99359  0.81819  1.0000
  H   H10       1.0  0.65237  0.81716  0.82320  1.0000
  H   H11       1.0  0.65187  0.17706  0.99392  1.0000
  H   H12       1.0  0.65256  0.00641  0.18180  1.0000
  H   H13       1.0  0.12587  0.39414  0.00686  1.0000
  H   H14       1.0  0.12619  0.99381  0.38648  1.0000
  H   H15       1.0  0.12618  0.61222  0.60580  1.0000
  H   H16       1.0  0.62587  0.60586  0.99314  1.0000
  H   H17       1.0  0.62619  0.00620  0.61353  1.0000
  H   H18       1.0  0.62618  0.38778  0.39420  1.0000
  H   H19       1.0  0.02342  0.45975  0.14064  1.0000
  H   H20       1.0  0.02438  0.85929  0.31764  1.0000
  H   H21       1.0  0.02415  0.68204  0.54173  1.0000
  H   H22       1.0  0.52342  0.54025  0.85936  1.0000
  H   H23       1.0  0.52438  0.14071  0.68236  1.0000
  H   H24       1.0  0.52415  0.31795  0.45827  1.0000
  H   H25       1.0  0.94999  0.33031  0.83785  1.0000
  H   H26       1.0  0.94983  0.16304  0.49286  1.0000
  H   H27       1.0  0.94979  0.50727  0.66998  1.0000
  H   H28       1.0  0.45001  0.66968  0.16215  1.0000
  H   H29       1.0  0.44984  0.83696  0.50714  1.0000
  H   H30       1.0  0.44979  0.49272  0.33002  1.0000
  H   H31       1.0  0.68869  0.43949  0.15264  1.0000
  H   H32       1.0  0.68936  0.84664  0.28566  1.0000
  H   H33       1.0  0.68945  0.71334  0.56042  1.0000
  H   H34       1.0  0.18869  0.56052  0.84737  1.0000
  H   H35       1.0  0.18937  0.15336  0.71434  1.0000
  H   H36       1.0  0.18945  0.28666  0.43958  1.0000
  H   H37       1.0  0.40116  0.41380  0.05383  1.0000
  H   H38       1.0  0.40154  0.94540  0.35970  1.0000
  H   H39       1.0  0.40157  0.64016  0.58597  1.0000
  H   H40       1.0  0.90116  0.58621  0.94618  1.0000
  H   H41       1.0  0.90154  0.05460  0.64030  1.0000
  H   H42       1.0  0.90156  0.35984  0.41402  1.0000
  H   H43       1.0  0.40518  0.34797  0.84846  1.0000
  H   H44       1.0  0.40499  0.15162  0.50023  1.0000
  H   H45       1.0  0.40494  0.50047  0.65204  1.0000
  H   H46       1.0  0.90520  0.65203  0.15156  1.0000
  H   H47       1.0  0.90500  0.84838  0.49977  1.0000
  H   H48       1.0  0.90495  0.49953  0.34796  1.0000
  C   C1        1.0  0.14954  0.09888  0.99671  1.0000
  C   C2        1.0  0.14959  0.00370  0.10270  1.0000
  C   C3        1.0  0.14965  0.89684  0.90151  1.0000
  C   C4        1.0  0.64954  0.90112  0.00329  1.0000
  C   C5        1.0  0.64960  0.99630  0.89729  1.0000
  C   C6        1.0  0.64965  0.10316  0.09848  1.0000
  C   C7        1.0  0.15006  0.10300  0.09905  1.0000
  C   C8        1.0  0.15002  0.90078  0.00420  1.0000
  C   C9        1.0  0.15021  0.99563  0.89768  1.0000
  C   C10       1.0  0.65006  0.89700  0.90094  1.0000
  C   C11       1.0  0.65002  0.09921  0.99580  1.0000
  C   C12       1.0  0.65021  0.00437  0.10232  1.0000
  C   C13       1.0  0.15091  0.20205  0.98806  1.0000
  C   C14       1.0  0.15113  0.01253  0.21421  1.0000
  C   C15       1.0  0.15097  0.78490  0.79837  1.0000
  C   C16       1.0  0.65091  0.79796  0.01194  1.0000
  C   C17       1.0  0.65113  0.98748  0.78579  1.0000
  C   C18       1.0  0.65097  0.21510  0.20163  1.0000
  C   C19       1.0  0.01794  0.38746  0.05577  1.0000
  C   C20       1.0  0.01823  0.94450  0.33087  1.0000
  C   C21       1.0  0.01845  0.66843  0.61309  1.0000
  C   C22       1.0  0.51793  0.61254  0.94422  1.0000
  C   C23       1.0  0.51823  0.05550  0.66913  1.0000
  C   C24       1.0  0.51846  0.33157  0.38691  1.0000
  C   C25       1.0  0.83153  0.34808  0.88910  1.0000
  C   C26       1.0  0.83142  0.11148  0.45924  1.0000
  C   C27       1.0  0.83141  0.54079  0.65204  1.0000
  C   C28       1.0  0.33154  0.65192  0.11090  1.0000
  C   C29       1.0  0.33143  0.88852  0.54076  1.0000
  C   C30       1.0  0.33142  0.45920  0.34796  1.0000
  C   C31       1.0  0.84234  0.38264  0.00226  1.0000
  C   C32       1.0  0.84252  0.99787  0.38000  1.0000
  C   C33       1.0  0.84260  0.61950  0.61739  1.0000
  C   C34       1.0  0.34235  0.61736  0.99774  1.0000
  C   C35       1.0  0.34252  0.00213  0.62000  1.0000
  C   C36       1.0  0.34260  0.38050  0.38261  1.0000
  C   C37       1.0  0.68541  0.40958  0.06365  1.0000
  C   C38       1.0  0.68579  0.93599  0.34528  1.0000
  C   C39       1.0  0.68586  0.65412  0.59036  1.0000
  C   C40       1.0  0.18540  0.59042  0.93636  1.0000
  C   C41       1.0  0.18579  0.06401  0.65472  1.0000
  C   C42       1.0  0.18585  0.34588  0.40964  1.0000
  C   C43       1.0  0.52553  0.39565  0.00880  1.0000
  C   C44       1.0  0.52577  0.99079  0.38670  1.0000
  C   C45       1.0  0.52581  0.61317  0.60420  1.0000
  C   C46       1.0  0.02553  0.60435  0.99121  1.0000
  C   C47       1.0  0.02577  0.00921  0.61330  1.0000
  C   C48       1.0  0.02581  0.38683  0.39579  1.0000
  C   C49       1.0  0.52665  0.35917  0.89530  1.0000
  C   C50       1.0  0.52660  0.10479  0.46434  1.0000
  C   C51       1.0  0.52657  0.53602  0.64079  1.0000
  C   C52       1.0  0.02666  0.64083  0.10471  1.0000
  C   C53       1.0  0.02661  0.89521  0.53566  1.0000
  C   C54       1.0  0.02657  0.46398  0.35921  1.0000
  N   N1        1.0  0.04654  0.28608  0.06129  1.0000
  N   N2        1.0  0.04624  0.93923  0.22444  1.0000
  N   N3        1.0  0.04721  0.77508  0.71481  1.0000
  N   N4        1.0  0.54654  0.71392  0.93871  1.0000
  N   N5        1.0  0.54624  0.06077  0.77556  1.0000
  N   N6        1.0  0.54721  0.22492  0.28519  1.0000
  N   N7        1.0  0.67732  0.33827  0.83670  1.0000
  N   N8        1.0  0.67711  0.16387  0.50222  1.0000
  N   N9        1.0  0.67708  0.49821  0.66186  1.0000
  N   N10       1.0  0.17734  0.66173  0.16330  1.0000
  N   N11       1.0  0.17712  0.83613  0.49778  1.0000
  N   N12       1.0  0.17709  0.50179  0.33814  1.0000
  N   N13       1.0  0.33484  0.33350  0.66721  1.0000
  N   N14       1.0  0.83486  0.66650  0.33279  1.0000
  N   N15       1.0  0.17778  0.33350  0.66716  1.0000
  N   N16       1.0  0.67776  0.66650  0.33284  1.0000
  N   N17       1.0  0.02089  0.33350  0.66710  1.0000
  N   N18       1.0  0.52090  0.66650  0.33290  1.0000
  O   O1        1.0  0.24328  0.20665  0.91572  1.0000
  O   O2        1.0  0.24407  0.08489  0.29127  1.0000
  O   O3        1.0  0.24290  0.70722  0.79324  1.0000
  O   O4        1.0  0.74328  0.79335  0.08428  1.0000
  O   O5        1.0  0.74407  0.91511  0.70872  1.0000
  O   O6        1.0  0.74289  0.29278  0.20676  1.0000
