data_image0
_chemical_formula_structural       Cd2H32C36I4N12
_chemical_formula_sum              "Cd2 H32 C36 I4 N12"
_cell_length_a       4.37349
_cell_length_b       15.5545
_cell_length_c       15.5478
_cell_angle_alpha    112.485
_cell_angle_beta     90.0067
_cell_angle_gamma    98.0877

_space_group_name_H-M_alt    "P 1"
_space_group_IT_number       1

loop_
  _space_group_symop_operation_xyz
  'x, y, z'

loop_
  _atom_site_type_symbol
  _atom_site_label
  _atom_site_symmetry_multiplicity
  _atom_site_fract_x
  _atom_site_fract_y
  _atom_site_fract_z
  _atom_site_occupancy
  Cd  Cd1       1.0  0.46042  0.00002  0.74998  1.0000
  Cd  Cd2       1.0  0.53956  0.99999  0.25002  1.0000
  H   H1        1.0  0.10444  0.76606  0.66892  1.0000
  H   H2        1.0  0.33948  0.23405  0.83128  1.0000
  H   H3        1.0  0.89559  0.23395  0.33109  1.0000
  H   H4        1.0  0.66054  0.76595  0.16872  1.0000
  H   H5        1.0  0.76248  0.89383  0.89555  1.0000
  H   H6        1.0  0.86910  0.10627  0.60452  1.0000
  H   H7        1.0  0.23753  0.10618  0.10447  1.0000
  H   H8        1.0  0.13091  0.89373  0.39548  1.0000
  H   H9        1.0  0.86436  0.74953  0.91827  1.0000
  H   H10       1.0  0.11500  0.25062  0.58179  1.0000
  H   H11       1.0  0.13565  0.25047  0.08173  1.0000
  H   H12       1.0  0.88501  0.74938  0.41820  1.0000
  H   H13       1.0  0.84455  0.65283  0.80893  1.0000
  H   H14       1.0  0.19222  0.34733  0.69110  1.0000
  H   H15       1.0  0.15548  0.34717  0.19107  1.0000
  H   H16       1.0  0.80779  0.65267  0.30890  1.0000
  H   H17       1.0  0.58258  0.50410  0.80065  1.0000
  H   H18       1.0  0.07840  0.49600  0.69945  1.0000
  H   H19       1.0  0.41744  0.49590  0.19935  1.0000
  H   H20       1.0  0.92161  0.50400  0.30054  1.0000
  H   H21       1.0  0.24941  0.41007  0.86767  1.0000
  H   H22       1.0  0.83928  0.58999  0.63238  1.0000
  H   H23       1.0  0.75058  0.58993  0.13232  1.0000
  H   H24       1.0  0.16071  0.41001  0.36761  1.0000
  H   H25       1.0  0.01346  0.66407  0.07826  1.0000
  H   H26       1.0  0.34956  0.33591  0.42175  1.0000
  H   H27       1.0  0.98652  0.33593  0.92173  1.0000
  H   H28       1.0  0.65038  0.66408  0.57826  1.0000
  H   H29       1.0  0.35251  0.75772  0.01192  1.0000
  H   H30       1.0  0.59476  0.24232  0.48815  1.0000
  H   H31       1.0  0.64750  0.24228  0.98808  1.0000
  H   H32       1.0  0.40522  0.75767  0.51186  1.0000
  C   C1        1.0  0.26699  0.77573  0.72582  1.0000
  C   C2        1.0  0.49219  0.22437  0.77435  1.0000
  C   C3        1.0  0.73304  0.22428  0.27419  1.0000
  C   C4        1.0  0.50781  0.77563  0.22565  1.0000
  C   C5        1.0  0.60089  0.84315  0.84045  1.0000
  C   C6        1.0  0.75857  0.15697  0.65968  1.0000
  C   C7        1.0  0.39912  0.15686  0.15956  1.0000
  C   C8        1.0  0.24144  0.84303  0.34031  1.0000
  C   C9        1.0  0.70571  0.69662  0.86221  1.0000
  C   C10       1.0  0.00945  0.30353  0.63787  1.0000
  C   C11       1.0  0.29430  0.30338  0.13780  1.0000
  C   C12       1.0  0.99055  0.69647  0.36213  1.0000
  C   C13       1.0  0.48880  0.63792  0.90036  1.0000
  C   C14       1.0  0.85093  0.36215  0.59972  1.0000
  C   C15       1.0  0.51120  0.36208  0.09963  1.0000
  C   C16       1.0  0.14906  0.63784  0.40028  1.0000
  C   C17       1.0  0.45413  0.53966  0.86095  1.0000
  C   C18       1.0  0.91427  0.46043  0.63914  1.0000
  C   C19       1.0  0.54587  0.46034  0.13905  1.0000
  C   C20       1.0  0.08572  0.53957  0.36086  1.0000
  C   C21       1.0  0.26350  0.48620  0.89973  1.0000
  C   C22       1.0  0.77713  0.51385  0.60031  1.0000
  C   C23       1.0  0.73650  0.51380  0.10027  1.0000
  C   C24       1.0  0.22286  0.48614  0.39969  1.0000
  C   C25       1.0  0.09934  0.52843  0.97893  1.0000
  C   C26       1.0  0.57094  0.47157  0.52105  1.0000
  C   C27       1.0  0.90065  0.47157  0.02106  1.0000
  C   C28       1.0  0.42903  0.52843  0.47895  1.0000
  C   C29       1.0  0.13478  0.62739  0.01710  1.0000
  C   C30       1.0  0.50757  0.37260  0.48291  1.0000
  C   C31       1.0  0.86520  0.37261  0.98289  1.0000
  C   C32       1.0  0.49238  0.62740  0.51709  1.0000
  C   C33       1.0  0.32725  0.68101  0.97921  1.0000
  C   C34       1.0  0.64630  0.31901  0.52085  1.0000
  C   C35       1.0  0.67275  0.31899  0.02078  1.0000
  C   C36       1.0  0.35367  0.68099  0.47916  1.0000
  I   I1        1.0  0.93206  0.91712  0.60572  1.0000
  I   I2        1.0  0.01506  0.08290  0.89423  1.0000
  I   I3        1.0  0.06789  0.08288  0.39429  1.0000
  I   I4        1.0  0.98496  0.91711  0.10577  1.0000
  N   N1        1.0  0.42521  0.86166  0.78104  1.0000
  N   N2        1.0  0.56435  0.13844  0.71909  1.0000
  N   N3        1.0  0.57481  0.13834  0.21897  1.0000
  N   N4        1.0  0.43565  0.86156  0.28090  1.0000
  N   N5        1.0  0.33548  0.70563  0.74746  1.0000
  N   N6        1.0  0.63071  0.29447  0.75271  1.0000
  N   N7        1.0  0.66455  0.29438  0.25255  1.0000
  N   N8        1.0  0.36929  0.70553  0.24729  1.0000
  N   N9        1.0  0.54836  0.75003  0.82070  1.0000
  N   N10       1.0  0.79900  0.25009  0.67943  1.0000
  N   N11       1.0  0.45167  0.24997  0.17930  1.0000
  N   N12       1.0  0.20102  0.74991  0.32057  1.0000
