data_image0
_chemical_formula_structural       CdH32C36I2N12
_chemical_formula_sum              "Cd1 H32 C36 I2 N12"
_cell_length_a       7.52912
_cell_length_b       8.84059
_cell_length_c       15.1618
_cell_angle_alpha    90.4811
_cell_angle_beta     82.1224
_cell_angle_gamma    69.5105

_space_group_name_H-M_alt    "P 1"
_space_group_IT_number       1

loop_
  _space_group_symop_operation_xyz
  'x, y, z'

loop_
  _atom_site_type_symbol
  _atom_site_label
  _atom_site_symmetry_multiplicity
  _atom_site_fract_x
  _atom_site_fract_y
  _atom_site_fract_z
  _atom_site_occupancy
  Cd  Cd1       1.0  0.00000  1.00000  0.50000  1.0000
  H   H1        1.0  0.07454  0.16451  0.28838  1.0000
  H   H2        1.0  0.92546  0.83549  0.71163  1.0000
  H   H3        1.0  0.43794  0.73530  0.38118  1.0000
  H   H4        1.0  0.56208  0.26468  0.61881  1.0000
  H   H5        1.0  0.57007  0.65400  0.16475  1.0000
  H   H6        1.0  0.42992  0.34599  0.83525  1.0000
  H   H7        1.0  0.70219  0.66174  0.25260  1.0000
  H   H8        1.0  0.29782  0.33825  0.74739  1.0000
  H   H9        1.0  0.61816  0.77220  0.02597  1.0000
  H   H10       1.0  0.38184  0.22779  0.97402  1.0000
  H   H11       1.0  0.79539  0.90333  0.92741  1.0000
  H   H12       1.0  0.20462  0.09667  0.07259  1.0000
  H   H13       1.0  0.05295  0.00020  0.14921  1.0000
  H   H14       1.0  0.94705  0.99980  0.85079  1.0000
  H   H15       1.0  0.86467  0.87591  0.24855  1.0000
  H   H16       1.0  0.13533  0.12408  0.75144  1.0000
  H   H17       1.0  0.85068  0.41800  0.44566  1.0000
  H   H18       1.0  0.14932  0.58201  0.55435  1.0000
  H   H19       1.0  0.56299  0.09837  0.40389  1.0000
  H   H20       1.0  0.43701  0.90163  0.59611  1.0000
  H   H21       1.0  0.23519  0.49937  0.36153  1.0000
  H   H22       1.0  0.76482  0.50063  0.63848  1.0000
  H   H23       1.0  0.29114  0.29121  0.33395  1.0000
  H   H24       1.0  0.70886  0.70879  0.66605  1.0000
  H   H25       1.0  0.12186  0.61164  0.22751  1.0000
  H   H26       1.0  0.87813  0.38837  0.77250  1.0000
  H   H27       1.0  0.18969  0.66314  0.07086  1.0000
  H   H28       1.0  0.81030  0.33686  0.92914  1.0000
  H   H29       1.0  0.74987  0.28924  0.05207  1.0000
  H   H30       1.0  0.25011  0.71075  0.94793  1.0000
  H   H31       1.0  0.67669  0.23437  0.20691  1.0000
  H   H32       1.0  0.32330  0.76563  0.79309  1.0000
  C   C1        1.0  0.19300  0.05230  0.29210  1.0000
  C   C2        1.0  0.80701  0.94769  0.70791  1.0000
  C   C3        1.0  0.37263  0.83679  0.34194  1.0000
  C   C4        1.0  0.62739  0.16320  0.65806  1.0000
  C   C5        1.0  0.61729  0.73373  0.20404  1.0000
  C   C6        1.0  0.38271  0.26627  0.79595  1.0000
  C   C7        1.0  0.72886  0.81429  0.14414  1.0000
  C   C8        1.0  0.27115  0.18570  0.85585  1.0000
  C   C9        1.0  0.71324  0.82298  0.05334  1.0000
  C   C10       1.0  0.28676  0.17702  0.94665  1.0000
  C   C11       1.0  0.81687  0.89645  0.99707  1.0000
  C   C12       1.0  0.18314  0.10354  0.00292  1.0000
  C   C13       1.0  0.94249  0.96228  0.02964  1.0000
  C   C14       1.0  0.05752  0.03771  0.97036  1.0000
  C   C15       1.0  0.95564  0.95340  0.12132  1.0000
  C   C16       1.0  0.04437  0.04660  0.87867  1.0000
  C   C17       1.0  0.85035  0.88190  0.17772  1.0000
  C   C18       1.0  0.14966  0.11809  0.82228  1.0000
  C   C19       1.0  0.74900  0.36800  0.42482  1.0000
  C   C20       1.0  0.25100  0.63200  0.57518  1.0000
  C   C21       1.0  0.60581  0.20353  0.40479  1.0000
  C   C22       1.0  0.39419  0.79647  0.59521  1.0000
  C   C23       1.0  0.34641  0.39093  0.32633  1.0000
  C   C24       1.0  0.65359  0.60908  0.67367  1.0000
  C   C25       1.0  0.39375  0.41983  0.22928  1.0000
  C   C26       1.0  0.60624  0.58017  0.77072  1.0000
  C   C27       1.0  0.25901  0.53890  0.18843  1.0000
  C   C28       1.0  0.74098  0.46110  0.81157  1.0000
  C   C29       1.0  0.29910  0.56837  0.09911  1.0000
  C   C30       1.0  0.70089  0.43163  0.90089  1.0000
  C   C31       1.0  0.47710  0.48213  0.04712  1.0000
  C   C32       1.0  0.52288  0.51787  0.95288  1.0000
  C   C33       1.0  0.61042  0.36119  0.08890  1.0000
  C   C34       1.0  0.38957  0.63882  0.91110  1.0000
  C   C35       1.0  0.56927  0.33005  0.17775  1.0000
  C   C36       1.0  0.43072  0.66995  0.82224  1.0000
  I   I1        1.0  0.84959  0.75819  0.43282  1.0000
  I   I2        1.0  0.15040  0.24181  0.56718  1.0000
  N   N1        1.0  0.75682  0.21331  0.43851  1.0000
  N   N2        1.0  0.24317  0.78669  0.56149  1.0000
  N   N3        1.0  0.21083  0.96360  0.36561  1.0000
  N   N4        1.0  0.78918  0.03639  0.63439  1.0000
  N   N5        1.0  0.44647  0.85077  0.25780  1.0000
  N   N6        1.0  0.55354  0.14923  0.74220  1.0000
  N   N7        1.0  0.33373  0.98780  0.22444  1.0000
  N   N8        1.0  0.66628  0.01220  0.77556  1.0000
  N   N9        1.0  0.51329  0.34618  0.37230  1.0000
  N   N10       1.0  0.48671  0.65382  0.62771  1.0000
  N   N11       1.0  0.60293  0.45303  0.38431  1.0000
  N   N12       1.0  0.39706  0.54697  0.61569  1.0000
