data_image0
_chemical_formula_structural       CdH32C38S2N14
_chemical_formula_sum              "Cd1 H32 C38 S2 N14"
_cell_length_a       9.23607
_cell_length_b       9.38654
_cell_length_c       13.8669
_cell_angle_alpha    90.0604
_cell_angle_beta     90.1367
_cell_angle_gamma    60.5298

_space_group_name_H-M_alt    "P 1"
_space_group_IT_number       1

loop_
  _space_group_symop_operation_xyz
  'x, y, z'

loop_
  _atom_site_type_symbol
  _atom_site_label
  _atom_site_symmetry_multiplicity
  _atom_site_fract_x
  _atom_site_fract_y
  _atom_site_fract_z
  _atom_site_occupancy
  Cd  Cd1       1.0  0.00000  1.00000  0.00001  1.0000
  H   H1        1.0  0.74880  0.78926  0.01650  1.0000
  H   H2        1.0  0.46180  0.78934  0.98351  1.0000
  H   H3        1.0  0.25120  0.21074  0.98351  1.0000
  H   H4        1.0  0.53820  0.21066  0.01649  1.0000
  H   H5        1.0  0.19752  0.67829  0.15500  1.0000
  H   H6        1.0  0.12422  0.67813  0.84499  1.0000
  H   H7        1.0  0.80250  0.32169  0.84500  1.0000
  H   H8        1.0  0.87577  0.32188  0.15501  1.0000
  H   H9        1.0  0.24867  0.42472  0.24140  1.0000
  H   H10       1.0  0.32657  0.42481  0.75860  1.0000
  H   H11       1.0  0.75134  0.57527  0.75859  1.0000
  H   H12       1.0  0.67341  0.57518  0.24140  1.0000
  H   H13       1.0  0.18284  0.30784  0.17384  1.0000
  H   H14       1.0  0.50930  0.30778  0.82617  1.0000
  H   H15       1.0  0.81716  0.69215  0.82616  1.0000
  H   H16       1.0  0.49070  0.69223  0.17383  1.0000
  H   H17       1.0  0.92720  0.68023  0.32942  1.0000
  H   H18       1.0  0.39251  0.68019  0.67059  1.0000
  H   H19       1.0  0.07281  0.31977  0.67057  1.0000
  H   H20       1.0  0.60747  0.31981  0.32940  1.0000
  H   H21       1.0  0.76472  0.67908  0.46911  1.0000
  H   H22       1.0  0.55625  0.67917  0.53098  1.0000
  H   H23       1.0  0.23529  0.32094  0.53089  1.0000
  H   H24       1.0  0.44375  0.32083  0.46902  1.0000
  H   H25       1.0  0.93911  0.16531  0.42431  1.0000
  H   H26       1.0  0.89548  0.16525  0.57564  1.0000
  H   H27       1.0  0.06088  0.83470  0.57570  1.0000
  H   H28       1.0  0.10453  0.83475  0.42436  1.0000
  H   H29       1.0  0.10857  0.16555  0.28745  1.0000
  H   H30       1.0  0.72578  0.16547  0.71252  1.0000
  H   H31       1.0  0.89142  0.83445  0.71255  1.0000
  H   H32       1.0  0.27421  0.83453  0.28748  1.0000
  C   C1        1.0  0.86065  0.72858  0.06024  1.0000
  C   C2        1.0  0.41072  0.72853  0.93980  1.0000
  C   C3        1.0  0.13935  0.27142  0.93976  1.0000
  C   C4        1.0  0.58927  0.27146  0.06020  1.0000
  C   C5        1.0  0.08659  0.67760  0.13025  1.0000
  C   C6        1.0  0.23579  0.67754  0.86977  1.0000
  C   C7        1.0  0.91341  0.32239  0.86975  1.0000
  C   C8        1.0  0.76420  0.32247  0.13023  1.0000
  C   C9        1.0  0.13780  0.42051  0.21627  1.0000
  C   C10       1.0  0.44171  0.42047  0.78375  1.0000
  C   C11       1.0  0.86221  0.57948  0.78373  1.0000
  C   C12       1.0  0.55828  0.57954  0.21625  1.0000
  C   C13       1.0  0.03215  0.42220  0.29965  1.0000
  C   C14       1.0  0.54565  0.42219  0.70039  1.0000
  C   C15       1.0  0.96787  0.57780  0.70035  1.0000
  C   C16       1.0  0.45434  0.57782  0.29961  1.0000
  C   C17       1.0  0.93091  0.56650  0.35053  1.0000
  C   C18       1.0  0.50260  0.56651  0.64951  1.0000
  C   C19       1.0  0.06910  0.43350  0.64946  1.0000
  C   C20       1.0  0.49739  0.43349  0.35049  1.0000
  C   C21       1.0  0.83689  0.56621  0.42862  1.0000
  C   C22       1.0  0.59692  0.56621  0.57141  1.0000
  C   C23       1.0  0.16312  0.43380  0.57138  1.0000
  C   C24       1.0  0.40308  0.43379  0.42859  1.0000
  C   C25       1.0  0.83864  0.42204  0.45831  1.0000
  C   C26       1.0  0.73933  0.42205  0.54173  1.0000
  C   C27       1.0  0.16137  0.57797  0.54170  1.0000
  C   C28       1.0  0.26067  0.57796  0.45828  1.0000
  C   C29       1.0  0.93863  0.27848  0.40579  1.0000
  C   C30       1.0  0.78283  0.27845  0.59423  1.0000
  C   C31       1.0  0.06137  0.72153  0.59422  1.0000
  C   C32       1.0  0.21716  0.72156  0.40577  1.0000
  C   C33       1.0  0.03458  0.27804  0.32815  1.0000
  C   C34       1.0  0.68730  0.27801  0.67185  1.0000
  C   C35       1.0  0.96542  0.72197  0.67185  1.0000
  C   C36       1.0  0.31269  0.72200  0.32815  1.0000
  C   C37       1.0  0.29118  0.00014  0.13828  1.0000
  C   C38       1.0  0.70885  0.99985  0.86172  1.0000
  S   S1        1.0  0.46458  0.00010  0.15432  1.0000
  S   S2        1.0  0.53545  0.99989  0.84568  1.0000
  N   N1        1.0  0.96967  0.78629  0.07160  1.0000
  N   N2        1.0  0.24401  0.78622  0.92843  1.0000
  N   N3        1.0  0.03033  0.21370  0.92840  1.0000
  N   N4        1.0  0.75598  0.21379  0.07157  1.0000
  N   N5        1.0  0.90359  0.59150  0.10886  1.0000
  N   N6        1.0  0.50490  0.59148  0.89117  1.0000
  N   N7        1.0  0.09641  0.40850  0.89114  1.0000
  N   N8        1.0  0.49509  0.40852  0.10883  1.0000
  N   N9        1.0  0.04835  0.56099  0.15284  1.0000
  N   N10       1.0  0.39066  0.56093  0.84720  1.0000
  N   N11       1.0  0.95165  0.43900  0.84716  1.0000
  N   N12       1.0  0.60933  0.43908  0.15280  1.0000
  N   N13       1.0  0.16255  0.00016  0.12876  1.0000
  N   N14       1.0  0.83749  0.99983  0.87124  1.0000
