data_image0
_chemical_formula_structural       Cd2H40C36N12Cl4O4
_chemical_formula_sum              "Cd2 H40 C36 N12 Cl4 O4"
_cell_length_a       5.74959
_cell_length_b       11.8717
_cell_length_c       14.6034
_cell_angle_alpha    95.5735
_cell_angle_beta     90.0002
_cell_angle_gamma    89.9998

_space_group_name_H-M_alt    "P 1"
_space_group_IT_number       1

loop_
  _space_group_symop_operation_xyz
  'x, y, z'

loop_
  _atom_site_type_symbol
  _atom_site_label
  _atom_site_symmetry_multiplicity
  _atom_site_fract_x
  _atom_site_fract_y
  _atom_site_fract_z
  _atom_site_occupancy
  Cd  Cd1       1.0  0.50000  0.00000  0.00000  1.0000
  Cd  Cd2       1.0  1.00000  0.50000  0.00000  1.0000
  H   H1        1.0  0.94658  0.13071  0.03693  1.0000
  H   H2        1.0  0.44658  0.36930  0.96308  1.0000
  H   H3        1.0  0.05342  0.86929  0.96307  1.0000
  H   H4        1.0  0.55342  0.63070  0.03693  1.0000
  H   H5        1.0  0.78463  0.19523  0.97030  1.0000
  H   H6        1.0  0.28463  0.30478  0.02971  1.0000
  H   H7        1.0  0.21537  0.80477  0.02970  1.0000
  H   H8        1.0  0.71537  0.69522  0.97030  1.0000
  H   H9        1.0  0.92070  0.83462  0.12252  1.0000
  H   H10       1.0  0.42069  0.66539  0.87748  1.0000
  H   H11       1.0  0.07932  0.16539  0.87749  1.0000
  H   H12       1.0  0.57931  0.33462  0.12252  1.0000
  H   H13       1.0  0.30586  0.99681  0.21835  1.0000
  H   H14       1.0  0.80586  0.50318  0.78165  1.0000
  H   H15       1.0  0.69413  0.00318  0.78164  1.0000
  H   H16       1.0  0.19414  0.49682  0.21836  1.0000
  H   H17       1.0  0.99167  0.84184  0.35523  1.0000
  H   H18       1.0  0.49166  0.65816  0.64477  1.0000
  H   H19       1.0  0.00833  0.15816  0.64477  1.0000
  H   H20       1.0  0.50833  0.34184  0.35523  1.0000
  H   H21       1.0  0.02188  0.73875  0.25975  1.0000
  H   H22       1.0  0.52188  0.76125  0.74024  1.0000
  H   H23       1.0  0.97813  0.26125  0.74024  1.0000
  H   H24       1.0  0.47813  0.23875  0.25976  1.0000
  H   H25       1.0  0.47535  0.66616  0.27223  1.0000
  H   H26       1.0  0.97536  0.83385  0.72777  1.0000
  H   H27       1.0  0.52466  0.33384  0.72777  1.0000
  H   H28       1.0  0.02465  0.16615  0.27223  1.0000
  H   H29       1.0  0.28779  0.53412  0.36764  1.0000
  H   H30       1.0  0.78780  0.96590  0.63237  1.0000
  H   H31       1.0  0.71222  0.46589  0.63236  1.0000
  H   H32       1.0  0.21221  0.03411  0.36764  1.0000
  H   H33       1.0  0.86028  0.57438  0.56004  1.0000
  H   H34       1.0  0.36028  0.92561  0.43997  1.0000
  H   H35       1.0  0.13970  0.42562  0.43996  1.0000
  H   H36       1.0  0.63971  0.07439  0.56004  1.0000
  H   H37       1.0  0.03806  0.70926  0.46747  1.0000
  H   H38       1.0  0.53806  0.79074  0.53253  1.0000
  H   H39       1.0  0.96194  0.29073  0.53253  1.0000
  H   H40       1.0  0.46194  0.20927  0.46747  1.0000
  C   C1        1.0  0.77399  0.86574  0.16427  1.0000
  C   C2        1.0  0.27398  0.63427  0.83573  1.0000
  C   C3        1.0  0.22602  0.13427  0.83573  1.0000
  C   C4        1.0  0.72602  0.36574  0.16428  1.0000
  C   C5        1.0  0.46437  0.94713  0.21607  1.0000
  C   C6        1.0  0.96437  0.55286  0.78393  1.0000
  C   C7        1.0  0.53563  0.05285  0.78393  1.0000
  C   C8        1.0  0.03564  0.44714  0.21608  1.0000
  C   C9        1.0  0.89500  0.78108  0.30811  1.0000
  C   C10       1.0  0.39500  0.71892  0.69189  1.0000
  C   C11       1.0  0.10500  0.21892  0.69189  1.0000
  C   C12       1.0  0.60500  0.28108  0.30812  1.0000
  C   C13       1.0  0.77193  0.69741  0.36254  1.0000
  C   C14       1.0  0.27193  0.80259  0.63746  1.0000
  C   C15       1.0  0.22809  0.30259  0.63747  1.0000
  C   C16       1.0  0.72808  0.19741  0.36254  1.0000
  C   C17       1.0  0.56089  0.64579  0.33528  1.0000
  C   C18       1.0  0.06088  0.85422  0.66472  1.0000
  C   C19       1.0  0.43911  0.35421  0.66471  1.0000
  C   C20       1.0  0.93912  0.14579  0.33529  1.0000
  C   C21       1.0  0.45562  0.56977  0.38930  1.0000
  C   C22       1.0  0.95563  0.93024  0.61069  1.0000
  C   C23       1.0  0.54438  0.43024  0.61070  1.0000
  C   C24       1.0  0.04438  0.06976  0.38930  1.0000
  C   C25       1.0  0.55767  0.54013  0.47135  1.0000
  C   C26       1.0  0.05767  0.95988  0.52865  1.0000
  C   C27       1.0  0.44233  0.45987  0.52865  1.0000
  C   C28       1.0  0.94233  0.04013  0.47135  1.0000
  C   C29       1.0  0.77186  0.59140  0.49689  1.0000
  C   C30       1.0  0.27187  0.90859  0.50311  1.0000
  C   C31       1.0  0.22814  0.40859  0.50311  1.0000
  C   C32       1.0  0.72814  0.09141  0.49689  1.0000
  C   C33       1.0  0.87512  0.66912  0.44402  1.0000
  C   C34       1.0  0.37512  0.83087  0.55599  1.0000
  C   C35       1.0  0.12488  0.33086  0.55598  1.0000
  C   C36       1.0  0.62487  0.16913  0.44402  1.0000
  N   N1        1.0  0.60075  0.93138  0.13929  1.0000
  N   N2        1.0  0.10075  0.56862  0.86071  1.0000
  N   N3        1.0  0.39925  0.06862  0.86071  1.0000
  N   N4        1.0  0.89925  0.43139  0.13929  1.0000
  N   N5        1.0  0.54433  0.89622  0.28660  1.0000
  N   N6        1.0  0.04433  0.60377  0.71341  1.0000
  N   N7        1.0  0.45566  0.10376  0.71340  1.0000
  N   N8        1.0  0.95567  0.39623  0.28660  1.0000
  N   N9        1.0  0.74127  0.84421  0.25207  1.0000
  N   N10       1.0  0.24127  0.65579  0.74793  1.0000
  N   N11       1.0  0.25873  0.15578  0.74792  1.0000
  N   N12       1.0  0.75873  0.34422  0.25208  1.0000
  Cl  Cl1       1.0  0.73922  0.83803  0.89728  1.0000
  Cl  Cl2       1.0  0.23923  0.66197  0.10273  1.0000
  Cl  Cl3       1.0  0.26078  0.16197  0.10273  1.0000
  Cl  Cl4       1.0  0.76077  0.33803  0.89728  1.0000
  O   O1        1.0  0.81677  0.12020  0.99208  1.0000
  O   O2        1.0  0.31677  0.37981  0.00793  1.0000
  O   O3        1.0  0.18322  0.87980  0.00793  1.0000
  O   O4        1.0  0.68322  0.62019  0.99207  1.0000
