data_image0
_chemical_formula_structural       Zn2H56C36N8O8
_chemical_formula_sum              "Zn2 H56 C36 N8 O8"
_cell_length_a       8.32471
_cell_length_b       9.86096
_cell_length_c       15.11
_cell_angle_alpha    94.7669
_cell_angle_beta     101.312
_cell_angle_gamma    113.333

_space_group_name_H-M_alt    "P 1"
_space_group_IT_number       1

loop_
  _space_group_symop_operation_xyz
  'x, y, z'

loop_
  _atom_site_type_symbol
  _atom_site_label
  _atom_site_symmetry_multiplicity
  _atom_site_fract_x
  _atom_site_fract_y
  _atom_site_fract_z
  _atom_site_occupancy
  Zn  Zn1       1.0  1.00000  0.50000  0.50000  1.0000
  Zn  Zn2       1.0  0.00000  0.50001  0.00001  1.0000
  H   H1        1.0  0.69213  0.39001  0.64049  1.0000
  H   H2        1.0  0.30786  0.60998  0.35951  1.0000
  H   H3        1.0  0.51332  0.43466  0.59325  1.0000
  H   H4        1.0  0.48667  0.56533  0.40674  1.0000
  H   H5        1.0  0.47759  0.23075  0.48654  1.0000
  H   H6        1.0  0.52240  0.76924  0.51346  1.0000
  H   H7        1.0  0.57339  0.38912  0.43459  1.0000
  H   H8        1.0  0.42660  0.61086  0.56541  1.0000
  H   H9        1.0  0.78660  0.25048  0.53717  1.0000
  H   H10       1.0  0.21339  0.74951  0.46283  1.0000
  H   H11       1.0  0.67967  0.26038  0.34123  1.0000
  H   H12       1.0  0.32032  0.73960  0.65877  1.0000
  H   H13       1.0  0.63183  0.09300  0.38784  1.0000
  H   H14       1.0  0.36817  0.90699  0.61217  1.0000
  H   H15       1.0  0.96912  0.17089  0.44451  1.0000
  H   H16       1.0  0.03088  0.82911  0.55549  1.0000
  H   H17       1.0  0.89702  0.14616  0.32321  1.0000
  H   H18       1.0  0.10297  0.85383  0.67680  1.0000
  H   H19       1.0  0.99882  0.41616  0.33885  1.0000
  H   H20       1.0  0.00118  0.58384  0.66115  1.0000
  H   H21       1.0  0.75512  0.66849  0.65135  1.0000
  H   H22       1.0  0.24487  0.33150  0.34864  1.0000
  H   H23       1.0  0.73301  0.64620  0.53107  1.0000
  H   H24       1.0  0.26699  0.35379  0.46892  1.0000
  H   H25       1.0  0.65679  0.71817  0.36209  1.0000
  H   H26       1.0  0.34322  0.28183  0.63790  1.0000
  H   H27       1.0  0.52277  0.87435  0.28011  1.0000
  H   H28       1.0  0.47721  0.12564  0.71988  1.0000
  H   H29       1.0  0.64582  0.98710  0.15298  1.0000
  H   H30       1.0  0.35417  0.01290  0.84701  1.0000
  H   H31       1.0  0.88145  0.92929  0.10185  1.0000
  H   H32       1.0  0.11857  0.07073  0.89816  1.0000
  H   H33       1.0  0.36016  0.59417  0.93703  1.0000
  H   H34       1.0  0.63982  0.40582  0.06297  1.0000
  H   H35       1.0  0.49716  0.77074  0.01021  1.0000
  H   H36       1.0  0.50284  0.22925  0.98978  1.0000
  H   H37       1.0  0.29083  0.69429  0.11026  1.0000
  H   H38       1.0  0.70918  0.30571  0.88974  1.0000
  H   H39       1.0  0.51046  0.58161  0.12752  1.0000
  H   H40       1.0  0.48953  0.41838  0.87248  1.0000
  H   H41       1.0  0.34388  0.43021  0.04097  1.0000
  H   H42       1.0  0.65611  0.56979  0.95903  1.0000
  H   H43       1.0  0.36468  0.40049  0.21084  1.0000
  H   H44       1.0  0.63531  0.59950  0.78915  1.0000
  H   H45       1.0  0.27122  0.53166  0.22027  1.0000
  H   H46       1.0  0.72878  0.46833  0.77973  1.0000
  H   H47       1.0  0.08300  0.23833  0.07967  1.0000
  H   H48       1.0  0.91699  0.76166  0.92032  1.0000
  H   H49       1.0  0.05373  0.25027  0.19311  1.0000
  H   H50       1.0  0.94626  0.74972  0.80689  1.0000
  H   H51       1.0  0.94292  0.43891  0.15933  1.0000
  H   H52       1.0  0.05707  0.56109  0.84068  1.0000
  H   H53       1.0  0.29618  0.80300  0.87919  1.0000
  H   H54       1.0  0.70381  0.19700  0.12081  1.0000
  H   H55       1.0  0.22646  0.83517  0.98036  1.0000
  H   H56       1.0  0.77354  0.16483  0.01965  1.0000
  C   C1        1.0  0.64189  0.43754  0.58359  1.0000
  C   C2        1.0  0.35810  0.56245  0.41640  1.0000
  C   C3        1.0  0.60089  0.33475  0.49275  1.0000
  C   C4        1.0  0.39910  0.66523  0.50725  1.0000
  C   C5        1.0  0.73114  0.21033  0.39617  1.0000
  C   C6        1.0  0.26886  0.78966  0.60383  1.0000
  C   C7        1.0  0.91401  0.21634  0.38802  1.0000
  C   C8        1.0  0.08599  0.78365  0.61198  1.0000
  C   C9        1.0  0.77014  0.60292  0.59296  1.0000
  C   C10       1.0  0.22985  0.39707  0.40704  1.0000
  C   C11       1.0  0.87610  0.60865  0.31670  1.0000
  C   C12       1.0  0.12393  0.39137  0.68330  1.0000
  C   C13       1.0  0.82985  0.72532  0.27352  1.0000
  C   C14       1.0  0.17017  0.27469  0.72648  1.0000
  C   C15       1.0  0.70300  0.76481  0.30428  1.0000
  C   C16       1.0  0.29700  0.23519  0.69572  1.0000
  C   C17       1.0  0.63234  0.85501  0.26054  1.0000
  C   C18       1.0  0.36766  0.14499  0.73946  1.0000
  C   C19       1.0  0.69884  0.91553  0.18788  1.0000
  C   C20       1.0  0.30115  0.08447  0.81212  1.0000
  C   C21       1.0  0.83068  0.88282  0.15903  1.0000
  C   C22       1.0  0.16933  0.11720  0.84097  1.0000
  C   C23       1.0  0.89551  0.78526  0.19976  1.0000
  C   C24       1.0  0.10451  0.21477  0.80025  1.0000
  C   C25       1.0  0.02522  0.74420  0.15778  1.0000
  C   C26       1.0  0.97480  0.25583  0.84222  1.0000
  C   C27       1.0  0.35742  0.68341  0.98471  1.0000
  C   C28       1.0  0.64258  0.31659  0.01529  1.0000
  C   C29       1.0  0.36381  0.51721  0.09777  1.0000
  C   C30       1.0  0.63618  0.48279  0.90223  1.0000
  C   C31       1.0  0.27529  0.44415  0.17166  1.0000
  C   C32       1.0  0.72471  0.55585  0.82834  1.0000
  C   C33       1.0  0.08600  0.31535  0.13765  1.0000
  C   C34       1.0  0.91400  0.68465  0.86235  1.0000
  C   C35       1.0  0.23600  0.74898  0.93310  1.0000
  C   C36       1.0  0.76399  0.25102  0.06690  1.0000
  N   N1        1.0  0.75421  0.30086  0.48419  1.0000
  N   N2        1.0  0.24579  0.69913  0.51581  1.0000
  N   N3        1.0  0.04125  0.37343  0.39530  1.0000
  N   N4        1.0  0.95875  0.62656  0.60470  1.0000
  N   N5        1.0  0.28338  0.61452  0.05869  1.0000
  N   N6        1.0  0.71662  0.38548  0.94131  1.0000
  N   N7        1.0  0.94730  0.36966  0.10556  1.0000
  N   N8        1.0  0.05270  0.63034  0.89445  1.0000
  O   O1        1.0  0.90772  0.51633  0.26720  1.0000
  O   O2        1.0  0.09234  0.48371  0.73280  1.0000
  O   O3        1.0  0.87350  0.60763  0.40119  1.0000
  O   O4        1.0  0.12650  0.39237  0.59880  1.0000
  O   O5        1.0  0.95349  0.67548  0.07440  1.0000
  O   O6        1.0  0.04651  0.32451  0.92561  1.0000
  O   O7        1.0  0.18526  0.78209  0.20269  1.0000
  O   O8        1.0  0.81478  0.21798  0.79730  1.0000
