data_image0
_chemical_formula_structural       Ag8Mo8H16C24N20O26
_chemical_formula_sum              "Ag8 Mo8 H16 C24 N20 O26"
_cell_length_a       9.61646
_cell_length_b       11.1687
_cell_length_c       12.212
_cell_angle_alpha    71.9118
_cell_angle_beta     88.3569
_cell_angle_gamma    88.4887

_space_group_name_H-M_alt    "P 1"
_space_group_IT_number       1

loop_
  _space_group_symop_operation_xyz
  'x, y, z'

loop_
  _atom_site_type_symbol
  _atom_site_label
  _atom_site_symmetry_multiplicity
  _atom_site_fract_x
  _atom_site_fract_y
  _atom_site_fract_z
  _atom_site_occupancy
  Ag  Ag1       1.0  0.18768  0.01266  0.45719  1.0000
  Ag  Ag2       1.0  0.81232  0.98734  0.54281  1.0000
  Ag  Ag3       1.0  0.57651  0.99897  0.37064  1.0000
  Ag  Ag4       1.0  0.42349  0.00104  0.62936  1.0000
  Ag  Ag5       1.0  0.46469  0.39795  0.66366  1.0000
  Ag  Ag6       1.0  0.53531  0.60205  0.33634  1.0000
  Ag  Ag7       1.0  0.14912  0.61870  0.42080  1.0000
  Ag  Ag8       1.0  0.85088  0.38130  0.57920  1.0000
  Mo  Mo1       1.0  0.32941  0.92071  0.18627  1.0000
  Mo  Mo2       1.0  0.67059  0.07929  0.81373  1.0000
  Mo  Mo3       1.0  0.30289  0.11189  0.90566  1.0000
  Mo  Mo4       1.0  0.69711  0.88811  0.09434  1.0000
  Mo  Mo5       1.0  0.09093  0.85267  0.02836  1.0000
  Mo  Mo6       1.0  0.90907  0.14733  0.97164  1.0000
  Mo  Mo7       1.0  0.94413  0.93805  0.25305  1.0000
  Mo  Mo8       1.0  0.05587  0.06195  0.74695  1.0000
  H   H1        1.0  0.88844  0.62552  0.28156  1.0000
  H   H2        1.0  0.11156  0.37448  0.71844  1.0000
  H   H3        1.0  0.78685  0.51993  0.15330  1.0000
  H   H4        1.0  0.21315  0.48007  0.84670  1.0000
  H   H5        1.0  0.89686  0.31131  0.14578  1.0000
  H   H6        1.0  0.10315  0.68870  0.85422  1.0000
  H   H7        1.0  0.09351  0.22171  0.27259  1.0000
  H   H8        1.0  0.90649  0.77829  0.72741  1.0000
  H   H9        1.0  0.65586  0.35120  0.86738  1.0000
  H   H10       1.0  0.34414  0.64880  0.13262  1.0000
  H   H11       1.0  0.75651  0.45604  0.99809  1.0000
  H   H12       1.0  0.24349  0.54396  0.00191  1.0000
  H   H13       1.0  0.68802  0.68402  0.97291  1.0000
  H   H14       1.0  0.31198  0.31598  0.02709  1.0000
  H   H15       1.0  0.52660  0.79311  0.81749  1.0000
  H   H16       1.0  0.47339  0.20688  0.18251  1.0000
  C   C1        1.0  0.20752  0.32453  0.42454  1.0000
  C   C2        1.0  0.79248  0.67547  0.57546  1.0000
  C   C3        1.0  0.09518  0.37587  0.34434  1.0000
  C   C4        1.0  0.90482  0.62413  0.65566  1.0000
  C   C5        1.0  0.93130  0.53614  0.27720  1.0000
  C   C6        1.0  0.06870  0.46386  0.72280  1.0000
  C   C7        1.0  0.87548  0.47574  0.20489  1.0000
  C   C8        1.0  0.12452  0.52426  0.79511  1.0000
  C   C9        1.0  0.93473  0.36232  0.20145  1.0000
  C   C10       1.0  0.06528  0.63769  0.79855  1.0000
  C   C11       1.0  0.04614  0.31115  0.27276  1.0000
  C   C12       1.0  0.95386  0.68885  0.72724  1.0000
  C   C13       1.0  0.41041  0.68812  0.66577  1.0000
  C   C14       1.0  0.58959  0.31188  0.33423  1.0000
  C   C15       1.0  0.50675  0.63007  0.75919  1.0000
  C   C16       1.0  0.49325  0.36993  0.24081  1.0000
  C   C17       1.0  0.62911  0.44872  0.85940  1.0000
  C   C18       1.0  0.37089  0.55128  0.14060  1.0000
  C   C19       1.0  0.68423  0.50818  0.93273  1.0000
  C   C20       1.0  0.31577  0.49182  0.06727  1.0000
  C   C21       1.0  0.64733  0.63323  0.91815  1.0000
  C   C22       1.0  0.35267  0.36676  0.08185  1.0000
  C   C23       1.0  0.55676  0.69516  0.83043  1.0000
  C   C24       1.0  0.44324  0.30484  0.16957  1.0000
  N   N1        1.0  0.25524  0.20413  0.45886  1.0000
  N   N2        1.0  0.74477  0.79587  0.54114  1.0000
  N   N3        1.0  0.35512  0.20009  0.53521  1.0000
  N   N4        1.0  0.64488  0.79991  0.46479  1.0000
  N   N5        1.0  0.36641  0.31418  0.54580  1.0000
  N   N6        1.0  0.63359  0.68582  0.45420  1.0000
  N   N7        1.0  0.27632  0.39343  0.47711  1.0000
  N   N8        1.0  0.72368  0.60657  0.52289  1.0000
  N   N9        1.0  0.03963  0.48898  0.34487  1.0000
  N   N10       1.0  0.96037  0.51102  0.65513  1.0000
  N   N11       1.0  0.34838  0.62153  0.60708  1.0000
  N   N12       1.0  0.65162  0.37847  0.39292  1.0000
  N   N13       1.0  0.26472  0.70222  0.53321  1.0000
  N   N14       1.0  0.73528  0.29778  0.46679  1.0000
  N   N15       1.0  0.27435  0.81582  0.54502  1.0000
  N   N16       1.0  0.72566  0.18418  0.45498  1.0000
  N   N17       1.0  0.36640  0.80965  0.62803  1.0000
  N   N18       1.0  0.63360  0.19035  0.37197  1.0000
  N   N19       1.0  0.54311  0.50772  0.77409  1.0000
  N   N20       1.0  0.45689  0.49228  0.22591  1.0000
  O   O1        1.0  0.27795  0.89277  0.01726  1.0000
  O   O2        1.0  0.72205  0.10723  0.98274  1.0000
  O   O3        1.0  0.05014  0.86693  0.88521  1.0000
  O   O4        1.0  0.94986  0.13307  0.11479  1.0000
  O   O5        1.0  0.33789  0.76140  0.26306  1.0000
  O   O6        1.0  0.66211  0.23860  0.73694  1.0000
  O   O7        1.0  0.51651  0.93191  0.12519  1.0000
  O   O8        1.0  0.48349  0.06809  0.87481  1.0000
  O   O9        1.0  0.12596  0.92983  0.17401  1.0000
  O   O10       1.0  0.87404  0.07017  0.82599  1.0000
  O   O11       1.0  0.24681  0.04120  0.77615  1.0000
  O   O12       1.0  0.75319  0.95880  0.22385  1.0000
  O   O13       1.0  0.09038  0.69483  0.09834  1.0000
  O   O14       1.0  0.90962  0.30517  0.90166  1.0000
  O   O15       1.0  0.95149  0.78125  0.33528  1.0000
  O   O16       1.0  0.04851  0.21875  0.66472  1.0000
  O   O17       1.0  0.30053  0.27054  0.83462  1.0000
  O   O18       1.0  0.69947  0.72947  0.16538  1.0000
  O   O19       1.0  0.31507  0.10705  0.05213  1.0000
  O   O20       1.0  0.68493  0.89295  0.94787  1.0000
  O   O21       1.0  0.34932  0.99635  0.29025  1.0000
  O   O22       1.0  0.65068  0.00366  0.70975  1.0000
  O   O23       1.0  0.98109  0.01578  0.35257  1.0000
  O   O24       1.0  0.01891  0.98422  0.64743  1.0000
  O   O25       1.0  0.09025  0.08869  0.92363  1.0000
  O   O26       1.0  0.90975  0.91131  0.07637  1.0000
