data_image0
_chemical_formula_structural       Ag8Mo6H16C24N20O20
_chemical_formula_sum              "Ag8 Mo6 H16 C24 N20 O20"
_cell_length_a       7.4836
_cell_length_b       12.0058
_cell_length_c       13.1602
_cell_angle_alpha    79.324
_cell_angle_beta     77.9374
_cell_angle_gamma    87.7538

_space_group_name_H-M_alt    "P 1"
_space_group_IT_number       1

loop_
  _space_group_symop_operation_xyz
  'x, y, z'

loop_
  _atom_site_type_symbol
  _atom_site_label
  _atom_site_symmetry_multiplicity
  _atom_site_fract_x
  _atom_site_fract_y
  _atom_site_fract_z
  _atom_site_occupancy
  Ag  Ag1       1.0  0.54711  0.15414  0.34500  1.0000
  Ag  Ag2       1.0  0.45289  0.84586  0.65500  1.0000
  Ag  Ag3       1.0  0.78203  0.46542  0.39777  1.0000
  Ag  Ag4       1.0  0.21797  0.53458  0.60223  1.0000
  Ag  Ag5       1.0  0.87100  0.38668  0.65611  1.0000
  Ag  Ag6       1.0  0.12900  0.61332  0.34389  1.0000
  Ag  Ag7       1.0  0.80607  0.67839  0.80784  1.0000
  Ag  Ag8       1.0  0.19393  0.32161  0.19216  1.0000
  Mo  Mo1       1.0  0.70991  0.37761  0.13722  1.0000
  Mo  Mo2       1.0  0.29009  0.62238  0.86278  1.0000
  Mo  Mo3       1.0  0.97389  0.61166  0.08278  1.0000
  Mo  Mo4       1.0  0.02611  0.38834  0.91722  1.0000
  Mo  Mo5       1.0  0.52280  0.38340  0.92873  1.0000
  Mo  Mo6       1.0  0.47721  0.61659  0.07127  1.0000
  H   H1        1.0  0.84323  0.90616  0.62962  1.0000
  H   H2        1.0  0.15677  0.09384  0.37037  1.0000
  H   H3        1.0  0.85927  0.85283  0.94799  1.0000
  H   H4        1.0  0.14073  0.14717  0.05201  1.0000
  H   H5        1.0  0.89837  0.06014  0.94226  1.0000
  H   H6        1.0  0.10163  0.93986  0.05774  1.0000
  H   H7        1.0  0.89889  0.19445  0.77418  1.0000
  H   H8        1.0  0.10111  0.80556  0.22581  1.0000
  H   H9        1.0  0.31849  0.06427  0.53268  1.0000
  H   H10       1.0  0.68151  0.93573  0.46733  1.0000
  H   H11       1.0  0.42207  0.98528  0.83421  1.0000
  H   H12       1.0  0.57793  0.01472  0.16579  1.0000
  H   H13       1.0  0.41819  0.18899  0.85102  1.0000
  H   H14       1.0  0.58180  0.81101  0.14898  1.0000
  H   H15       1.0  0.37603  0.33790  0.69706  1.0000
  H   H16       1.0  0.62397  0.66210  0.30295  1.0000
  C   C1        1.0  0.84683  0.13417  0.58994  1.0000
  C   C2        1.0  0.15317  0.86583  0.41006  1.0000
  C   C3        1.0  0.86619  0.06067  0.68859  1.0000
  C   C4        1.0  0.13381  0.93933  0.31141  1.0000
  C   C5        1.0  0.85353  0.94257  0.69796  1.0000
  C   C6        1.0  0.14646  0.05743  0.30204  1.0000
  C   C7        1.0  0.86447  0.91326  0.87504  1.0000
  C   C8        1.0  0.13553  0.08674  0.12496  1.0000
  C   C9        1.0  0.88512  0.02867  0.87177  1.0000
  C   C10       1.0  0.11488  0.97133  0.12823  1.0000
  C   C11       1.0  0.88580  0.10355  0.77768  1.0000
  C   C12       1.0  0.11421  0.89645  0.22232  1.0000
  C   C13       1.0  0.31157  0.29246  0.50815  1.0000
  C   C14       1.0  0.68843  0.70754  0.49185  1.0000
  C   C15       1.0  0.34570  0.21373  0.60088  1.0000
  C   C16       1.0  0.65430  0.78627  0.39912  1.0000
  C   C17       1.0  0.34646  0.09701  0.59980  1.0000
  C   C18       1.0  0.65355  0.90299  0.40020  1.0000
  C   C19       1.0  0.40017  0.05237  0.76969  1.0000
  C   C20       1.0  0.59984  0.94763  0.23031  1.0000
  C   C21       1.0  0.39756  0.16612  0.77814  1.0000
  C   C22       1.0  0.60244  0.83388  0.22187  1.0000
  C   C23       1.0  0.37277  0.24830  0.69251  1.0000
  C   C24       1.0  0.62724  0.75171  0.30749  1.0000
  N   N1        1.0  0.85566  0.24862  0.56924  1.0000
  N   N2        1.0  0.14434  0.75138  0.43075  1.0000
  N   N3        1.0  0.81577  0.28007  0.47266  1.0000
  N   N4        1.0  0.18423  0.71993  0.52734  1.0000
  N   N5        1.0  0.78495  0.18827  0.43659  1.0000
  N   N6        1.0  0.21505  0.81173  0.56341  1.0000
  N   N7        1.0  0.80371  0.09591  0.50804  1.0000
  N   N8        1.0  0.19629  0.90409  0.49196  1.0000
  N   N9        1.0  0.85120  0.87026  0.78917  1.0000
  N   N10       1.0  0.14880  0.12974  0.21083  1.0000
  N   N11       1.0  0.24388  0.39851  0.50540  1.0000
  N   N12       1.0  0.75611  0.60149  0.49460  1.0000
  N   N13       1.0  0.21476  0.43279  0.40647  1.0000
  N   N14       1.0  0.78523  0.56721  0.59353  1.0000
  N   N15       1.0  0.26520  0.35275  0.35084  1.0000
  N   N16       1.0  0.73480  0.64725  0.64916  1.0000
  N   N17       1.0  0.32875  0.26416  0.41181  1.0000
  N   N18       1.0  0.67126  0.73584  0.58819  1.0000
  N   N19       1.0  0.37679  0.01859  0.68126  1.0000
  N   N20       1.0  0.62321  0.98141  0.31874  1.0000
  O   O1        1.0  0.94965  0.75530  0.06711  1.0000
  O   O2        1.0  0.05035  0.24470  0.93289  1.0000
  O   O3        1.0  0.47224  0.24445  0.98429  1.0000
  O   O4        1.0  0.52776  0.75555  0.01571  1.0000
  O   O5        1.0  0.67508  0.40876  0.26418  1.0000
  O   O6        1.0  0.32492  0.59124  0.73582  1.0000
  O   O7        1.0  0.60682  0.38104  0.79646  1.0000
  O   O8        1.0  0.39318  0.61896  0.20354  1.0000
  O   O9        1.0  0.69667  0.23184  0.15593  1.0000
  O   O10       1.0  0.30333  0.76816  0.84407  1.0000
  O   O11       1.0  0.72975  0.57259  0.07821  1.0000
  O   O12       1.0  0.27025  0.42741  0.92179  1.0000
  O   O13       1.0  0.97339  0.57155  0.21806  1.0000
  O   O14       1.0  0.02660  0.42845  0.78194  1.0000
  O   O15       1.0  0.03091  0.59201  0.91561  1.0000
  O   O16       1.0  0.96909  0.40799  0.08439  1.0000
  O   O17       1.0  0.76271  0.39755  0.96100  1.0000
  O   O18       1.0  0.23729  0.60245  0.03900  1.0000
  O   O19       1.0  0.51923  0.57468  0.90607  1.0000
  O   O20       1.0  0.48077  0.42532  0.09393  1.0000
