data_image0
_chemical_formula_structural       Ag8Mo8H12C20N24O26
_chemical_formula_sum              "Ag8 Mo8 H12 C20 N24 O26"
_cell_length_a       9.72017
_cell_length_b       10.1494
_cell_length_c       13.1466
_cell_angle_alpha    102.072
_cell_angle_beta     93.7938
_cell_angle_gamma    111.183

_space_group_name_H-M_alt    "P 1"
_space_group_IT_number       1

loop_
  _space_group_symop_operation_xyz
  'x, y, z'

loop_
  _atom_site_type_symbol
  _atom_site_label
  _atom_site_symmetry_multiplicity
  _atom_site_fract_x
  _atom_site_fract_y
  _atom_site_fract_z
  _atom_site_occupancy
  Ag  Ag1       1.0  0.29100  0.26623  0.28444  1.0000
  Ag  Ag2       1.0  0.70901  0.73377  0.71556  1.0000
  Ag  Ag3       1.0  0.36934  0.85191  0.76215  1.0000
  Ag  Ag4       1.0  0.63066  0.14810  0.23785  1.0000
  Ag  Ag5       1.0  0.92748  0.51431  0.67307  1.0000
  Ag  Ag6       1.0  0.07252  0.48569  0.32694  1.0000
  Ag  Ag7       1.0  0.74105  0.60103  0.37045  1.0000
  Ag  Ag8       1.0  0.25895  0.39897  0.62955  1.0000
  Mo  Mo1       1.0  0.43539  0.52745  0.12005  1.0000
  Mo  Mo2       1.0  0.56461  0.47255  0.87995  1.0000
  Mo  Mo3       1.0  0.21690  0.57715  0.92271  1.0000
  Mo  Mo4       1.0  0.78310  0.42285  0.07729  1.0000
  Mo  Mo5       1.0  0.09177  0.28664  0.03516  1.0000
  Mo  Mo6       1.0  0.90822  0.71336  0.96484  1.0000
  Mo  Mo7       1.0  0.56542  0.80684  0.99377  1.0000
  Mo  Mo8       1.0  0.43458  0.19316  0.00622  1.0000
  H   H1        1.0  0.91073  0.30087  0.82160  1.0000
  H   H2        1.0  0.08927  0.69913  0.17840  1.0000
  H   H3        1.0  0.72163  0.07116  0.85084  1.0000
  H   H4        1.0  0.27837  0.92884  0.14916  1.0000
  H   H5        1.0  0.42134  0.05691  0.60474  1.0000
  H   H6        1.0  0.57866  0.94309  0.39526  1.0000
  H   H7        1.0  0.75868  0.81157  0.22000  1.0000
  H   H8        1.0  0.24132  0.18843  0.78000  1.0000
  H   H9        1.0  0.94604  0.04263  0.19137  1.0000
  H   H10       1.0  0.05396  0.95737  0.80863  1.0000
  H   H11       1.0  0.24483  0.06360  0.44148  1.0000
  H   H12       1.0  0.75517  0.93640  0.55852  1.0000
  C   C1        1.0  0.63592  0.23877  0.63547  1.0000
  C   C2        1.0  0.36408  0.76123  0.36453  1.0000
  C   C3        1.0  0.80113  0.24709  0.77296  1.0000
  C   C4        1.0  0.19887  0.75291  0.22705  1.0000
  C   C5        1.0  0.69657  0.11975  0.78936  1.0000
  C   C6        1.0  0.30343  0.88025  0.21065  1.0000
  C   C7        1.0  0.53148  0.11166  0.65304  1.0000
  C   C8        1.0  0.46853  0.88834  0.34696  1.0000
  C   C9        1.0  0.59958  0.29751  0.55007  1.0000
  C   C10       1.0  0.40042  0.70249  0.44994  1.0000
  C   C11       1.0  0.03220  0.87814  0.40878  1.0000
  C   C12       1.0  0.96780  0.12186  0.59122  1.0000
  C   C13       1.0  0.86761  0.86671  0.26951  1.0000
  C   C14       1.0  0.13239  0.13329  0.73049  1.0000
  C   C15       1.0  0.97130  0.99508  0.25345  1.0000
  C   C16       1.0  0.02870  0.00492  0.74655  1.0000
  C   C17       1.0  0.13543  0.00658  0.39207  1.0000
  C   C18       1.0  0.86457  0.99342  0.60793  1.0000
  C   C19       1.0  0.06862  0.81948  0.49442  1.0000
  C   C20       1.0  0.93138  0.18053  0.50558  1.0000
  N   N1        1.0  0.77225  0.30661  0.69621  1.0000
  N   N2        1.0  0.22775  0.69339  0.30379  1.0000
  N   N3        1.0  0.56189  0.05237  0.72913  1.0000
  N   N4        1.0  0.43812  0.94764  0.27088  1.0000
  N   N5        1.0  0.47167  0.23293  0.48045  1.0000
  N   N6        1.0  0.52832  0.76707  0.51955  1.0000
  N   N7        1.0  0.48611  0.31825  0.41419  1.0000
  N   N8        1.0  0.51389  0.68175  0.58582  1.0000
  N   N9        1.0  0.61788  0.43106  0.44327  1.0000
  N   N10       1.0  0.38212  0.56894  0.55674  1.0000
  N   N11       1.0  0.69074  0.42034  0.52852  1.0000
  N   N12       1.0  0.30926  0.57966  0.47149  1.0000
  N   N13       1.0  0.89706  0.80754  0.34629  1.0000
  N   N14       1.0  0.10294  0.19246  0.65370  1.0000
  N   N15       1.0  0.10521  0.06435  0.31457  1.0000
  N   N16       1.0  0.89479  0.93565  0.68543  1.0000
  N   N17       1.0  0.19540  0.88476  0.56513  1.0000
  N   N18       1.0  0.80460  0.11524  0.43487  1.0000
  N   N19       1.0  0.18139  0.79765  0.63021  1.0000
  N   N20       1.0  0.81861  0.20235  0.36979  1.0000
  N   N21       1.0  0.05102  0.68363  0.59961  1.0000
  N   N22       1.0  0.94898  0.31637  0.40039  1.0000
  N   N23       1.0  0.97857  0.69468  0.51433  1.0000
  N   N24       1.0  0.02143  0.30532  0.48567  1.0000
  O   O1        1.0  0.42913  0.55787  0.94139  1.0000
  O   O2        1.0  0.57087  0.44213  0.05860  1.0000
  O   O3        1.0  0.24870  0.52946  0.08728  1.0000
  O   O4        1.0  0.75129  0.47054  0.91272  1.0000
  O   O5        1.0  0.29550  0.29661  0.02871  1.0000
  O   O6        1.0  0.70450  0.70339  0.97129  1.0000
  O   O7        1.0  0.43757  0.49358  0.24384  1.0000
  O   O8        1.0  0.56243  0.50641  0.75616  1.0000
  O   O9        1.0  0.55085  0.71344  0.14082  1.0000
  O   O10       1.0  0.44914  0.28656  0.85918  1.0000
  O   O11       1.0  0.93735  0.37074  0.04208  1.0000
  O   O12       1.0  0.06265  0.62926  0.95792  1.0000
  O   O13       1.0  0.12772  0.38098  0.89953  1.0000
  O   O14       1.0  0.87228  0.61903  0.10047  1.0000
  O   O15       1.0  0.36484  0.77292  0.00277  1.0000
  O   O16       1.0  0.63515  0.22708  0.99723  1.0000
  O   O17       1.0  0.22881  0.60019  0.79592  1.0000
  O   O18       1.0  0.77119  0.39981  0.20407  1.0000
  O   O19       1.0  0.98522  0.11674  0.95923  1.0000
  O   O20       1.0  0.01478  0.88326  0.04077  1.0000
  O   O21       1.0  0.09286  0.27313  0.16612  1.0000
  O   O22       1.0  0.90714  0.72687  0.83388  1.0000
  O   O23       1.0  0.56870  0.83827  0.86746  1.0000
  O   O24       1.0  0.43130  0.16173  0.13254  1.0000
  O   O25       1.0  0.66845  0.97310  0.07988  1.0000
  O   O26       1.0  0.33155  0.02690  0.92012  1.0000
