data_image0
_chemical_formula_structural       Y2H30C30N2O16
_chemical_formula_sum              "Y2 H30 C30 N2 O16"
_cell_length_a       8.5808
_cell_length_b       10.2185
_cell_length_c       10.9196
_cell_angle_alpha    64.233
_cell_angle_beta     71.0714
_cell_angle_gamma    79.9085

_space_group_name_H-M_alt    "P 1"
_space_group_IT_number       1

loop_
  _space_group_symop_operation_xyz
  'x, y, z'

loop_
  _atom_site_type_symbol
  _atom_site_label
  _atom_site_symmetry_multiplicity
  _atom_site_fract_x
  _atom_site_fract_y
  _atom_site_fract_z
  _atom_site_occupancy
  Y   Y1        1.0  0.63764  0.94129  0.65179  1.0000
  Y   Y2        1.0  0.36236  0.05870  0.34822  1.0000
  H   H1        1.0  0.43992  0.25743  0.70094  1.0000
  H   H2        1.0  0.56007  0.74256  0.29906  1.0000
  H   H3        1.0  0.49723  0.53432  0.26135  1.0000
  H   H4        1.0  0.50277  0.46567  0.73865  1.0000
  H   H5        1.0  0.05213  0.83089  0.88181  1.0000
  H   H6        1.0  0.94787  0.16912  0.11819  1.0000
  H   H7        1.0  0.23449  0.12993  0.97827  1.0000
  H   H8        1.0  0.76550  0.87008  0.02173  1.0000
  H   H9        1.0  0.70664  0.56756  0.08875  1.0000
  H   H10       1.0  0.29338  0.43244  0.91125  1.0000
  H   H11       1.0  0.15087  0.63426  0.74644  1.0000
  H   H12       1.0  0.84915  0.36574  0.25355  1.0000
  H   H13       1.0  0.64088  0.16174  0.83146  1.0000
  H   H14       1.0  0.35912  0.83826  0.16854  1.0000
  H   H15       1.0  0.70351  0.32161  0.88923  1.0000
  H   H16       1.0  0.29649  0.67840  0.11077  1.0000
  H   H17       1.0  0.79872  0.47225  0.73386  1.0000
  H   H18       1.0  0.20128  0.52775  0.26613  1.0000
  H   H19       1.0  0.91692  0.34905  0.84948  1.0000
  H   H20       1.0  0.08308  0.65096  0.15052  1.0000
  H   H21       1.0  0.04007  0.20103  0.57727  1.0000
  H   H22       1.0  0.95993  0.79898  0.42273  1.0000
  H   H23       1.0  0.11583  0.27998  0.66418  1.0000
  H   H24       1.0  0.88417  0.72002  0.33581  1.0000
  H   H25       1.0  0.02040  0.39267  0.52780  1.0000
  H   H26       1.0  0.97960  0.60733  0.47220  1.0000
  H   H27       1.0  0.76241  0.08037  0.34440  1.0000
  H   H28       1.0  0.23759  0.91963  0.65559  1.0000
  H   H29       1.0  0.91654  0.09665  0.38944  1.0000
  H   H30       1.0  0.08346  0.90335  0.61056  1.0000
  C   C1        1.0  0.43273  0.26145  0.45158  1.0000
  C   C2        1.0  0.56727  0.73853  0.54842  1.0000
  C   C3        1.0  0.46698  0.38379  0.47798  1.0000
  C   C4        1.0  0.53302  0.61619  0.52203  1.0000
  C   C5        1.0  0.46706  0.36367  0.61333  1.0000
  C   C6        1.0  0.53293  0.63631  0.38668  1.0000
  C   C7        1.0  0.49911  0.52068  0.36544  1.0000
  C   C8        1.0  0.50089  0.47931  0.63456  1.0000
  C   C9        1.0  0.32792  0.95562  0.83634  1.0000
  C   C10       1.0  0.67208  0.04438  0.16367  1.0000
  C   C11       1.0  0.15864  0.97911  0.92051  1.0000
  C   C12       1.0  0.84135  0.02090  0.07948  1.0000
  C   C13       1.0  0.02724  0.90538  0.93339  1.0000
  C   C14       1.0  0.97276  0.09464  0.06660  1.0000
  C   C15       1.0  0.13107  0.07439  0.98747  1.0000
  C   C16       1.0  0.86893  0.92561  0.01253  1.0000
  C   C17       1.0  0.82999  0.73501  0.81647  1.0000
  C   C18       1.0  0.17002  0.26499  0.18353  1.0000
  C   C19       1.0  0.91938  0.61292  0.90915  1.0000
  C   C20       1.0  0.08064  0.38708  0.09085  1.0000
  C   C21       1.0  0.83534  0.53661  0.05180  1.0000
  C   C22       1.0  0.16467  0.46340  0.94819  1.0000
  C   C23       1.0  0.08530  0.57535  0.85734  1.0000
  C   C24       1.0  0.91472  0.42465  0.14266  1.0000
  C   C25       1.0  0.75490  0.17257  0.74451  1.0000
  C   C26       1.0  0.24510  0.82744  0.25548  1.0000
  C   C27       1.0  0.81749  0.35777  0.80324  1.0000
  C   C28       1.0  0.18250  0.64223  0.19675  1.0000
  C   C29       1.0  0.01834  0.28614  0.61685  1.0000
  C   C30       1.0  0.98166  0.71386  0.38315  1.0000
  N   N1        1.0  0.85986  0.26680  0.72406  1.0000
  N   N2        1.0  0.14014  0.73320  0.27594  1.0000
  O   O1        1.0  0.47468  0.13035  0.52390  1.0000
  O   O2        1.0  0.52530  0.86963  0.47611  1.0000
  O   O3        1.0  0.36179  0.28998  0.35684  1.0000
  O   O4        1.0  0.63821  0.71002  0.64316  1.0000
  O   O5        1.0  0.35129  0.87354  0.76913  1.0000
  O   O6        1.0  0.64871  0.12645  0.23087  1.0000
  O   O7        1.0  0.44805  0.01806  0.82950  1.0000
  O   O8        1.0  0.55195  0.98193  0.17051  1.0000
  O   O9        1.0  0.90363  0.80867  0.68577  1.0000
  O   O10       1.0  0.09639  0.19133  0.31423  1.0000
  O   O11       1.0  0.67950  0.76481  0.86967  1.0000
  O   O12       1.0  0.32051  0.23518  0.13033  1.0000
  O   O13       1.0  0.78164  0.09943  0.67168  1.0000
  O   O14       1.0  0.21836  0.90057  0.32832  1.0000
  O   O15       1.0  0.81570  0.04116  0.42299  1.0000
  O   O16       1.0  0.18430  0.95884  0.57701  1.0000
