data_image0
_chemical_formula_structural       Dy2H30C30N2O16
_chemical_formula_sum              "Dy2 H30 C30 N2 O16"
_cell_length_a       8.58745
_cell_length_b       10.2019
_cell_length_c       10.9041
_cell_angle_alpha    63.9239
_cell_angle_beta     71.0161
_cell_angle_gamma    80.0547

_space_group_name_H-M_alt    "P 1"
_space_group_IT_number       1

loop_
  _space_group_symop_operation_xyz
  'x, y, z'

loop_
  _atom_site_type_symbol
  _atom_site_label
  _atom_site_symmetry_multiplicity
  _atom_site_fract_x
  _atom_site_fract_y
  _atom_site_fract_z
  _atom_site_occupancy
  Dy  Dy1       1.0  0.63619  0.93984  0.65071  1.0000
  Dy  Dy2       1.0  0.36381  0.06016  0.34929  1.0000
  H   H1        1.0  0.44095  0.25438  0.70005  1.0000
  H   H2        1.0  0.55904  0.74562  0.29994  1.0000
  H   H3        1.0  0.49716  0.53860  0.25962  1.0000
  H   H4        1.0  0.50282  0.46140  0.74038  1.0000
  H   H5        1.0  0.04972  0.83121  0.88197  1.0000
  H   H6        1.0  0.95030  0.16881  0.11802  1.0000
  H   H7        1.0  0.23608  0.12804  0.97910  1.0000
  H   H8        1.0  0.76393  0.87197  0.02089  1.0000
  H   H9        1.0  0.70784  0.56792  0.09060  1.0000
  H   H10       1.0  0.29215  0.43207  0.90942  1.0000
  H   H11       1.0  0.14892  0.63342  0.74396  1.0000
  H   H12       1.0  0.85107  0.36657  0.25605  1.0000
  H   H13       1.0  0.64043  0.15846  0.83119  1.0000
  H   H14       1.0  0.35957  0.84154  0.16880  1.0000
  H   H15       1.0  0.70121  0.31788  0.88997  1.0000
  H   H16       1.0  0.29879  0.68213  0.11002  1.0000
  H   H17       1.0  0.79679  0.47035  0.73461  1.0000
  H   H18       1.0  0.20320  0.52965  0.26538  1.0000
  H   H19       1.0  0.91399  0.34653  0.85130  1.0000
  H   H20       1.0  0.08601  0.65348  0.14869  1.0000
  H   H21       1.0  0.04395  0.19684  0.58187  1.0000
  H   H22       1.0  0.95606  0.80315  0.41814  1.0000
  H   H23       1.0  0.11386  0.28550  0.66403  1.0000
  H   H24       1.0  0.88614  0.71449  0.33599  1.0000
  H   H25       1.0  0.01893  0.38999  0.52474  1.0000
  H   H26       1.0  0.98109  0.61000  0.47526  1.0000
  H   H27       1.0  0.76364  0.08362  0.34216  1.0000
  H   H28       1.0  0.23636  0.91638  0.65784  1.0000
  H   H29       1.0  0.91695  0.09776  0.38980  1.0000
  H   H30       1.0  0.08305  0.90223  0.61020  1.0000
  C   C1        1.0  0.43270  0.26345  0.44835  1.0000
  C   C2        1.0  0.56729  0.73655  0.55165  1.0000
  C   C3        1.0  0.46753  0.38443  0.47648  1.0000
  C   C4        1.0  0.53246  0.61557  0.52351  1.0000
  C   C5        1.0  0.46759  0.36194  0.61283  1.0000
  C   C6        1.0  0.53240  0.63806  0.38717  1.0000
  C   C7        1.0  0.49916  0.52307  0.36448  1.0000
  C   C8        1.0  0.50082  0.47693  0.63551  1.0000
  C   C9        1.0  0.32717  0.95411  0.83663  1.0000
  C   C10       1.0  0.67284  0.04590  0.16337  1.0000
  C   C11       1.0  0.15840  0.97827  0.92085  1.0000
  C   C12       1.0  0.84161  0.02175  0.07914  1.0000
  C   C13       1.0  0.02602  0.90562  0.93343  1.0000
  C   C14       1.0  0.97399  0.09440  0.06656  1.0000
  C   C15       1.0  0.13213  0.07332  0.98782  1.0000
  C   C16       1.0  0.86789  0.92670  0.01217  1.0000
  C   C17       1.0  0.82933  0.73509  0.81596  1.0000
  C   C18       1.0  0.17066  0.26490  0.18405  1.0000
  C   C19       1.0  0.91898  0.61270  0.90884  1.0000
  C   C20       1.0  0.08101  0.38730  0.09118  1.0000
  C   C21       1.0  0.83603  0.53685  0.05287  1.0000
  C   C22       1.0  0.16396  0.46315  0.94714  1.0000
  C   C23       1.0  0.08417  0.57491  0.85596  1.0000
  C   C24       1.0  0.91582  0.42509  0.14406  1.0000
  C   C25       1.0  0.75457  0.17059  0.74383  1.0000
  C   C26       1.0  0.24544  0.82941  0.25616  1.0000
  C   C27       1.0  0.81555  0.35530  0.80416  1.0000
  C   C28       1.0  0.18445  0.64471  0.19583  1.0000
  C   C29       1.0  0.01830  0.28545  0.61725  1.0000
  C   C30       1.0  0.98171  0.71454  0.38275  1.0000
  N   N1        1.0  0.85927  0.26497  0.72430  1.0000
  N   N2        1.0  0.14073  0.73502  0.27570  1.0000
  O   O1        1.0  0.47243  0.13063  0.52041  1.0000
  O   O2        1.0  0.52757  0.86937  0.47959  1.0000
  O   O3        1.0  0.36308  0.29442  0.35213  1.0000
  O   O4        1.0  0.63692  0.70557  0.64786  1.0000
  O   O5        1.0  0.34982  0.87083  0.77086  1.0000
  O   O6        1.0  0.65018  0.12919  0.22914  1.0000
  O   O7        1.0  0.44785  0.01736  0.82812  1.0000
  O   O8        1.0  0.55217  0.98264  0.17187  1.0000
  O   O9        1.0  0.90207  0.80845  0.68396  1.0000
  O   O10       1.0  0.09792  0.19154  0.31605  1.0000
  O   O11       1.0  0.67964  0.76530  0.87016  1.0000
  O   O12       1.0  0.32035  0.23469  0.12984  1.0000
  O   O13       1.0  0.78169  0.09859  0.66995  1.0000
  O   O14       1.0  0.21832  0.90141  0.33005  1.0000
  O   O15       1.0  0.81567  0.04289  0.42179  1.0000
  O   O16       1.0  0.18433  0.95710  0.57821  1.0000
