data_image0
_chemical_formula_structural       Zn2H28C28N4O8
_chemical_formula_sum              "Zn2 H28 C28 N4 O8"
_cell_length_a       7.94208
_cell_length_b       9.01564
_cell_length_c       10.5565
_cell_angle_alpha    108.897
_cell_angle_beta     99.7455
_cell_angle_gamma    100.44

_space_group_name_H-M_alt    "P 1"
_space_group_IT_number       1

loop_
  _space_group_symop_operation_xyz
  'x, y, z'

loop_
  _atom_site_type_symbol
  _atom_site_label
  _atom_site_symmetry_multiplicity
  _atom_site_fract_x
  _atom_site_fract_y
  _atom_site_fract_z
  _atom_site_occupancy
  Zn  Zn1       1.0  0.83851  0.01723  0.34741  1.0000
  Zn  Zn2       1.0  0.16149  0.98276  0.65259  1.0000
  H   H1        1.0  0.35538  0.14550  0.12140  1.0000
  H   H2        1.0  0.64461  0.85450  0.87862  1.0000
  H   H3        1.0  0.51783  0.16936  0.02619  1.0000
  H   H4        1.0  0.48215  0.83064  0.97382  1.0000
  H   H5        1.0  0.53164  0.32577  0.18399  1.0000
  H   H6        1.0  0.46835  0.67423  0.81602  1.0000
  H   H7        1.0  0.67726  0.64177  0.62082  1.0000
  H   H8        1.0  0.32275  0.35823  0.37918  1.0000
  H   H9        1.0  0.58613  0.57436  0.43779  1.0000
  H   H10       1.0  0.41388  0.42564  0.56221  1.0000
  H   H11       1.0  0.51187  0.72499  0.55303  1.0000
  H   H12       1.0  0.48814  0.27501  0.44697  1.0000
  H   H13       1.0  0.65813  0.65815  0.19211  1.0000
  H   H14       1.0  0.34187  0.34184  0.80789  1.0000
  H   H15       1.0  0.64709  0.43353  0.97706  1.0000
  H   H16       1.0  0.35291  0.56647  0.02294  1.0000
  H   H17       1.0  0.05219  0.76676  0.90311  1.0000
  H   H18       1.0  0.94780  0.23325  0.09689  1.0000
  H   H19       1.0  0.04591  0.97321  0.12382  1.0000
  H   H20       1.0  0.95409  0.02680  0.87619  1.0000
  H   H21       1.0  0.03846  0.59553  0.72289  1.0000
  H   H22       1.0  0.96154  0.40446  0.27711  1.0000
  H   H23       1.0  0.01749  0.37267  0.50561  1.0000
  H   H24       1.0  0.98252  0.62733  0.49438  1.0000
  H   H25       1.0  0.63809  0.05637  0.58382  1.0000
  H   H26       1.0  0.36192  0.94363  0.41617  1.0000
  H   H27       1.0  0.63910  0.25731  0.80027  1.0000
  H   H28       1.0  0.36090  0.74270  0.19972  1.0000
  C   C1        1.0  0.49540  0.19360  0.13010  1.0000
  C   C2        1.0  0.50459  0.80639  0.86990  1.0000
  C   C3        1.0  0.61132  0.11882  0.20708  1.0000
  C   C4        1.0  0.38867  0.88119  0.79292  1.0000
  C   C5        1.0  0.62800  0.67861  0.53551  1.0000
  C   C6        1.0  0.37201  0.32139  0.46449  1.0000
  C   C7        1.0  0.76622  0.81045  0.52539  1.0000
  C   C8        1.0  0.23379  0.18955  0.47461  1.0000
  C   C9        1.0  0.74121  0.67579  0.12325  1.0000
  C   C10       1.0  0.25880  0.32421  0.87675  1.0000
  C   C11       1.0  0.73669  0.55137  0.00258  1.0000
  C   C12       1.0  0.26331  0.44864  0.99742  1.0000
  C   C13       1.0  0.84632  0.57884  0.91681  1.0000
  C   C14       1.0  0.15368  0.42116  0.08318  1.0000
  C   C15       1.0  0.96063  0.73452  0.96195  1.0000
  C   C16       1.0  0.03937  0.26548  0.03805  1.0000
  C   C17       1.0  0.95774  0.85201  0.08497  1.0000
  C   C18       1.0  0.04226  0.14799  0.91503  1.0000
  C   C19       1.0  0.84038  0.44972  0.78539  1.0000
  C   C20       1.0  0.15960  0.55029  0.21460  1.0000
  C   C21       1.0  0.94702  0.47814  0.69769  1.0000
  C   C22       1.0  0.05298  0.52186  0.30231  1.0000
  C   C23       1.0  0.93682  0.35360  0.57544  1.0000
  C   C24       1.0  0.06318  0.64639  0.42455  1.0000
  C   C25       1.0  0.72618  0.17659  0.61755  1.0000
  C   C26       1.0  0.27381  0.82341  0.38245  1.0000
  C   C27       1.0  0.72765  0.29401  0.74169  1.0000
  C   C28       1.0  0.27235  0.70599  0.25830  1.0000
  N   N1        1.0  0.84881  0.82501  0.16430  1.0000
  N   N2        1.0  0.15120  0.17500  0.83570  1.0000
  N   N3        1.0  0.82978  0.20411  0.53511  1.0000
  N   N4        1.0  0.17022  0.79587  0.46488  1.0000
  O   O1        1.0  0.77961  0.17129  0.23133  1.0000
  O   O2        1.0  0.22038  0.82870  0.76867  1.0000
  O   O3        1.0  0.54328  0.00782  0.24610  1.0000
  O   O4        1.0  0.45670  0.99218  0.75391  1.0000
  O   O5        1.0  0.73847  0.83613  0.41288  1.0000
  O   O6        1.0  0.26153  0.16386  0.58712  1.0000
  O   O7        1.0  0.89708  0.88587  0.62871  1.0000
  O   O8        1.0  0.10293  0.11414  0.37129  1.0000
