data_image0
_chemical_formula_structural       Zn2H28C28N4O8
_chemical_formula_sum              "Zn2 H28 C28 N4 O8"
_cell_length_a       7.93813
_cell_length_b       9.06605
_cell_length_c       10.6571
_cell_angle_alpha    109.548
_cell_angle_beta     100.172
_cell_angle_gamma    100.704

_space_group_name_H-M_alt    "P 1"
_space_group_IT_number       1

loop_
  _space_group_symop_operation_xyz
  'x, y, z'

loop_
  _atom_site_type_symbol
  _atom_site_label
  _atom_site_symmetry_multiplicity
  _atom_site_fract_x
  _atom_site_fract_y
  _atom_site_fract_z
  _atom_site_occupancy
  Zn  Zn1       1.0  0.16317  0.98261  0.65091  1.0000
  Zn  Zn2       1.0  0.83683  0.01739  0.34909  1.0000
  H   H1        1.0  0.98475  0.62444  0.49150  1.0000
  H   H2        1.0  0.01525  0.37556  0.50850  1.0000
  H   H3        1.0  0.96576  0.39978  0.27514  1.0000
  H   H4        1.0  0.03424  0.60022  0.72486  1.0000
  H   H5        1.0  0.35627  0.74446  0.19905  1.0000
  H   H6        1.0  0.64373  0.25555  0.80095  1.0000
  H   H7        1.0  0.35617  0.94616  0.41452  1.0000
  H   H8        1.0  0.64383  0.05384  0.58547  1.0000
  H   H9        1.0  0.34283  0.34397  0.81037  1.0000
  H   H10       1.0  0.65717  0.65603  0.18964  1.0000
  H   H11       1.0  0.35467  0.56777  0.02705  1.0000
  H   H12       1.0  0.64533  0.43223  0.97295  1.0000
  H   H13       1.0  0.95084  0.22914  0.09378  1.0000
  H   H14       1.0  0.04916  0.77086  0.90622  1.0000
  H   H15       1.0  0.95871  0.02262  0.87342  1.0000
  H   H16       1.0  0.04129  0.97738  0.12658  1.0000
  H   H17       1.0  0.67549  0.64148  0.61443  1.0000
  H   H18       1.0  0.32451  0.35853  0.38557  1.0000
  H   H19       1.0  0.50514  0.70595  0.52953  1.0000
  H   H20       1.0  0.49486  0.29405  0.47047  1.0000
  H   H21       1.0  0.60162  0.56272  0.43003  1.0000
  H   H22       1.0  0.39838  0.43728  0.56996  1.0000
  H   H23       1.0  0.42787  0.71634  0.89296  1.0000
  H   H24       1.0  0.57213  0.28366  0.10704  1.0000
  H   H25       1.0  0.59651  0.90391  0.96031  1.0000
  H   H26       1.0  0.40349  0.09609  0.03969  1.0000
  H   H27       1.0  0.59072  0.75398  0.80248  1.0000
  H   H28       1.0  0.40928  0.24601  0.19752  1.0000
  C   C1        1.0  0.06427  0.64406  0.42225  1.0000
  C   C2        1.0  0.93573  0.35594  0.57775  1.0000
  C   C3        1.0  0.05513  0.51880  0.30064  1.0000
  C   C4        1.0  0.94486  0.48120  0.69936  1.0000
  C   C5        1.0  0.15952  0.54898  0.21354  1.0000
  C   C6        1.0  0.84048  0.45102  0.78646  1.0000
  C   C7        1.0  0.26959  0.70656  0.25730  1.0000
  C   C8        1.0  0.73040  0.29344  0.74270  1.0000
  C   C9        1.0  0.27047  0.82435  0.38093  1.0000
  C   C10       1.0  0.72952  0.17565  0.61906  1.0000
  C   C11       1.0  0.26058  0.32501  0.87824  1.0000
  C   C12       1.0  0.73942  0.67499  0.12176  1.0000
  C   C13       1.0  0.26481  0.44896  0.99912  1.0000
  C   C14       1.0  0.73519  0.55104  0.00088  1.0000
  C   C15       1.0  0.15477  0.41969  0.08259  1.0000
  C   C16       1.0  0.84523  0.58031  0.91741  1.0000
  C   C17       1.0  0.04196  0.26236  0.03611  1.0000
  C   C18       1.0  0.95805  0.73764  0.96390  1.0000
  C   C19       1.0  0.04566  0.14518  0.91331  1.0000
  C   C20       1.0  0.95434  0.85481  0.08669  1.0000
  C   C21       1.0  0.76561  0.80730  0.51935  1.0000
  C   C22       1.0  0.23439  0.19271  0.48065  1.0000
  C   C23       1.0  0.62958  0.67051  0.52476  1.0000
  C   C24       1.0  0.37042  0.32949  0.47524  1.0000
  C   C25       1.0  0.38968  0.88085  0.78919  1.0000
  C   C26       1.0  0.61031  0.11915  0.21080  1.0000
  C   C27       1.0  0.50677  0.80819  0.86603  1.0000
  C   C28       1.0  0.49323  0.19181  0.13397  1.0000
  N   N1        1.0  0.16861  0.79539  0.46265  1.0000
  N   N2        1.0  0.83139  0.20461  0.53735  1.0000
  N   N3        1.0  0.15364  0.17442  0.83535  1.0000
  N   N4        1.0  0.84636  0.82558  0.16466  1.0000
  O   O1        1.0  0.89706  0.88396  0.62353  1.0000
  O   O2        1.0  0.10294  0.11604  0.37647  1.0000
  O   O3        1.0  0.45906  0.98533  0.74563  1.0000
  O   O4        1.0  0.54094  0.01466  0.25436  1.0000
  O   O5        1.0  0.22057  0.83418  0.76956  1.0000
  O   O6        1.0  0.77943  0.16581  0.23044  1.0000
  O   O7        1.0  0.73592  0.83464  0.40895  1.0000
  O   O8        1.0  0.26407  0.16536  0.59105  1.0000
