data_image0
_chemical_formula_structural       Cu2H36C36O8
_chemical_formula_sum              "Cu2 H36 C36 O8"
_cell_length_a       5.21874
_cell_length_b       8.74883
_cell_length_c       17.4665
_cell_angle_alpha    87.7938
_cell_angle_beta     82.5586
_cell_angle_gamma    81.9576

_space_group_name_H-M_alt    "P 1"
_space_group_IT_number       1

loop_
  _space_group_symop_operation_xyz
  'x, y, z'

loop_
  _atom_site_type_symbol
  _atom_site_label
  _atom_site_symmetry_multiplicity
  _atom_site_fract_x
  _atom_site_fract_y
  _atom_site_fract_z
  _atom_site_occupancy
  Cu  Cu1       1.0  0.27746  0.07107  0.99141  1.0000
  Cu  Cu2       1.0  0.72254  0.92894  0.00859  1.0000
  H   H1        1.0  0.71790  0.17482  0.66230  1.0000
  H   H2        1.0  0.28208  0.82519  0.33770  1.0000
  H   H3        1.0  0.01698  0.37554  0.92942  1.0000
  H   H4        1.0  0.98304  0.62445  0.07057  1.0000
  H   H5        1.0  0.76028  0.47277  0.99375  1.0000
  H   H6        1.0  0.23977  0.52724  0.00625  1.0000
  H   H7        1.0  0.52347  0.27218  0.79133  1.0000
  H   H8        1.0  0.47653  0.72784  0.20867  1.0000
  H   H9        1.0  0.78430  0.92438  0.74635  1.0000
  H   H10       1.0  0.21568  0.07562  0.25365  1.0000
  H   H11       1.0  0.66522  0.75182  0.77606  1.0000
  H   H12       1.0  0.33478  0.24817  0.22394  1.0000
  H   H13       1.0  0.47509  0.49355  0.88262  1.0000
  H   H14       1.0  0.52494  0.50647  0.11738  1.0000
  H   H15       1.0  0.72492  0.61292  0.87853  1.0000
  H   H16       1.0  0.27513  0.38709  0.12147  1.0000
  H   H17       1.0  0.30048  0.48168  0.65422  1.0000
  H   H18       1.0  0.69952  0.51832  0.34577  1.0000
  H   H19       1.0  0.33658  0.04851  0.72397  1.0000
  H   H20       1.0  0.66336  0.95148  0.27604  1.0000
  H   H21       1.0  0.20179  0.88977  0.76657  1.0000
  H   H22       1.0  0.79820  0.11020  0.23344  1.0000
  H   H23       1.0  0.11055  0.27680  0.59361  1.0000
  H   H24       1.0  0.88942  0.72319  0.40638  1.0000
  H   H25       1.0  0.42555  0.65977  0.45166  1.0000
  H   H26       1.0  0.57448  0.34023  0.54834  1.0000
  H   H27       1.0  0.78069  0.58191  0.53434  1.0000
  H   H28       1.0  0.21932  0.41809  0.46567  1.0000
  H   H29       1.0  0.76595  0.69948  0.65975  1.0000
  H   H30       1.0  0.23405  0.30052  0.34025  1.0000
  H   H31       1.0  0.10577  0.57808  0.78308  1.0000
  H   H32       1.0  0.89423  0.42193  0.21691  1.0000
  H   H33       1.0  0.04126  0.97997  0.62464  1.0000
  H   H34       1.0  0.95871  0.02001  0.37537  1.0000
  H   H35       1.0  0.05537  0.86058  0.49831  1.0000
  H   H36       1.0  0.94464  0.13941  0.50169  1.0000
  C   C1        1.0  0.69117  0.25357  0.96291  1.0000
  C   C2        1.0  0.30884  0.74644  0.03708  1.0000
  C   C3        1.0  0.80599  0.26181  0.68921  1.0000
  C   C4        1.0  0.19400  0.73819  0.31079  1.0000
  C   C5        1.0  0.80422  0.40163  0.94176  1.0000
  C   C6        1.0  0.19580  0.59838  0.05824  1.0000
  C   C7        1.0  0.69616  0.31663  0.76186  1.0000
  C   C8        1.0  0.30385  0.68337  0.23814  1.0000
  C   C9        1.0  0.56935  0.92787  0.85798  1.0000
  C   C10       1.0  0.43063  0.07213  0.14202  1.0000
  C   C11       1.0  0.60988  0.87772  0.77464  1.0000
  C   C12       1.0  0.39009  0.12228  0.22536  1.0000
  C   C13       1.0  0.80251  0.43129  0.79645  1.0000
  C   C14       1.0  0.19749  0.56873  0.20355  1.0000
  C   C15       1.0  0.68766  0.49323  0.87465  1.0000
  C   C16       1.0  0.31237  0.50678  0.12534  1.0000
  C   C17       1.0  0.13185  0.43394  0.68411  1.0000
  C   C18       1.0  0.86814  0.56606  0.31589  1.0000
  C   C19       1.0  0.37642  0.92207  0.73062  1.0000
  C   C20       1.0  0.62356  0.07791  0.26938  1.0000
  C   C21       1.0  0.02423  0.31987  0.65022  1.0000
  C   C22       1.0  0.97576  0.68012  0.34978  1.0000
  C   C23       1.0  0.42010  0.71326  0.50726  1.0000
  C   C24       1.0  0.57990  0.28673  0.49274  1.0000
  C   C25       1.0  0.61746  0.66956  0.55358  1.0000
  C   C26       1.0  0.38256  0.33045  0.44642  1.0000
  C   C27       1.0  0.60798  0.73680  0.62536  1.0000
  C   C28       1.0  0.39202  0.26319  0.37464  1.0000
  C   C29       1.0  0.02202  0.48825  0.75681  1.0000
  C   C30       1.0  0.97799  0.51175  0.24318  1.0000
  C   C31       1.0  0.40094  0.84929  0.65229  1.0000
  C   C32       1.0  0.59905  0.15071  0.34771  1.0000
  C   C33       1.0  0.20453  0.89283  0.60472  1.0000
  C   C34       1.0  0.79546  0.10716  0.39528  1.0000
  C   C35       1.0  0.21324  0.82594  0.53320  1.0000
  C   C36       1.0  0.78676  0.17405  0.46681  1.0000
  O   O1        1.0  0.35614  0.01106  0.88187  1.0000
  O   O2        1.0  0.64385  0.98894  0.11814  1.0000
  O   O3        1.0  0.75479  0.87931  0.89777  1.0000
  O   O4        1.0  0.24520  0.12070  0.10223  1.0000
  O   O5        1.0  0.44611  0.25791  0.96380  1.0000
  O   O6        1.0  0.55389  0.74208  0.03620  1.0000
  O   O7        1.0  0.84632  0.13448  0.98045  1.0000
  O   O8        1.0  0.15368  0.86554  0.01955  1.0000
