data_image0
_chemical_formula_structural       Cd4H24C40N16O16
_chemical_formula_sum              "Cd4 H24 C40 N16 O16"
_cell_length_a       7.99955
_cell_length_b       9.1725
_cell_length_c       15.8054
_cell_angle_alpha    90
_cell_angle_beta     104.398
_cell_angle_gamma    89.9999

_space_group_name_H-M_alt    "P 1"
_space_group_IT_number       1

loop_
  _space_group_symop_operation_xyz
  'x, y, z'

loop_
  _atom_site_type_symbol
  _atom_site_label
  _atom_site_symmetry_multiplicity
  _atom_site_fract_x
  _atom_site_fract_y
  _atom_site_fract_z
  _atom_site_occupancy
  Cd  Cd1       1.0  0.43010  0.50390  0.37808  1.0000
  Cd  Cd2       1.0  0.56990  0.00390  0.12192  1.0000
  Cd  Cd3       1.0  0.56990  0.49609  0.62192  1.0000
  Cd  Cd4       1.0  0.43010  0.99610  0.87808  1.0000
  H   H1        1.0  0.16723  0.99944  0.11512  1.0000
  H   H2        1.0  0.83278  0.49944  0.38488  1.0000
  H   H3        1.0  0.83277  0.00056  0.88488  1.0000
  H   H4        1.0  0.16722  0.50056  0.61512  1.0000
  H   H5        1.0  0.55589  0.27537  0.24836  1.0000
  H   H6        1.0  0.44411  0.77537  0.25164  1.0000
  H   H7        1.0  0.44411  0.72462  0.75164  1.0000
  H   H8        1.0  0.55589  0.22462  0.74836  1.0000
  H   H9        1.0  0.34834  0.88934  0.37530  1.0000
  H   H10       1.0  0.65167  0.38934  0.12470  1.0000
  H   H11       1.0  0.65167  0.11066  0.62470  1.0000
  H   H12       1.0  0.34833  0.61066  0.87530  1.0000
  H   H13       1.0  0.11983  0.25886  0.44820  1.0000
  H   H14       1.0  0.88017  0.75886  0.05180  1.0000
  H   H15       1.0  0.88017  0.74114  0.55179  1.0000
  H   H16       1.0  0.11983  0.24114  0.94820  1.0000
  H   H17       1.0  0.23393  0.91983  0.62717  1.0000
  H   H18       1.0  0.76607  0.41983  0.87283  1.0000
  H   H19       1.0  0.76607  0.08017  0.37283  1.0000
  H   H20       1.0  0.23393  0.58017  0.12717  1.0000
  H   H21       1.0  0.05756  0.35248  0.27307  1.0000
  H   H22       1.0  0.94243  0.85248  0.22694  1.0000
  H   H23       1.0  0.94244  0.64752  0.72693  1.0000
  H   H24       1.0  0.05756  0.14752  0.77307  1.0000
  C   C1        1.0  0.38532  0.73738  0.53067  1.0000
  C   C2        1.0  0.61468  0.23737  0.96933  1.0000
  C   C3        1.0  0.61468  0.26263  0.46933  1.0000
  C   C4        1.0  0.38532  0.76262  0.03067  1.0000
  C   C5        1.0  0.30477  0.88277  0.50503  1.0000
  C   C6        1.0  0.69523  0.38276  0.99497  1.0000
  C   C7        1.0  0.69523  0.11723  0.49497  1.0000
  C   C8        1.0  0.30477  0.61724  0.00503  1.0000
  C   C9        1.0  0.29840  0.94731  0.42412  1.0000
  C   C10       1.0  0.70160  0.44732  0.07588  1.0000
  C   C11       1.0  0.70160  0.05269  0.57588  1.0000
  C   C12       1.0  0.29840  0.55268  0.92412  1.0000
  C   C13       1.0  0.17188  0.14927  0.46443  1.0000
  C   C14       1.0  0.82812  0.64927  0.03557  1.0000
  C   C15       1.0  0.82812  0.85073  0.53557  1.0000
  C   C16       1.0  0.17188  0.35073  0.96443  1.0000
  C   C17       1.0  0.23576  0.96439  0.56319  1.0000
  C   C18       1.0  0.76425  0.46439  0.93681  1.0000
  C   C19       1.0  0.76425  0.03561  0.43681  1.0000
  C   C20       1.0  0.23576  0.53561  0.06319  1.0000
  C   C21       1.0  0.89836  0.12568  0.17000  1.0000
  C   C22       1.0  0.10165  0.62569  0.33000  1.0000
  C   C23       1.0  0.10164  0.87432  0.83000  1.0000
  C   C24       1.0  0.89835  0.37432  0.66999  1.0000
  C   C25       1.0  0.08358  0.17148  0.18962  1.0000
  C   C26       1.0  0.91642  0.67147  0.31038  1.0000
  C   C27       1.0  0.91642  0.82852  0.81038  1.0000
  C   C28       1.0  0.08358  0.32852  0.68962  1.0000
  C   C29       1.0  0.20384  0.09395  0.15747  1.0000
  C   C30       1.0  0.79616  0.59395  0.34253  1.0000
  C   C31       1.0  0.79616  0.90605  0.84253  1.0000
  C   C32       1.0  0.20384  0.40605  0.65747  1.0000
  C   C33       1.0  0.41907  0.24755  0.23072  1.0000
  C   C34       1.0  0.58093  0.74755  0.26928  1.0000
  C   C35       1.0  0.58093  0.75245  0.76928  1.0000
  C   C36       1.0  0.41907  0.25245  0.73072  1.0000
  C   C37       1.0  0.14451  0.28932  0.24417  1.0000
  C   C38       1.0  0.85549  0.78932  0.25583  1.0000
  C   C39       1.0  0.85549  0.71068  0.75583  1.0000
  C   C40       1.0  0.14451  0.21068  0.74417  1.0000
  N   N1        1.0  0.31121  0.32851  0.26373  1.0000
  N   N2        1.0  0.68879  0.82851  0.23627  1.0000
  N   N3        1.0  0.68879  0.67149  0.73627  1.0000
  N   N4        1.0  0.31121  0.17149  0.76373  1.0000
  N   N5        1.0  0.37161  0.13150  0.17905  1.0000
  N   N6        1.0  0.62839  0.63151  0.32095  1.0000
  N   N7        1.0  0.62839  0.86849  0.82095  1.0000
  N   N8        1.0  0.37161  0.36850  0.67905  1.0000
  N   N9        1.0  0.23004  0.07961  0.40273  1.0000
  N   N10       1.0  0.76996  0.57961  0.09727  1.0000
  N   N11       1.0  0.76996  0.92039  0.59727  1.0000
  N   N12       1.0  0.23004  0.42039  0.90273  1.0000
  N   N13       1.0  0.17122  0.09850  0.54390  1.0000
  N   N14       1.0  0.82878  0.59850  0.95610  1.0000
  N   N15       1.0  0.82878  0.90150  0.45610  1.0000
  N   N16       1.0  0.17122  0.40150  0.04390  1.0000
  O   O1        1.0  0.49079  0.68498  0.48941  1.0000
  O   O2        1.0  0.50921  0.18498  0.01060  1.0000
  O   O3        1.0  0.50921  0.31502  0.51059  1.0000
  O   O4        1.0  0.49079  0.81502  0.98940  1.0000
  O   O5        1.0  0.35141  0.67478  0.59614  1.0000
  O   O6        1.0  0.64858  0.17478  0.90386  1.0000
  O   O7        1.0  0.64859  0.32522  0.40386  1.0000
  O   O8        1.0  0.35142  0.82522  0.09614  1.0000
  O   O9        1.0  0.84979  0.02940  0.10991  1.0000
  O   O10       1.0  0.15021  0.52940  0.39009  1.0000
  O   O11       1.0  0.15021  0.97060  0.89009  1.0000
  O   O12       1.0  0.84978  0.47060  0.60991  1.0000
  O   O13       1.0  0.80195  0.18054  0.21398  1.0000
  O   O14       1.0  0.19805  0.68054  0.28602  1.0000
  O   O15       1.0  0.19805  0.81946  0.78602  1.0000
  O   O16       1.0  0.80195  0.31946  0.71398  1.0000
