data_image0
_chemical_formula_structural       H20Pb4C28N4O20
_chemical_formula_sum              "H20 Pb4 C28 N4 O20"
_cell_length_a       6.59542
_cell_length_b       10.9398
_cell_length_c       11.3482
_cell_angle_alpha    89.9717
_cell_angle_beta     90.0094
_cell_angle_gamma    91.4792

_space_group_name_H-M_alt    "P 1"
_space_group_IT_number       1

loop_
  _space_group_symop_operation_xyz
  'x, y, z'

loop_
  _atom_site_type_symbol
  _atom_site_label
  _atom_site_symmetry_multiplicity
  _atom_site_fract_x
  _atom_site_fract_y
  _atom_site_fract_z
  _atom_site_occupancy
  H   H1        1.0  0.88974  0.16649  0.14651  1.0000
  H   H2        1.0  0.61036  0.83361  0.64634  1.0000
  H   H3        1.0  0.11023  0.83346  0.85357  1.0000
  H   H4        1.0  0.38986  0.16638  0.35356  1.0000
  H   H5        1.0  0.88348  0.39172  0.10506  1.0000
  H   H6        1.0  0.61687  0.60841  0.60501  1.0000
  H   H7        1.0  0.11645  0.60822  0.89497  1.0000
  H   H8        1.0  0.38360  0.39157  0.39493  1.0000
  H   H9        1.0  0.83730  0.45127  0.47997  1.0000
  H   H10       1.0  0.66274  0.54867  0.97999  1.0000
  H   H11       1.0  0.16301  0.54878  0.52006  1.0000
  H   H12       1.0  0.33708  0.45135  0.01999  1.0000
  H   H13       1.0  0.32911  0.25304  0.59656  1.0000
  H   H14       1.0  0.17061  0.74710  0.09653  1.0000
  H   H15       1.0  0.67066  0.74707  0.40341  1.0000
  H   H16       1.0  0.82917  0.25297  0.90352  1.0000
  H   H17       1.0  0.34231  0.11204  0.55624  1.0000
  H   H18       1.0  0.15751  0.88813  0.05626  1.0000
  H   H19       1.0  0.65754  0.88805  0.44377  1.0000
  H   H20       1.0  0.84222  0.11192  0.94384  1.0000
  Pb  Pb1       1.0  0.78125  0.18300  0.63016  1.0000
  Pb  Pb2       1.0  0.71821  0.81688  0.12998  1.0000
  Pb  Pb3       1.0  0.21858  0.81699  0.36989  1.0000
  Pb  Pb4       1.0  0.28113  0.18290  0.86987  1.0000
  C   C1        1.0  0.85849  0.19214  0.33402  1.0000
  C   C2        1.0  0.64154  0.80785  0.83386  1.0000
  C   C3        1.0  0.14171  0.80785  0.66607  1.0000
  C   C4        1.0  0.35851  0.19216  0.16604  1.0000
  C   C5        1.0  0.87714  0.23242  0.21763  1.0000
  C   C6        1.0  0.62298  0.76764  0.71749  1.0000
  C   C7        1.0  0.12293  0.76755  0.78244  1.0000
  C   C8        1.0  0.37722  0.23235  0.28242  1.0000
  C   C9        1.0  0.87540  0.35713  0.19499  1.0000
  C   C10       1.0  0.62481  0.64294  0.69494  1.0000
  C   C11       1.0  0.12462  0.64283  0.80505  1.0000
  C   C12       1.0  0.37548  0.35705  0.30500  1.0000
  C   C13       1.0  0.86219  0.43908  0.28934  1.0000
  C   C14       1.0  0.63793  0.56094  0.78934  1.0000
  C   C15       1.0  0.13786  0.56090  0.71068  1.0000
  C   C16       1.0  0.36221  0.43906  0.21062  1.0000
  C   C17       1.0  0.84966  0.39165  0.40354  1.0000
  C   C18       1.0  0.65040  0.60832  0.90352  1.0000
  C   C19       1.0  0.15056  0.60836  0.59650  1.0000
  C   C20       1.0  0.34955  0.39170  0.09644  1.0000
  C   C21       1.0  0.84654  0.05682  0.36106  1.0000
  C   C22       1.0  0.65335  0.94315  0.86083  1.0000
  C   C23       1.0  0.15361  0.94316  0.63905  1.0000
  C   C24       1.0  0.34667  0.05687  0.13907  1.0000
  C   C25       1.0  0.85273  0.57431  0.26655  1.0000
  C   C26       1.0  0.64730  0.42571  0.76665  1.0000
  C   C27       1.0  0.14712  0.42567  0.73342  1.0000
  C   C28       1.0  0.35282  0.57429  0.23336  1.0000
  N   N1        1.0  0.84451  0.27094  0.42452  1.0000
  N   N2        1.0  0.65551  0.72902  0.92442  1.0000
  N   N3        1.0  0.15577  0.72908  0.57555  1.0000
  N   N4        1.0  0.34441  0.27100  0.07550  1.0000
  O   O1        1.0  0.77070  0.02420  0.46070  1.0000
  O   O2        1.0  0.72907  0.97575  0.96048  1.0000
  O   O3        1.0  0.22949  0.97581  0.53943  1.0000
  O   O4        1.0  0.27085  0.02425  0.03944  1.0000
  O   O5        1.0  0.91074  0.98470  0.28361  1.0000
  O   O6        1.0  0.58909  0.01525  0.78331  1.0000
  O   O7        1.0  0.08929  0.01523  0.71651  1.0000
  O   O8        1.0  0.41098  0.98474  0.21656  1.0000
  O   O9        1.0  0.83694  0.60425  0.15845  1.0000
  O   O10       1.0  0.66308  0.39579  0.65858  1.0000
  O   O11       1.0  0.16274  0.39567  0.84152  1.0000
  O   O12       1.0  0.33710  0.60421  0.34143  1.0000
  O   O13       1.0  0.85906  0.64841  0.35314  1.0000
  O   O14       1.0  0.64085  0.35160  0.85331  1.0000
  O   O15       1.0  0.14076  0.35160  0.64680  1.0000
  O   O16       1.0  0.35917  0.64843  0.14672  1.0000
  O   O17       1.0  0.42187  0.19099  0.56487  1.0000
  O   O18       1.0  0.07787  0.80920  0.06484  1.0000
  O   O19       1.0  0.57795  0.80910  0.43518  1.0000
  O   O20       1.0  0.92189  0.19083  0.93519  1.0000
