data_image0
_chemical_formula_structural       Cu6H48C40N16O10
_chemical_formula_sum              "Cu6 H48 C40 N16 O10"
_cell_length_a       11.2594
_cell_length_b       11.2402
_cell_length_c       12.1419
_cell_angle_alpha    89.8134
_cell_angle_beta     63.0382
_cell_angle_gamma    66.9145

_space_group_name_H-M_alt    "P 1"
_space_group_IT_number       1

loop_
  _space_group_symop_operation_xyz
  'x, y, z'

loop_
  _atom_site_type_symbol
  _atom_site_label
  _atom_site_symmetry_multiplicity
  _atom_site_fract_x
  _atom_site_fract_y
  _atom_site_fract_z
  _atom_site_occupancy
  Cu  Cu1       1.0  0.46772  0.93124  0.39123  1.0000
  Cu  Cu2       1.0  0.53247  0.06825  0.60824  1.0000
  Cu  Cu3       1.0  0.45189  0.07326  0.14895  1.0000
  Cu  Cu4       1.0  0.54844  0.92680  0.85111  1.0000
  Cu  Cu5       1.0  0.14097  0.14116  0.42842  1.0000
  Cu  Cu6       1.0  0.85903  0.85971  0.57218  1.0000
  H   H1        1.0  0.04118  0.39182  0.57263  1.0000
  H   H2        1.0  0.95719  0.60921  0.42888  1.0000
  H   H3        1.0  0.72098  0.36286  0.86863  1.0000
  H   H4        1.0  0.27828  0.63790  0.13163  1.0000
  H   H5        1.0  0.92707  0.06895  0.67657  1.0000
  H   H6        1.0  0.07316  0.93286  0.32594  1.0000
  H   H7        1.0  0.05341  0.87210  0.77967  1.0000
  H   H8        1.0  0.94816  0.12740  0.22037  1.0000
  H   H9        1.0  0.35349  0.79387  0.62828  1.0000
  H   H10       1.0  0.64789  0.20387  0.36921  1.0000
  H   H11       1.0  0.58628  0.48750  0.70655  1.0000
  H   H12       1.0  0.41271  0.51275  0.29281  1.0000
  H   H13       1.0  0.77522  0.22949  0.57191  1.0000
  H   H14       1.0  0.22476  0.77092  0.42709  1.0000
  H   H15       1.0  0.30374  0.27079  0.00871  1.0000
  H   H16       1.0  0.69695  0.72824  0.99104  1.0000
  H   H17       1.0  0.77577  0.58973  0.70098  1.0000
  H   H18       1.0  0.22222  0.41087  0.30037  1.0000
  H   H19       1.0  0.81945  0.82447  0.28608  1.0000
  H   H20       1.0  0.18081  0.17394  0.71357  1.0000
  H   H21       1.0  0.00192  0.42868  0.13250  1.0000
  H   H22       1.0  0.99879  0.57054  0.86663  1.0000
  H   H23       1.0  0.79618  0.99276  0.97185  1.0000
  H   H24       1.0  0.20474  0.00879  0.02900  1.0000
  H   H25       1.0  0.46858  0.37032  0.03990  1.0000
  H   H26       1.0  0.53108  0.62976  0.95960  1.0000
  H   H27       1.0  0.56747  0.25837  0.10449  1.0000
  H   H28       1.0  0.43171  0.74238  0.89577  1.0000
  H   H29       1.0  0.99381  0.85853  0.05412  1.0000
  H   H30       1.0  0.00646  0.14185  0.94685  1.0000
  H   H31       1.0  0.90703  0.36047  0.36663  1.0000
  H   H32       1.0  0.09319  0.63982  0.63312  1.0000
  H   H33       1.0  0.47114  0.66289  0.41911  1.0000
  H   H34       1.0  0.52911  0.33593  0.58001  1.0000
  H   H35       1.0  0.80570  0.58030  0.31239  1.0000
  H   H36       1.0  0.19423  0.41949  0.68743  1.0000
  H   H37       1.0  0.69032  0.54832  0.45364  1.0000
  H   H38       1.0  0.30960  0.45107  0.54586  1.0000
  H   H39       1.0  0.72890  0.62078  0.15364  1.0000
  H   H40       1.0  0.27133  0.37926  0.84587  1.0000
  H   H41       1.0  0.53526  0.65547  0.19735  1.0000
  H   H42       1.0  0.46530  0.34351  0.80186  1.0000
  H   H43       1.0  0.73505  0.34139  0.11690  1.0000
  H   H44       1.0  0.26506  0.65814  0.88290  1.0000
  H   H45       1.0  0.84213  0.40041  0.98026  1.0000
  H   H46       1.0  0.15785  0.59938  0.01974  1.0000
  H   H47       1.0  0.33771  0.94171  0.26642  1.0000
  H   H48       1.0  0.66131  0.05922  0.73360  1.0000
  C   C1        1.0  0.69284  0.34215  0.96296  1.0000
  C   C2        1.0  0.30671  0.65826  0.03715  1.0000
  C   C3        1.0  0.67564  0.74099  0.46966  1.0000
  C   C4        1.0  0.32392  0.25859  0.53032  1.0000
  C   C5        1.0  0.04325  0.00614  0.64487  1.0000
  C   C6        1.0  0.95717  0.99484  0.35648  1.0000
  C   C7        1.0  0.60379  0.17931  0.92470  1.0000
  C   C8        1.0  0.39640  0.82065  0.07530  1.0000
  C   C9        1.0  0.10860  0.90731  0.69708  1.0000
  C   C10       1.0  0.89247  0.09246  0.30299  1.0000
  C   C11       1.0  0.26094  0.86524  0.62030  1.0000
  C   C12       1.0  0.74006  0.13372  0.37852  1.0000
  C   C13       1.0  0.70618  0.43855  0.66152  1.0000
  C   C14       1.0  0.29279  0.56186  0.33843  1.0000
  C   C15       1.0  0.80081  0.30673  0.59390  1.0000
  C   C16       1.0  0.19861  0.69377  0.40587  1.0000
  C   C17       1.0  0.22055  0.28085  0.10436  1.0000
  C   C18       1.0  0.77997  0.71862  0.89539  1.0000
  C   C19       1.0  0.79897  0.49186  0.66142  1.0000
  C   C20       1.0  0.19948  0.50874  0.33945  1.0000
  C   C21       1.0  0.78780  0.86971  0.21875  1.0000
  C   C22       1.0  0.21244  0.12958  0.78125  1.0000
  C   C23       1.0  0.06745  0.35979  0.16842  1.0000
  C   C24       1.0  0.93308  0.63976  0.83105  1.0000
  C   C25       1.0  0.77607  0.95878  0.05938  1.0000
  C   C26       1.0  0.22446  0.04201  0.94118  1.0000
  C   C27       1.0  0.57858  0.29064  0.01614  1.0000
  C   C28       1.0  0.42104  0.70970  0.98387  1.0000
  C   C29       1.0  0.87543  0.88897  0.10093  1.0000
  C   C30       1.0  0.12490  0.11123  0.89965  1.0000
  C   C31       1.0  0.01780  0.32613  0.28683  1.0000
  C   C32       1.0  0.98247  0.67394  0.71289  1.0000
  C   C33       1.0  0.58378  0.64344  0.34786  1.0000
  C   C34       1.0  0.41641  0.35586  0.65155  1.0000
  C   C35       1.0  0.69233  0.62164  0.39307  1.0000
  C   C36       1.0  0.30755  0.37796  0.60664  1.0000
  C   C37       1.0  0.61764  0.63864  0.22672  1.0000
  C   C38       1.0  0.38274  0.36078  0.77264  1.0000
  C   C39       1.0  0.75958  0.36246  0.02309  1.0000
  C   C40       1.0  0.24033  0.63743  0.97687  1.0000
  N   N1        1.0  0.15188  0.01974  0.54221  1.0000
  N   N2        1.0  0.84818  0.98112  0.45860  1.0000
  N   N3        1.0  0.64481  0.92471  0.24574  1.0000
  N   N4        1.0  0.35555  0.07465  0.75401  1.0000
  N   N5        1.0  0.93876  0.39515  0.59704  1.0000
  N   N6        1.0  0.05986  0.60562  0.40411  1.0000
  N   N7        1.0  0.28475  0.93369  0.52708  1.0000
  N   N8        1.0  0.71567  0.06590  0.47228  1.0000
  N   N9        1.0  0.94192  0.28190  0.55534  1.0000
  N   N10       1.0  0.05731  0.71882  0.44511  1.0000
  N   N11       1.0  0.13479  0.23286  0.29179  1.0000
  N   N12       1.0  0.86535  0.76740  0.70828  1.0000
  N   N13       1.0  0.63744  0.98023  0.14752  1.0000
  N   N14       1.0  0.36304  0.02008  0.85255  1.0000
  N   N15       1.0  0.25878  0.20595  0.18063  1.0000
  N   N16       1.0  0.74152  0.79399  0.81943  1.0000
  O   O1        1.0  0.57499  0.85726  0.49033  1.0000
  O   O2        1.0  0.42482  0.14234  0.50936  1.0000
  O   O3        1.0  0.67168  0.17129  0.80701  1.0000
  O   O4        1.0  0.32856  0.82873  0.19300  1.0000
  O   O5        1.0  0.54832  0.09873  0.97164  1.0000
  O   O6        1.0  0.45204  0.90113  0.02837  1.0000
  O   O7        1.0  0.76666  0.71729  0.50971  1.0000
  O   O8        1.0  0.23241  0.28243  0.49078  1.0000
  O   O9        1.0  0.34553  0.01662  0.30681  1.0000
  O   O10       1.0  0.65417  0.98376  0.69328  1.0000
