data_image0
_chemical_formula_structural       Ni2H34C38N6O8
_chemical_formula_sum              "Ni2 H34 C38 N6 O8"
_cell_length_a       9.32819
_cell_length_b       9.51382
_cell_length_c       12.8841
_cell_angle_alpha    87.9974
_cell_angle_beta     90.9028
_cell_angle_gamma    88.3311

_space_group_name_H-M_alt    "P 1"
_space_group_IT_number       1

loop_
  _space_group_symop_operation_xyz
  'x, y, z'

loop_
  _atom_site_type_symbol
  _atom_site_label
  _atom_site_symmetry_multiplicity
  _atom_site_fract_x
  _atom_site_fract_y
  _atom_site_fract_z
  _atom_site_occupancy
  Ni  Ni1       1.0  0.29223  0.75032  0.75876  1.0000
  Ni  Ni2       1.0  0.70772  0.24952  0.24109  1.0000
  H   H1        1.0  0.08060  0.96595  0.84628  1.0000
  H   H2        1.0  0.91941  0.03406  0.15363  1.0000
  H   H3        1.0  0.81820  0.01464  0.86149  1.0000
  H   H4        1.0  0.18178  0.98542  0.13852  1.0000
  H   H5        1.0  0.64625  0.83793  0.78590  1.0000
  H   H6        1.0  0.35368  0.16211  0.21411  1.0000
  H   H7        1.0  0.74906  0.62700  0.70384  1.0000
  H   H8        1.0  0.25090  0.37302  0.29620  1.0000
  H   H9        1.0  0.01927  0.59500  0.69638  1.0000
  H   H10       1.0  0.98065  0.40502  0.30361  1.0000
  H   H11       1.0  0.45402  0.00994  0.74172  1.0000
  H   H12       1.0  0.54604  0.99018  0.25823  1.0000
  H   H13       1.0  0.48302  0.20578  0.60843  1.0000
  H   H14       1.0  0.51695  0.79416  0.39144  1.0000
  H   H15       1.0  0.33385  0.20888  0.44548  1.0000
  H   H16       1.0  0.66613  0.79099  0.55449  1.0000
  H   H17       1.0  0.15386  0.01727  0.42474  1.0000
  H   H18       1.0  0.84615  0.98270  0.57523  1.0000
  H   H19       1.0  0.14184  0.82800  0.56405  1.0000
  H   H20       1.0  0.85812  0.17193  0.43587  1.0000
  H   H21       1.0  0.50078  0.52314  0.78679  1.0000
  H   H22       1.0  0.49931  0.47696  0.21328  1.0000
  H   H23       1.0  0.53522  0.30424  0.89840  1.0000
  H   H24       1.0  0.46504  0.69602  0.10184  1.0000
  H   H25       1.0  0.34953  0.24733  0.03184  1.0000
  H   H26       1.0  0.65066  0.75279  0.96829  1.0000
  H   H27       1.0  0.13973  0.41659  0.04891  1.0000
  H   H28       1.0  0.86031  0.58329  0.95103  1.0000
  H   H29       1.0  0.12336  0.63223  0.93169  1.0000
  H   H30       1.0  0.87649  0.36756  0.06829  1.0000
  H   H31       1.0  0.33880  0.47921  0.47871  1.0000
  H   H32       1.0  0.66114  0.52066  0.52126  1.0000
  H   H33       1.0  0.42242  0.97378  0.10295  1.0000
  H   H34       1.0  0.57763  0.02625  0.89714  1.0000
  C   C1        1.0  0.00321  0.89427  0.81487  1.0000
  C   C2        1.0  0.99674  0.10577  0.18513  1.0000
  C   C3        1.0  0.85594  0.92075  0.82240  1.0000
  C   C4        1.0  0.14402  0.07936  0.17756  1.0000
  C   C5        1.0  0.76259  0.82340  0.78210  1.0000
  C   C6        1.0  0.23736  0.17672  0.21788  1.0000
  C   C7        1.0  0.82006  0.70360  0.73639  1.0000
  C   C8        1.0  0.17985  0.29649  0.26359  1.0000
  C   C9        1.0  0.96852  0.68601  0.73196  1.0000
  C   C10       1.0  0.03139  0.31402  0.26805  1.0000
  C   C11       1.0  0.39126  0.01621  0.66969  1.0000
  C   C12       1.0  0.60868  0.98376  0.33030  1.0000
  C   C13       1.0  0.40537  0.12454  0.59566  1.0000
  C   C14       1.0  0.59465  0.87533  0.40428  1.0000
  C   C15       1.0  0.32065  0.12677  0.50547  1.0000
  C   C16       1.0  0.67944  0.87306  0.49447  1.0000
  C   C17       1.0  0.22283  0.02003  0.49372  1.0000
  C   C18       1.0  0.77720  0.97989  0.50626  1.0000
  C   C19       1.0  0.21483  0.91458  0.57086  1.0000
  C   C20       1.0  0.78510  0.08537  0.42914  1.0000
  C   C21       1.0  0.42274  0.49364  0.84500  1.0000
  C   C22       1.0  0.57740  0.50653  0.15511  1.0000
  C   C23       1.0  0.44038  0.37196  0.90737  1.0000
  C   C24       1.0  0.55980  0.62823  0.09277  1.0000
  C   C25       1.0  0.33775  0.34144  0.98159  1.0000
  C   C26       1.0  0.66236  0.65859  0.01844  1.0000
  C   C27       1.0  0.22119  0.43490  0.99074  1.0000
  C   C28       1.0  0.77886  0.56508  0.00924  1.0000
  C   C29       1.0  0.21016  0.55455  0.92552  1.0000
  C   C30       1.0  0.78988  0.44545  0.07449  1.0000
  C   C31       1.0  0.33957  0.88438  0.95962  1.0000
  C   C32       1.0  0.66037  0.11561  0.04031  1.0000
  C   C33       1.0  0.44347  0.96751  0.02019  1.0000
  C   C34       1.0  0.55637  0.03261  0.97983  1.0000
  C   C35       1.0  0.41403  0.60919  0.60716  1.0000
  C   C36       1.0  0.58607  0.39078  0.39283  1.0000
  C   C37       1.0  0.43442  0.51815  0.51681  1.0000
  C   C38       1.0  0.56555  0.48176  0.48321  1.0000
  N   N1        1.0  0.05890  0.77955  0.77062  1.0000
  N   N2        1.0  0.94103  0.22047  0.22943  1.0000
  N   N3        1.0  0.29842  0.91185  0.65747  1.0000
  N   N4        1.0  0.70152  0.08810  0.34254  1.0000
  N   N5        1.0  0.30898  0.58334  0.85310  1.0000
  N   N6        1.0  0.69107  0.41671  0.14692  1.0000
  O   O1        1.0  0.28324  0.62431  0.63877  1.0000
  O   O2        1.0  0.71684  0.37563  0.36123  1.0000
  O   O3        1.0  0.51972  0.66459  0.64976  1.0000
  O   O4        1.0  0.48034  0.33546  0.35026  1.0000
  O   O5        1.0  0.37327  0.86831  0.86316  1.0000
  O   O6        1.0  0.62650  0.13161  0.13678  1.0000
  O   O7        1.0  0.23187  0.83845  0.00483  1.0000
  O   O8        1.0  0.76818  0.16150  0.99522  1.0000
