data_image0
_chemical_formula_structural       Zn4H36C56N4O28
_chemical_formula_sum              "Zn4 H36 C56 N4 O28"
_cell_length_a       7.1611
_cell_length_b       13.9038
_cell_length_c       14.9915
_cell_angle_alpha    118.058
_cell_angle_beta     90
_cell_angle_gamma    90

_space_group_name_H-M_alt    "P 1"
_space_group_IT_number       1

loop_
  _space_group_symop_operation_xyz
  'x, y, z'

loop_
  _atom_site_type_symbol
  _atom_site_label
  _atom_site_symmetry_multiplicity
  _atom_site_fract_x
  _atom_site_fract_y
  _atom_site_fract_z
  _atom_site_occupancy
  Zn  Zn1       1.0  0.12314  0.31656  0.07529  1.0000
  Zn  Zn2       1.0  0.62314  0.18344  0.92471  1.0000
  Zn  Zn3       1.0  0.87687  0.68344  0.92471  1.0000
  Zn  Zn4       1.0  0.37687  0.81656  0.07529  1.0000
  H   H1        1.0  0.85724  0.34016  0.45008  1.0000
  H   H2        1.0  0.35722  0.15984  0.54993  1.0000
  H   H3        1.0  0.14275  0.65984  0.54992  1.0000
  H   H4        1.0  0.64277  0.84016  0.45008  1.0000
  H   H5        1.0  0.87478  0.46847  0.08991  1.0000
  H   H6        1.0  0.37477  0.03153  0.91009  1.0000
  H   H7        1.0  0.12523  0.53153  0.91009  1.0000
  H   H8        1.0  0.62523  0.96847  0.08991  1.0000
  H   H9        1.0  0.77698  0.37207  0.10702  1.0000
  H   H10       1.0  0.27698  0.12793  0.89297  1.0000
  H   H11       1.0  0.22302  0.62793  0.89297  1.0000
  H   H12       1.0  0.72303  0.87207  0.10703  1.0000
  H   H13       1.0  0.04109  0.40406  0.76075  1.0000
  H   H14       1.0  0.54109  0.09593  0.23924  1.0000
  H   H15       1.0  0.95891  0.59594  0.23924  1.0000
  H   H16       1.0  0.45891  0.90407  0.76076  1.0000
  H   H17       1.0  0.75664  0.14134  0.51324  1.0000
  H   H18       1.0  0.25664  0.35866  0.48675  1.0000
  H   H19       1.0  0.24336  0.85866  0.48675  1.0000
  H   H20       1.0  0.74334  0.64134  0.51325  1.0000
  H   H21       1.0  0.76025  0.03613  0.60773  1.0000
  H   H22       1.0  0.26026  0.46386  0.39226  1.0000
  H   H23       1.0  0.23975  0.96387  0.39227  1.0000
  H   H24       1.0  0.73974  0.53613  0.60773  1.0000
  H   H25       1.0  0.75871  0.99888  0.93330  1.0000
  H   H26       1.0  0.25870  0.50111  0.06670  1.0000
  H   H27       1.0  0.24131  0.00112  0.06670  1.0000
  H   H28       1.0  0.74130  0.49889  0.93331  1.0000
  H   H29       1.0  0.16622  0.83588  0.69950  1.0000
  H   H30       1.0  0.66621  0.66412  0.30050  1.0000
  H   H31       1.0  0.83379  0.16413  0.30050  1.0000
  H   H32       1.0  0.33378  0.33588  0.69951  1.0000
  H   H33       1.0  0.15123  0.99391  0.66270  1.0000
  H   H34       1.0  0.65124  0.50609  0.33729  1.0000
  H   H35       1.0  0.84877  0.00610  0.33729  1.0000
  H   H36       1.0  0.34876  0.49391  0.66272  1.0000
  C   C1        1.0  0.08381  0.31346  0.88223  1.0000
  C   C2        1.0  0.58382  0.18654  0.11777  1.0000
  C   C3        1.0  0.91619  0.68654  0.11777  1.0000
  C   C4        1.0  0.41619  0.81346  0.88223  1.0000
  C   C5        1.0  0.99140  0.26190  0.77989  1.0000
  C   C6        1.0  0.49140  0.23810  0.22011  1.0000
  C   C7        1.0  0.00860  0.73810  0.22011  1.0000
  C   C8        1.0  0.50860  0.76190  0.77989  1.0000
  C   C9        1.0  0.98284  0.32221  0.72701  1.0000
  C   C10       1.0  0.48285  0.17779  0.27299  1.0000
  C   C11       1.0  0.01716  0.67779  0.27299  1.0000
  C   C12       1.0  0.51715  0.82221  0.72701  1.0000
  C   C13       1.0  0.90434  0.27916  0.63038  1.0000
  C   C14       1.0  0.40434  0.22084  0.36962  1.0000
  C   C15       1.0  0.09566  0.72084  0.36962  1.0000
  C   C16       1.0  0.59565  0.77916  0.63038  1.0000
  C   C17       1.0  0.92011  0.34297  0.57458  1.0000
  C   C18       1.0  0.42011  0.15702  0.42542  1.0000
  C   C19       1.0  0.07989  0.65702  0.42542  1.0000
  C   C20       1.0  0.57988  0.84298  0.57458  1.0000
  C   C21       1.0  0.82184  0.17569  0.58749  1.0000
  C   C22       1.0  0.32184  0.32431  0.41250  1.0000
  C   C23       1.0  0.17816  0.82431  0.41250  1.0000
  C   C24       1.0  0.67815  0.67569  0.58750  1.0000
  C   C25       1.0  0.82613  0.11602  0.64015  1.0000
  C   C26       1.0  0.32614  0.38397  0.35984  1.0000
  C   C27       1.0  0.17387  0.88398  0.35984  1.0000
  C   C28       1.0  0.67386  0.61603  0.64016  1.0000
  C   C29       1.0  0.91352  0.15624  0.73490  1.0000
  C   C30       1.0  0.41353  0.34376  0.26510  1.0000
  C   C31       1.0  0.08648  0.84376  0.26510  1.0000
  C   C32       1.0  0.58647  0.65624  0.73490  1.0000
  C   C33       1.0  0.93501  0.07501  0.77274  1.0000
  C   C34       1.0  0.43501  0.42498  0.22725  1.0000
  C   C35       1.0  0.06499  0.92498  0.22725  1.0000
  C   C36       1.0  0.56498  0.57502  0.77275  1.0000
  C   C37       1.0  0.84491  0.99310  0.87096  1.0000
  C   C38       1.0  0.34491  0.50690  0.12904  1.0000
  C   C39       1.0  0.15510  0.00690  0.12904  1.0000
  C   C40       1.0  0.65509  0.49311  0.87097  1.0000
  C   C41       1.0  0.96333  0.90477  0.81837  1.0000
  C   C42       1.0  0.46332  0.59523  0.18162  1.0000
  C   C43       1.0  0.03667  0.09522  0.18162  1.0000
  C   C44       1.0  0.53667  0.40478  0.81839  1.0000
  C   C45       1.0  0.96712  0.80876  0.83808  1.0000
  C   C46       1.0  0.46712  0.69124  0.16192  1.0000
  C   C47       1.0  0.03287  0.19124  0.16190  1.0000
  C   C48       1.0  0.53288  0.30876  0.83810  1.0000
  C   C49       1.0  0.07318  0.90415  0.74146  1.0000
  C   C50       1.0  0.57318  0.59584  0.25853  1.0000
  C   C51       1.0  0.92682  0.09585  0.25853  1.0000
  C   C52       1.0  0.42681  0.40416  0.74148  1.0000
  C   C53       1.0  0.06182  0.99053  0.71985  1.0000
  C   C54       1.0  0.56182  0.50947  0.28015  1.0000
  C   C55       1.0  0.93820  0.00948  0.28015  1.0000
  C   C56       1.0  0.43818  0.49053  0.71986  1.0000
  N   N1        1.0  0.82736  0.07523  0.84734  1.0000
  N   N2        1.0  0.32736  0.42477  0.15265  1.0000
  N   N3        1.0  0.17264  0.92477  0.15266  1.0000
  N   N4        1.0  0.67264  0.57523  0.84735  1.0000
  O   O1        1.0  0.11233  0.25093  0.92356  1.0000
  O   O2        1.0  0.61233  0.24907  0.07644  1.0000
  O   O3        1.0  0.88767  0.74908  0.07644  1.0000
  O   O4        1.0  0.38767  0.75093  0.92357  1.0000
  O   O5        1.0  0.12498  0.41271  0.92374  1.0000
  O   O6        1.0  0.62499  0.08729  0.07626  1.0000
  O   O7        1.0  0.87502  0.58729  0.07625  1.0000
  O   O8        1.0  0.37502  0.91271  0.92375  1.0000
  O   O9        1.0  0.00984  0.42760  0.60327  1.0000
  O   O10       1.0  0.50982  0.07240  0.39674  1.0000
  O   O11       1.0  0.99015  0.57241  0.39674  1.0000
  O   O12       1.0  0.49016  0.92759  0.60326  1.0000
  O   O13       1.0  0.82723  0.29711  0.48464  1.0000
  O   O14       1.0  0.32722  0.20289  0.51537  1.0000
  O   O15       1.0  0.17277  0.70289  0.51536  1.0000
  O   O16       1.0  0.67277  0.79711  0.48464  1.0000
  O   O17       1.0  0.88076  0.82145  0.91936  1.0000
  O   O18       1.0  0.38076  0.67855  0.08063  1.0000
  O   O19       1.0  0.11924  0.17854  0.08062  1.0000
  O   O20       1.0  0.61924  0.32146  0.91938  1.0000
  O   O21       1.0  0.04575  0.72301  0.77645  1.0000
  O   O22       1.0  0.54575  0.77699  0.22355  1.0000
  O   O23       1.0  0.95427  0.27700  0.22354  1.0000
  O   O24       1.0  0.45428  0.22300  0.77646  1.0000
  O   O25       1.0  0.89306  0.41241  0.11274  1.0000
  O   O26       1.0  0.39306  0.08758  0.88726  1.0000
  O   O27       1.0  0.10694  0.58759  0.88726  1.0000
  O   O28       1.0  0.60695  0.91241  0.11274  1.0000
