data_image0
_chemical_formula_structural       Cd2H20C24S4Br4N12
_chemical_formula_sum              "Cd2 H20 C24 S4 Br4 N12"
_cell_length_a       3.86939
_cell_length_b       13.0416
_cell_length_c       16.0394
_cell_angle_alpha    84.848
_cell_angle_beta     83.0352
_cell_angle_gamma    81.4779

_space_group_name_H-M_alt    "P 1"
_space_group_IT_number       1

loop_
  _space_group_symop_operation_xyz
  'x, y, z'

loop_
  _atom_site_type_symbol
  _atom_site_label
  _atom_site_symmetry_multiplicity
  _atom_site_fract_x
  _atom_site_fract_y
  _atom_site_fract_z
  _atom_site_occupancy
  Cd  Cd1       1.0  0.88488  0.25001  0.25013  1.0000
  Cd  Cd2       1.0  0.11513  0.74998  0.74987  1.0000
  H   H1        1.0  0.49409  0.08721  0.83549  1.0000
  H   H2        1.0  0.91725  0.41323  0.66448  1.0000
  H   H3        1.0  0.50591  0.91279  0.16451  1.0000
  H   H4        1.0  0.08274  0.58678  0.33552  1.0000
  H   H5        1.0  0.69156  0.18070  0.77459  1.0000
  H   H6        1.0  0.14643  0.31979  0.72550  1.0000
  H   H7        1.0  0.30844  0.81930  0.22541  1.0000
  H   H8        1.0  0.85357  0.68022  0.27450  1.0000
  H   H9        1.0  0.43271  0.47958  0.93009  1.0000
  H   H10       1.0  0.34017  0.02044  0.57052  1.0000
  H   H11       1.0  0.56731  0.52042  0.06991  1.0000
  H   H12       1.0  0.65979  0.97955  0.42948  1.0000
  H   H13       1.0  0.61069  0.36378  0.81694  1.0000
  H   H14       1.0  0.29087  0.13666  0.68335  1.0000
  H   H15       1.0  0.38933  0.63622  0.18306  1.0000
  H   H16       1.0  0.70911  0.86334  0.31665  1.0000
  H   H17       1.0  0.13284  0.42089  0.06940  1.0000
  H   H18       1.0  0.12032  0.07877  0.43132  1.0000
  H   H19       1.0  0.86717  0.57911  0.93060  1.0000
  H   H20       1.0  0.87966  0.92123  0.56868  1.0000
  C   C1        1.0  0.13156  0.26593  0.02947  1.0000
  C   C2        1.0  0.92644  0.23407  0.47086  1.0000
  C   C3        1.0  0.86846  0.73407  0.97053  1.0000
  C   C4        1.0  0.07356  0.76593  0.52913  1.0000
  C   C5        1.0  0.22651  0.19725  0.96174  1.0000
  C   C6        1.0  0.88604  0.30295  0.53841  1.0000
  C   C7        1.0  0.77350  0.80274  0.03826  1.0000
  C   C8        1.0  0.11396  0.69706  0.46158  1.0000
  C   C9        1.0  0.40768  0.23116  0.88312  1.0000
  C   C10       1.0  0.02191  0.26916  0.61705  1.0000
  C   C11       1.0  0.59233  0.76884  0.11688  1.0000
  C   C12       1.0  0.97809  0.73084  0.38295  1.0000
  C   C13       1.0  0.47397  0.33364  0.87536  1.0000
  C   C14       1.0  0.18234  0.16664  0.62496  1.0000
  C   C15       1.0  0.52604  0.66635  0.12465  1.0000
  C   C16       1.0  0.81765  0.83337  0.37504  1.0000
  C   C17       1.0  0.37183  0.40025  0.94159  1.0000
  C   C18       1.0  0.21204  0.09982  0.55891  1.0000
  C   C19       1.0  0.62819  0.59975  0.05841  1.0000
  C   C20       1.0  0.78793  0.90019  0.44109  1.0000
  C   C21       1.0  0.20382  0.36938  0.01865  1.0000
  C   C22       1.0  0.08989  0.13050  0.48190  1.0000
  C   C23       1.0  0.79619  0.63061  0.98136  1.0000
  C   C24       1.0  0.91009  0.86950  0.51810  1.0000
  S   S1        1.0  0.94603  0.09841  0.07702  1.0000
  S   S2        1.0  0.62366  0.40177  0.42300  1.0000
  S   S3        1.0  0.05398  0.90158  0.92298  1.0000
  S   S4        1.0  0.37634  0.59823  0.57700  1.0000
  Br  Br1       1.0  0.45354  0.09641  0.26649  1.0000
  Br  Br2       1.0  0.31677  0.40371  0.23394  1.0000
  Br  Br3       1.0  0.54646  0.90359  0.73351  1.0000
  Br  Br4       1.0  0.68325  0.59628  0.76606  1.0000
  N   N1        1.0  0.97255  0.21715  0.09866  1.0000
  N   N2        1.0  0.78871  0.28280  0.40160  1.0000
  N   N3        1.0  0.02746  0.78285  0.90134  1.0000
  N   N4        1.0  0.21130  0.71720  0.59840  1.0000
  N   N5        1.0  0.13362  0.10190  0.98115  1.0000
  N   N6        1.0  0.71871  0.39841  0.51882  1.0000
  N   N7        1.0  0.86640  0.89810  0.01885  1.0000
  N   N8        1.0  0.28128  0.60160  0.48118  1.0000
  N   N9        1.0  0.49495  0.16443  0.81960  1.0000
  N   N10       1.0  0.97887  0.33601  0.68047  1.0000
  N   N11       1.0  0.50505  0.83557  0.18039  1.0000
  N   N12       1.0  0.02112  0.66400  0.31953  1.0000
