data_image0
_chemical_formula_structural       Ag8H48C56N8O16
_chemical_formula_sum              "Ag8 H48 C56 N8 O16"
_cell_length_a       7.50991
_cell_length_b       12.0131
_cell_length_c       16.314
_cell_angle_alpha    90
_cell_angle_beta     90
_cell_angle_gamma    93.7118

_space_group_name_H-M_alt    "P 1"
_space_group_IT_number       1

loop_
  _space_group_symop_operation_xyz
  'x, y, z'

loop_
  _atom_site_type_symbol
  _atom_site_label
  _atom_site_symmetry_multiplicity
  _atom_site_fract_x
  _atom_site_fract_y
  _atom_site_fract_z
  _atom_site_occupancy
  Ag  Ag1       1.0  0.00619  0.46570  0.10532  1.0000
  Ag  Ag2       1.0  0.99382  0.03430  0.60532  1.0000
  Ag  Ag3       1.0  0.99382  0.53430  0.89468  1.0000
  Ag  Ag4       1.0  0.00619  0.96570  0.39468  1.0000
  Ag  Ag5       1.0  0.63126  0.42915  0.02984  1.0000
  Ag  Ag6       1.0  0.36874  0.07085  0.52984  1.0000
  Ag  Ag7       1.0  0.36874  0.57085  0.97016  1.0000
  Ag  Ag8       1.0  0.63126  0.92915  0.47016  1.0000
  H   H1        1.0  0.44657  0.72585  0.52230  1.0000
  H   H2        1.0  0.55344  0.77414  0.02230  1.0000
  H   H3        1.0  0.55344  0.27415  0.47770  1.0000
  H   H4        1.0  0.44656  0.22585  0.97770  1.0000
  H   H5        1.0  0.28782  0.81106  0.48844  1.0000
  H   H6        1.0  0.71218  0.68894  0.98844  1.0000
  H   H7        1.0  0.71218  0.18894  0.51156  1.0000
  H   H8        1.0  0.28782  0.31106  0.01156  1.0000
  H   H9        1.0  0.22077  0.97737  0.70930  1.0000
  H   H10       1.0  0.77923  0.52263  0.20930  1.0000
  H   H11       1.0  0.77924  0.02264  0.29070  1.0000
  H   H12       1.0  0.22076  0.47736  0.79070  1.0000
  H   H13       1.0  0.03177  0.90231  0.73772  1.0000
  H   H14       1.0  0.96823  0.59769  0.23772  1.0000
  H   H15       1.0  0.96824  0.09769  0.26228  1.0000
  H   H16       1.0  0.03176  0.40231  0.76228  1.0000
  H   H17       1.0  0.24711  0.73931  0.20310  1.0000
  H   H18       1.0  0.75288  0.76069  0.70310  1.0000
  H   H19       1.0  0.75288  0.26069  0.79690  1.0000
  H   H20       1.0  0.24712  0.23931  0.29690  1.0000
  H   H21       1.0  0.23068  0.83025  0.33969  1.0000
  H   H22       1.0  0.76932  0.66975  0.83969  1.0000
  H   H23       1.0  0.76931  0.16975  0.66030  1.0000
  H   H24       1.0  0.23068  0.33025  0.16031  1.0000
  H   H25       1.0  0.56966  0.58790  0.44058  1.0000
  H   H26       1.0  0.43034  0.91210  0.94058  1.0000
  H   H27       1.0  0.43033  0.41211  0.55942  1.0000
  H   H28       1.0  0.56966  0.08790  0.05942  1.0000
  H   H29       1.0  0.58168  0.49669  0.30525  1.0000
  H   H30       1.0  0.41831  0.00332  0.80525  1.0000
  H   H31       1.0  0.41831  0.50332  0.69475  1.0000
  H   H32       1.0  0.58169  0.99668  0.19475  1.0000
  H   H33       1.0  0.21101  0.30816  0.86732  1.0000
  H   H34       1.0  0.78900  0.19184  0.36732  1.0000
  H   H35       1.0  0.78900  0.69184  0.13268  1.0000
  H   H36       1.0  0.21100  0.80815  0.63268  1.0000
  H   H37       1.0  0.26144  0.17977  0.75106  1.0000
  H   H38       1.0  0.73856  0.32023  0.25106  1.0000
  H   H39       1.0  0.73857  0.82023  0.24894  1.0000
  H   H40       1.0  0.26143  0.67976  0.74894  1.0000
  H   H41       1.0  0.85780  0.94486  0.84977  1.0000
  H   H42       1.0  0.14220  0.55514  0.34977  1.0000
  H   H43       1.0  0.14220  0.05514  0.15023  1.0000
  H   H44       1.0  0.85779  0.44486  0.65023  1.0000
  H   H45       1.0  0.80023  0.07796  0.96189  1.0000
  H   H46       1.0  0.19977  0.42204  0.46189  1.0000
  H   H47       1.0  0.19977  0.92204  0.03810  1.0000
  H   H48       1.0  0.80022  0.57796  0.53810  1.0000
  C   C1        1.0  0.43876  0.56363  0.16174  1.0000
  C   C2        1.0  0.56124  0.93637  0.66174  1.0000
  C   C3        1.0  0.56124  0.43637  0.83826  1.0000
  C   C4        1.0  0.43877  0.06363  0.33826  1.0000
  C   C5        1.0  0.41932  0.61343  0.24418  1.0000
  C   C6        1.0  0.58068  0.88657  0.74418  1.0000
  C   C7        1.0  0.58068  0.38657  0.75582  1.0000
  C   C8        1.0  0.41933  0.11343  0.25582  1.0000
  C   C9        1.0  0.31707  0.70624  0.25549  1.0000
  C   C10       1.0  0.68293  0.79376  0.75549  1.0000
  C   C11       1.0  0.68293  0.29376  0.74450  1.0000
  C   C12       1.0  0.31707  0.20624  0.24451  1.0000
  C   C13       1.0  0.30792  0.75691  0.33178  1.0000
  C   C14       1.0  0.69208  0.74309  0.83178  1.0000
  C   C15       1.0  0.69208  0.24309  0.66822  1.0000
  C   C16       1.0  0.30792  0.25690  0.16822  1.0000
  C   C17       1.0  0.40002  0.71553  0.39957  1.0000
  C   C18       1.0  0.59998  0.78447  0.89957  1.0000
  C   C19       1.0  0.59997  0.28447  0.60043  1.0000
  C   C20       1.0  0.40003  0.21553  0.10043  1.0000
  C   C21       1.0  0.49835  0.62065  0.38857  1.0000
  C   C22       1.0  0.50165  0.87935  0.88857  1.0000
  C   C23       1.0  0.50164  0.37935  0.61143  1.0000
  C   C24       1.0  0.49835  0.12065  0.11143  1.0000
  C   C25       1.0  0.50802  0.57123  0.31218  1.0000
  C   C26       1.0  0.49198  0.92877  0.81219  1.0000
  C   C27       1.0  0.49198  0.42877  0.68781  1.0000
  C   C28       1.0  0.50802  0.07123  0.18781  1.0000
  C   C29       1.0  0.95770  0.28172  0.98782  1.0000
  C   C30       1.0  0.04231  0.21828  0.48782  1.0000
  C   C31       1.0  0.04230  0.71828  0.01218  1.0000
  C   C32       1.0  0.95770  0.78172  0.51218  1.0000
  C   C33       1.0  0.99942  0.20237  0.92140  1.0000
  C   C34       1.0  0.00058  0.29763  0.42140  1.0000
  C   C35       1.0  0.00058  0.79763  0.07860  1.0000
  C   C36       1.0  0.99942  0.70237  0.57860  1.0000
  C   C37       1.0  0.13220  0.22897  0.86256  1.0000
  C   C38       1.0  0.86780  0.27103  0.36256  1.0000
  C   C39       1.0  0.86780  0.77103  0.13745  1.0000
  C   C40       1.0  0.13219  0.72896  0.63745  1.0000
  C   C41       1.0  0.16194  0.15675  0.79796  1.0000
  C   C42       1.0  0.83806  0.34325  0.29796  1.0000
  C   C43       1.0  0.83806  0.84325  0.20204  1.0000
  C   C44       1.0  0.16194  0.65675  0.70204  1.0000
  C   C45       1.0  0.06123  0.05415  0.79271  1.0000
  C   C46       1.0  0.93877  0.44585  0.29271  1.0000
  C   C47       1.0  0.93877  0.94585  0.20729  1.0000
  C   C48       1.0  0.06122  0.55414  0.70729  1.0000
  C   C49       1.0  0.93308  0.02534  0.85284  1.0000
  C   C50       1.0  0.06692  0.47467  0.35285  1.0000
  C   C51       1.0  0.06692  0.97467  0.14715  1.0000
  C   C52       1.0  0.93307  0.52533  0.64715  1.0000
  C   C53       1.0  0.90143  0.09936  0.91571  1.0000
  C   C54       1.0  0.09857  0.40064  0.41571  1.0000
  C   C55       1.0  0.09857  0.90064  0.08429  1.0000
  C   C56       1.0  0.90143  0.59936  0.58429  1.0000
  N   N1        1.0  0.40011  0.76974  0.47451  1.0000
  N   N2        1.0  0.59989  0.73026  0.97451  1.0000
  N   N3        1.0  0.59989  0.23026  0.52549  1.0000
  N   N4        1.0  0.40011  0.26974  0.02549  1.0000
  N   N5        1.0  0.08737  0.98064  0.72631  1.0000
  N   N6        1.0  0.91263  0.51936  0.22631  1.0000
  N   N7        1.0  0.91263  0.01936  0.27369  1.0000
  N   N8        1.0  0.08737  0.48064  0.77369  1.0000
  O   O1        1.0  0.07136  0.36808  0.99732  1.0000
  O   O2        1.0  0.92865  0.13192  0.49732  1.0000
  O   O3        1.0  0.92865  0.63192  0.00268  1.0000
  O   O4        1.0  0.07136  0.86808  0.50268  1.0000
  O   O5        1.0  0.81987  0.26417  0.03054  1.0000
  O   O6        1.0  0.18013  0.23584  0.53054  1.0000
  O   O7        1.0  0.18013  0.73583  0.96946  1.0000
  O   O8        1.0  0.81987  0.76417  0.46946  1.0000
  O   O9        1.0  0.58058  0.51142  0.14928  1.0000
  O   O10       1.0  0.41941  0.98859  0.64928  1.0000
  O   O11       1.0  0.41941  0.48858  0.85072  1.0000
  O   O12       1.0  0.58061  0.01143  0.35072  1.0000
  O   O13       1.0  0.31853  0.57738  0.10815  1.0000
  O   O14       1.0  0.68145  0.92261  0.60815  1.0000
  O   O15       1.0  0.68147  0.42262  0.89185  1.0000
  O   O16       1.0  0.31855  0.07738  0.39185  1.0000
