data_image0
_chemical_formula_structural       Cd2H32C28N6O10
_chemical_formula_sum              "Cd2 H32 C28 N6 O10"
_cell_length_a       6.16509
_cell_length_b       10.2902
_cell_length_c       11.804
_cell_angle_alpha    82.5723
_cell_angle_beta     78.7709
_cell_angle_gamma    82.6394

_space_group_name_H-M_alt    "P 1"
_space_group_IT_number       1

loop_
  _space_group_symop_operation_xyz
  'x, y, z'

loop_
  _atom_site_type_symbol
  _atom_site_label
  _atom_site_symmetry_multiplicity
  _atom_site_fract_x
  _atom_site_fract_y
  _atom_site_fract_z
  _atom_site_occupancy
  Cd  Cd1       1.0  0.73499  0.00373  0.15245  1.0000
  Cd  Cd2       1.0  0.26501  0.99627  0.84755  1.0000
  H   H1        1.0  0.12094  0.12280  0.28491  1.0000
  H   H2        1.0  0.87905  0.87720  0.71509  1.0000
  H   H3        1.0  0.22804  0.17794  0.47063  1.0000
  H   H4        1.0  0.77196  0.82206  0.52937  1.0000
  H   H5        1.0  0.02947  0.16898  0.60143  1.0000
  H   H6        1.0  0.97053  0.83103  0.39857  1.0000
  H   H7        1.0  0.59682  0.17026  0.57316  1.0000
  H   H8        1.0  0.40318  0.82974  0.42684  1.0000
  H   H9        1.0  0.17718  0.57125  0.00106  1.0000
  H   H10       1.0  0.82281  0.42875  0.99894  1.0000
  H   H11       1.0  0.94021  0.57371  0.11022  1.0000
  H   H12       1.0  0.05979  0.42629  0.88979  1.0000
  H   H13       1.0  0.76643  0.39218  0.39918  1.0000
  H   H14       1.0  0.23357  0.60783  0.60081  1.0000
  H   H15       1.0  0.27493  0.36649  0.60785  1.0000
  H   H16       1.0  0.72508  0.63352  0.39215  1.0000
  H   H17       1.0  0.43753  0.53898  0.32166  1.0000
  H   H18       1.0  0.56247  0.46102  0.67834  1.0000
  H   H19       1.0  0.66847  0.47762  0.22287  1.0000
  H   H20       1.0  0.33153  0.52238  0.77712  1.0000
  H   H21       1.0  0.53592  0.61371  0.05739  1.0000
  H   H22       1.0  0.46408  0.38629  0.94261  1.0000
  H   H23       1.0  0.12067  0.67901  0.23570  1.0000
  H   H24       1.0  0.87934  0.32098  0.76430  1.0000
  H   H25       1.0  0.27849  0.01373  0.13849  1.0000
  H   H26       1.0  0.72150  0.98627  0.86151  1.0000
  H   H27       1.0  0.41456  0.30539  0.24779  1.0000
  H   H28       1.0  0.58542  0.69462  0.75222  1.0000
  H   H29       1.0  0.12111  0.34339  0.13294  1.0000
  H   H30       1.0  0.87889  0.65661  0.86706  1.0000
  H   H31       1.0  0.36711  0.14132  0.06769  1.0000
  H   H32       1.0  0.63290  0.85868  0.93231  1.0000
  C   C1        1.0  0.02421  0.36154  0.50380  1.0000
  C   C2        1.0  0.97578  0.63846  0.49620  1.0000
  C   C3        1.0  0.95734  0.12370  0.34053  1.0000
  C   C4        1.0  0.04266  0.87630  0.65946  1.0000
  C   C5        1.0  0.36479  0.40522  0.21121  1.0000
  C   C6        1.0  0.63521  0.59479  0.78880  1.0000
  C   C7        1.0  0.56409  0.75420  0.16855  1.0000
  C   C8        1.0  0.43592  0.24580  0.83144  1.0000
  C   C9        1.0  0.05714  0.21259  0.51034  1.0000
  C   C10       1.0  0.94286  0.78740  0.48965  1.0000
  C   C11       1.0  0.68557  0.14846  0.48728  1.0000
  C   C12       1.0  0.31443  0.85154  0.51272  1.0000
  C   C13       1.0  0.12304  0.56034  0.09620  1.0000
  C   C14       1.0  0.87696  0.43966  0.90379  1.0000
  C   C15       1.0  0.86957  0.43832  0.44422  1.0000
  C   C16       1.0  0.13045  0.56168  0.55576  1.0000
  C   C17       1.0  0.15490  0.42473  0.55963  1.0000
  C   C18       1.0  0.84511  0.57526  0.44037  1.0000
  C   C19       1.0  0.20232  0.42622  0.14831  1.0000
  C   C20       1.0  0.79766  0.57378  0.85169  1.0000
  C   C21       1.0  0.49027  0.51334  0.23174  1.0000
  C   C22       1.0  0.50973  0.48666  0.76826  1.0000
  C   C23       1.0  0.45915  0.63614  0.14592  1.0000
  C   C24       1.0  0.54086  0.36386  0.85408  1.0000
  C   C25       1.0  0.20560  0.67110  0.14550  1.0000
  C   C26       1.0  0.79440  0.32889  0.85450  1.0000
  C   C27       1.0  0.16410  0.80395  0.07600  1.0000
  C   C28       1.0  0.83590  0.19605  0.92401  1.0000
  N   N1        1.0  0.90817  0.15929  0.45028  1.0000
  N   N2        1.0  0.09182  0.84071  0.54972  1.0000
  N   N3        1.0  0.77425  0.09152  0.31297  1.0000
  N   N4        1.0  0.22574  0.90847  0.68703  1.0000
  N   N5        1.0  0.60108  0.10772  0.40526  1.0000
  N   N6        1.0  0.39892  0.89227  0.59475  1.0000
  O   O1        1.0  0.65401  0.82568  0.07716  1.0000
  O   O2        1.0  0.34601  0.17431  0.92283  1.0000
  O   O3        1.0  0.55980  0.78305  0.26950  1.0000
  O   O4        1.0  0.44022  0.21695  0.73049  1.0000
  O   O5        1.0  0.36545  0.08746  0.14439  1.0000
  O   O6        1.0  0.63455  0.91254  0.85561  1.0000
  O   O7        1.0  0.10470  0.90492  0.13345  1.0000
  O   O8        1.0  0.89531  0.09507  0.86657  1.0000
  O   O9        1.0  0.19740  0.80856  0.96655  1.0000
  O   O10       1.0  0.80260  0.19145  0.03346  1.0000
