data_image0
_chemical_formula_structural       Na2Cu2H36C32N4Cl2O12
_chemical_formula_sum              "Na2 Cu2 H36 C32 N4 Cl2 O12"
_cell_length_a       7.35446
_cell_length_b       11.0463
_cell_length_c       11.1274
_cell_angle_alpha    78.8741
_cell_angle_beta     88.9723
_cell_angle_gamma    88.3205

_space_group_name_H-M_alt    "P 1"
_space_group_IT_number       1

loop_
  _space_group_symop_operation_xyz
  'x, y, z'

loop_
  _atom_site_type_symbol
  _atom_site_label
  _atom_site_symmetry_multiplicity
  _atom_site_fract_x
  _atom_site_fract_y
  _atom_site_fract_z
  _atom_site_occupancy
  Na  Na1       1.0  0.00001  0.00000  1.00000  1.0000
  Na  Na2       1.0  0.50001  0.00000  0.00000  1.0000
  Cu  Cu1       1.0  0.75457  0.88169  0.83619  1.0000
  Cu  Cu2       1.0  0.24544  0.11831  0.16382  1.0000
  H   H1        1.0  0.91838  0.93644  0.63721  1.0000
  H   H2        1.0  0.08163  0.06356  0.36279  1.0000
  H   H3        1.0  0.58750  0.68898  0.82345  1.0000
  H   H4        1.0  0.41251  0.31101  0.17656  1.0000
  H   H5        1.0  0.90352  0.25804  0.88552  1.0000
  H   H6        1.0  0.09649  0.74196  0.11446  1.0000
  H   H7        1.0  0.98150  0.43606  0.72235  1.0000
  H   H8        1.0  0.01849  0.56394  0.27762  1.0000
  H   H9        1.0  0.90701  0.43262  0.50286  1.0000
  H   H10       1.0  0.09295  0.56737  0.49712  1.0000
  H   H11       1.0  0.77326  0.24579  0.45269  1.0000
  H   H12       1.0  0.22669  0.75420  0.54731  1.0000
  H   H13       1.0  0.53788  0.02393  0.63801  1.0000
  H   H14       1.0  0.46212  0.97605  0.36200  1.0000
  H   H15       1.0  0.67513  0.04925  0.50232  1.0000
  H   H16       1.0  0.32486  0.95073  0.49768  1.0000
  H   H17       1.0  0.58034  0.81153  0.60135  1.0000
  H   H18       1.0  0.41968  0.18846  0.39865  1.0000
  H   H19       1.0  0.78564  0.81088  0.51371  1.0000
  H   H20       1.0  0.21438  0.18911  0.48630  1.0000
  H   H21       1.0  0.94523  0.69297  0.70013  1.0000
  H   H22       1.0  0.05478  0.30703  0.29988  1.0000
  H   H23       1.0  0.75302  0.61089  0.66833  1.0000
  H   H24       1.0  0.24701  0.38911  0.33169  1.0000
  H   H25       1.0  0.95873  0.64310  0.91743  1.0000
  H   H26       1.0  0.04127  0.35691  0.08258  1.0000
  H   H27       1.0  0.80772  0.52293  0.90589  1.0000
  H   H28       1.0  0.19229  0.47708  0.09413  1.0000
  H   H29       1.0  0.70650  0.42875  0.09352  1.0000
  H   H30       1.0  0.29349  0.57126  0.90649  1.0000
  H   H31       1.0  0.58528  0.42941  0.30360  1.0000
  H   H32       1.0  0.41470  0.57059  0.69641  1.0000
  H   H33       1.0  0.53144  0.63067  0.37154  1.0000
  H   H34       1.0  0.46855  0.36934  0.62847  1.0000
  H   H35       1.0  0.61412  0.82612  0.23296  1.0000
  H   H36       1.0  0.38589  0.17389  0.76705  1.0000
  C   C1        1.0  0.79803  0.14949  0.76282  1.0000
  C   C2        1.0  0.20197  0.85051  0.23716  1.0000
  C   C3        1.0  0.87556  0.25632  0.78996  1.0000
  C   C4        1.0  0.12444  0.74368  0.21002  1.0000
  C   C5        1.0  0.91614  0.35674  0.69812  1.0000
  C   C6        1.0  0.08384  0.64326  0.30184  1.0000
  C   C7        1.0  0.87825  0.35430  0.57590  1.0000
  C   C8        1.0  0.12172  0.64570  0.42408  1.0000
  C   C9        1.0  0.80249  0.24900  0.54773  1.0000
  C   C10       1.0  0.19748  0.75099  0.45225  1.0000
  C   C11       1.0  0.76162  0.14660  0.63849  1.0000
  C   C12       1.0  0.23836  0.85340  0.36150  1.0000
  C   C13       1.0  0.67814  0.03639  0.60272  1.0000
  C   C14       1.0  0.32185  0.96360  0.39728  1.0000
  C   C15       1.0  0.72956  0.81022  0.60623  1.0000
  C   C16       1.0  0.27046  0.18977  0.39378  1.0000
  C   C17       1.0  0.79577  0.69619  0.69601  1.0000
  C   C18       1.0  0.20425  0.30381  0.30400  1.0000
  C   C19       1.0  0.81447  0.61829  0.92158  1.0000
  C   C20       1.0  0.18554  0.38171  0.07844  1.0000
  C   C21       1.0  0.73035  0.62548  0.04453  1.0000
  C   C22       1.0  0.26965  0.37452  0.95548  1.0000
  C   C23       1.0  0.68484  0.51608  0.12453  1.0000
  C   C24       1.0  0.31515  0.48393  0.87547  1.0000
  C   C25       1.0  0.61566  0.51597  0.24222  1.0000
  C   C26       1.0  0.38434  0.48404  0.75778  1.0000
  C   C27       1.0  0.58867  0.62841  0.28079  1.0000
  C   C28       1.0  0.41133  0.37160  0.71921  1.0000
  C   C29       1.0  0.63226  0.73815  0.20310  1.0000
  C   C30       1.0  0.36775  0.26185  0.79690  1.0000
  C   C31       1.0  0.70413  0.73967  0.08428  1.0000
  C   C32       1.0  0.29587  0.26034  0.91573  1.0000
  N   N1        1.0  0.78200  0.92094  0.65317  1.0000
  N   N2        1.0  0.21800  0.07906  0.34683  1.0000
  N   N3        1.0  0.72471  0.70471  0.81981  1.0000
  N   N4        1.0  0.27530  0.29529  0.18020  1.0000
  Cl  Cl1       1.0  0.24560  0.87663  0.78350  1.0000
  Cl  Cl2       1.0  0.75441  0.12337  0.21651  1.0000
  O   O1        1.0  0.76260  0.05500  0.85507  1.0000
  O   O2        1.0  0.23740  0.94500  0.14493  1.0000
  O   O3        1.0  0.74554  0.84918  0.01494  1.0000
  O   O4        1.0  0.25447  0.15082  0.98507  1.0000
  O   O5        1.0  0.40694  0.92261  0.83320  1.0000
  O   O6        1.0  0.59306  0.07738  0.16682  1.0000
  O   O7        1.0  0.29444  0.76309  0.74136  1.0000
  O   O8        1.0  0.70556  0.23693  0.25863  1.0000
  O   O9        1.0  0.17725  0.96981  0.68190  1.0000
  O   O10       1.0  0.82277  0.03022  0.31811  1.0000
  O   O11       1.0  0.10555  0.85123  0.87984  1.0000
  O   O12       1.0  0.89443  0.14876  0.12016  1.0000
