data_image0
_chemical_formula_structural       FeNiH6C12N8Cl2
_chemical_formula_sum              "Fe1 Ni1 H6 C12 N8 Cl2"
_cell_length_a       6.72319
_cell_length_b       7.13613
_cell_length_c       8.85548
_cell_angle_alpha    110.011
_cell_angle_beta     112.321
_cell_angle_gamma    89.995

_space_group_name_H-M_alt    "P 1"
_space_group_IT_number       1

loop_
  _space_group_symop_operation_xyz
  'x, y, z'

loop_
  _atom_site_type_symbol
  _atom_site_label
  _atom_site_symmetry_multiplicity
  _atom_site_fract_x
  _atom_site_fract_y
  _atom_site_fract_z
  _atom_site_occupancy
  Fe  Fe1       1.0  1.00000  0.00000  1.00000  1.0000
  Ni  Ni1       1.0  0.50000  0.50000  0.00000  1.0000
  H   H1        1.0  0.88503  0.56968  0.77028  1.0000
  H   H2        1.0  0.11497  0.43032  0.22972  1.0000
  H   H3        1.0  0.67944  0.91470  0.35785  1.0000
  H   H4        1.0  0.32056  0.08530  0.64215  1.0000
  H   H5        1.0  0.84432  0.11183  0.68803  1.0000
  H   H6        1.0  0.15568  0.88817  0.31197  1.0000
  C   C1        1.0  0.69737  0.69381  0.01768  1.0000
  C   C2        1.0  0.67985  0.30627  0.98229  1.0000
  C   C3        1.0  0.30263  0.30618  0.98232  1.0000
  C   C4        1.0  0.32014  0.69372  0.01771  1.0000
  C   C5        1.0  0.83960  0.64816  0.67922  1.0000
  C   C6        1.0  0.16041  0.35184  0.32078  1.0000
  C   C7        1.0  0.74871  0.54661  0.49732  1.0000
  C   C8        1.0  0.25129  0.45339  0.50268  1.0000
  C   C9        1.0  0.72626  0.83976  0.45207  1.0000
  C   C10       1.0  0.27374  0.16024  0.54793  1.0000
  C   C11       1.0  0.81626  0.94816  0.63206  1.0000
  C   C12       1.0  0.18374  0.05184  0.36794  1.0000
  N   N1        1.0  0.87330  0.85139  0.74633  1.0000
  N   N2        1.0  0.12670  0.14861  0.25367  1.0000
  N   N3        1.0  0.81386  0.81980  0.02200  1.0000
  N   N4        1.0  0.79186  0.18014  0.97791  1.0000
  N   N5        1.0  0.18615  0.18021  0.97800  1.0000
  N   N6        1.0  0.20814  0.81986  0.02209  1.0000
  N   N7        1.0  0.69177  0.63770  0.38311  1.0000
  N   N8        1.0  0.30823  0.36230  0.61689  1.0000
  Cl  Cl1       1.0  0.70644  0.28599  0.41304  1.0000
  Cl  Cl2       1.0  0.29356  0.71401  0.58696  1.0000
