data_image0
_chemical_formula_structural       Fe4Ni4H20C32I4N24O4
_chemical_formula_sum              "Fe4 Ni4 H20 C32 I4 N24 O4"
_cell_length_a       7.28635
_cell_length_b       12.3428
_cell_length_c       12.85
_cell_angle_alpha    89.9854
_cell_angle_beta     90.0561
_cell_angle_gamma    89.994

_space_group_name_H-M_alt    "P 1"
_space_group_IT_number       1

loop_
  _space_group_symop_operation_xyz
  'x, y, z'

loop_
  _atom_site_type_symbol
  _atom_site_label
  _atom_site_symmetry_multiplicity
  _atom_site_fract_x
  _atom_site_fract_y
  _atom_site_fract_z
  _atom_site_occupancy
  Fe  Fe1       1.0  0.24993  0.54122  0.14750  1.0000
  Fe  Fe2       1.0  0.74903  0.95992  0.65479  1.0000
  Fe  Fe3       1.0  0.74977  0.45791  0.83244  1.0000
  Fe  Fe4       1.0  0.25104  0.04113  0.35310  1.0000
  Ni  Ni1       1.0  0.75023  0.80640  0.20981  1.0000
  Ni  Ni2       1.0  0.24922  0.69408  0.71632  1.0000
  Ni  Ni3       1.0  0.24974  0.19796  0.79894  1.0000
  Ni  Ni4       1.0  0.75090  0.30658  0.29037  1.0000
  H   H1        1.0  0.24853  0.40664  0.35496  1.0000
  H   H2        1.0  0.74839  0.09154  0.86158  1.0000
  H   H3        1.0  0.74933  0.59123  0.63995  1.0000
  H   H4        1.0  0.25130  0.90927  0.14343  1.0000
  H   H5        1.0  0.24884  0.77781  0.48254  1.0000
  H   H6        1.0  0.74935  0.71892  0.98514  1.0000
  H   H7        1.0  0.75164  0.21920  0.51564  1.0000
  H   H8        1.0  0.25217  0.28222  0.02074  1.0000
  H   H9        1.0  0.24978  0.73775  0.29165  1.0000
  H   H10       1.0  0.74862  0.76108  0.79502  1.0000
  H   H11       1.0  0.75067  0.25968  0.70517  1.0000
  H   H12       1.0  0.25213  0.23935  0.21099  1.0000
  H   H13       1.0  0.14491  0.51611  0.93744  1.0000
  H   H14       1.0  0.85778  0.97571  0.44770  1.0000
  H   H15       1.0  0.64310  0.47229  0.04991  1.0000
  H   H16       1.0  0.35491  0.02035  0.56238  1.0000
  H   H17       1.0  0.85491  0.47565  0.05057  1.0000
  H   H18       1.0  0.14249  0.02681  0.56153  1.0000
  H   H19       1.0  0.35700  0.52345  0.93768  1.0000
  H   H20       1.0  0.64523  0.98095  0.44657  1.0000
  C   C1        1.0  0.24893  0.48985  0.38305  1.0000
  C   C2        1.0  0.74894  0.00810  0.88899  1.0000
  C   C3        1.0  0.74975  0.50815  0.61228  1.0000
  C   C4        1.0  0.25117  0.99288  0.11645  1.0000
  C   C5        1.0  0.24927  0.51359  0.48955  1.0000
  C   C6        1.0  0.74987  0.98333  0.99520  1.0000
  C   C7        1.0  0.75000  0.48345  0.50612  1.0000
  C   C8        1.0  0.25063  0.01799  0.01017  1.0000
  C   C9        1.0  0.24910  0.69445  0.45444  1.0000
  C   C10       1.0  0.74939  0.80263  0.95805  1.0000
  C   C11       1.0  0.75096  0.30296  0.54260  1.0000
  C   C12       1.0  0.25164  0.19847  0.04785  1.0000
  C   C13       1.0  0.24946  0.67266  0.34848  1.0000
  C   C14       1.0  0.74888  0.82558  0.85246  1.0000
  C   C15       1.0  0.75052  0.32452  0.64834  1.0000
  C   C16       1.0  0.25172  0.17503  0.15342  1.0000
  C   C17       1.0  0.57296  0.38127  0.22046  1.0000
  C   C18       1.0  0.42571  0.12103  0.72974  1.0000
  C   C19       1.0  0.06542  0.61325  0.77644  1.0000
  C   C20       1.0  0.92796  0.88136  0.27963  1.0000
  C   C21       1.0  0.43389  0.61338  0.77604  1.0000
  C   C22       1.0  0.57334  0.88129  0.28022  1.0000
  C   C23       1.0  0.92760  0.38126  0.21957  1.0000
  C   C24       1.0  0.07301  0.12096  0.73029  1.0000
  C   C25       1.0  0.56993  0.71524  0.16190  1.0000
  C   C26       1.0  0.42734  0.78529  0.66695  1.0000
  C   C27       1.0  0.06431  0.29250  0.83769  1.0000
  C   C28       1.0  0.93112  0.21565  0.33877  1.0000
  C   C29       1.0  0.43571  0.29239  0.83715  1.0000
  C   C30       1.0  0.57171  0.21521  0.33915  1.0000
  C   C31       1.0  0.92982  0.71507  0.16152  1.0000
  C   C32       1.0  0.06977  0.78470  0.66734  1.0000
  I   I1        1.0  0.25001  0.38388  0.59702  1.0000
  I   I2        1.0  0.75127  0.11236  0.10337  1.0000
  I   I3        1.0  0.74942  0.61259  0.39834  1.0000
  I   I4        1.0  0.24944  0.88894  0.90181  1.0000
  N   N1        1.0  0.24922  0.57015  0.31248  1.0000
  N   N2        1.0  0.74862  0.92859  0.81768  1.0000
  N   N3        1.0  0.75005  0.42780  0.68391  1.0000
  N   N4        1.0  0.25158  0.07201  0.18817  1.0000
  N   N5        1.0  0.24916  0.61469  0.52578  1.0000
  N   N6        1.0  0.74995  0.88170  0.03028  1.0000
  N   N7        1.0  0.75073  0.38200  0.47057  1.0000
  N   N8        1.0  0.25095  0.11977  0.97528  1.0000
  N   N9        1.0  0.45910  0.42608  0.17181  1.0000
  N   N10       1.0  0.53801  0.07501  0.68090  1.0000
  N   N11       1.0  0.94213  0.56257  0.80988  1.0000
  N   N12       1.0  0.04127  0.92673  0.32823  1.0000
  N   N13       1.0  0.55717  0.56255  0.80947  1.0000
  N   N14       1.0  0.46046  0.92662  0.32906  1.0000
  N   N15       1.0  0.04064  0.42610  0.17041  1.0000
  N   N16       1.0  0.96044  0.07487  0.68161  1.0000
  N   N17       1.0  0.45201  0.65796  0.13314  1.0000
  N   N18       1.0  0.54375  0.84347  0.63766  1.0000
  N   N19       1.0  0.94035  0.35188  0.84994  1.0000
  N   N20       1.0  0.04861  0.15819  0.36782  1.0000
  N   N21       1.0  0.55981  0.35164  0.84938  1.0000
  N   N22       1.0  0.45514  0.15736  0.36854  1.0000
  N   N23       1.0  0.04718  0.65764  0.13237  1.0000
  N   N24       1.0  0.95247  0.84247  0.63838  1.0000
  O   O1        1.0  0.25249  0.50315  0.98137  1.0000
  O   O2        1.0  0.75221  0.99763  0.49008  1.0000
  O   O3        1.0  0.74796  0.50335  0.01257  1.0000
  O   O4        1.0  0.24764  0.00555  0.51853  1.0000
