data_image0
_chemical_formula_structural       Cd2H36C52N4Cl4O8
_chemical_formula_sum              "Cd2 H36 C52 N4 Cl4 O8"
_cell_length_a       9.78918
_cell_length_b       11.2012
_cell_length_c       11.534
_cell_angle_alpha    88.2379
_cell_angle_beta     71.2714
_cell_angle_gamma    82.8666

_space_group_name_H-M_alt    "P 1"
_space_group_IT_number       1

loop_
  _space_group_symop_operation_xyz
  'x, y, z'

loop_
  _atom_site_type_symbol
  _atom_site_label
  _atom_site_symmetry_multiplicity
  _atom_site_fract_x
  _atom_site_fract_y
  _atom_site_fract_z
  _atom_site_occupancy
  Cd  Cd1       1.0  0.07885  0.11107  0.58030  1.0000
  Cd  Cd2       1.0  0.92115  0.88893  0.41970  1.0000
  H   H1        1.0  0.74146  0.19905  0.69729  1.0000
  H   H2        1.0  0.25854  0.80095  0.30271  1.0000
  H   H3        1.0  0.56293  0.37918  0.70615  1.0000
  H   H4        1.0  0.43707  0.62081  0.29385  1.0000
  H   H5        1.0  0.88780  0.52157  0.40138  1.0000
  H   H6        1.0  0.11220  0.47843  0.59862  1.0000
  H   H7        1.0  0.05522  0.33335  0.40747  1.0000
  H   H8        1.0  0.94478  0.66665  0.59253  1.0000
  H   H9        1.0  0.66987  0.64029  0.47806  1.0000
  H   H10       1.0  0.33013  0.35971  0.52194  1.0000
  H   H11       1.0  0.44760  0.56510  0.71800  1.0000
  H   H12       1.0  0.55240  0.43490  0.28200  1.0000
  H   H13       1.0  0.23181  0.70544  0.79741  1.0000
  H   H14       1.0  0.76819  0.29456  0.20259  1.0000
  H   H15       1.0  0.07780  0.89556  0.77565  1.0000
  H   H16       1.0  0.92220  0.10444  0.22435  1.0000
  H   H17       1.0  0.38928  0.98439  0.45789  1.0000
  H   H18       1.0  0.61072  0.01561  0.54211  1.0000
  H   H19       1.0  0.55898  0.80200  0.46671  1.0000
  H   H20       1.0  0.44102  0.19800  0.53329  1.0000
  H   H21       1.0  0.97430  0.22460  0.01106  1.0000
  H   H22       1.0  0.02570  0.77540  0.98894  1.0000
  H   H23       1.0  0.01178  0.33588  0.18316  1.0000
  H   H24       1.0  0.98822  0.66412  0.81684  1.0000
  H   H25       1.0  0.32525  0.52706  0.91974  1.0000
  H   H26       1.0  0.67475  0.47294  0.08026  1.0000
  H   H27       1.0  0.28455  0.41593  0.74879  1.0000
  H   H28       1.0  0.71545  0.58407  0.25121  1.0000
  H   H29       1.0  0.40042  0.22933  0.19077  1.0000
  H   H30       1.0  0.59958  0.77067  0.80923  1.0000
  H   H31       1.0  0.50792  0.23917  0.96193  1.0000
  H   H32       1.0  0.49208  0.76083  0.03807  1.0000
  H   H33       1.0  0.24549  0.97044  0.92451  1.0000
  H   H34       1.0  0.75450  0.02956  0.07549  1.0000
  H   H35       1.0  0.14294  0.95783  0.15128  1.0000
  H   H36       1.0  0.85706  0.04218  0.84872  1.0000
  C   C1        1.0  0.76936  0.27321  0.63397  1.0000
  C   C2        1.0  0.23064  0.72679  0.36603  1.0000
  C   C3        1.0  0.67063  0.37453  0.63812  1.0000
  C   C4        1.0  0.32936  0.62547  0.36188  1.0000
  C   C5        1.0  0.71208  0.46861  0.55534  1.0000
  C   C6        1.0  0.28792  0.53139  0.44466  1.0000
  C   C7        1.0  0.85185  0.45147  0.46814  1.0000
  C   C8        1.0  0.14815  0.54852  0.53186  1.0000
  C   C9        1.0  0.94438  0.34772  0.47085  1.0000
  C   C10       1.0  0.05562  0.65228  0.52915  1.0000
  C   C11       1.0  0.62258  0.58218  0.55460  1.0000
  C   C12       1.0  0.37742  0.41782  0.44540  1.0000
  C   C13       1.0  0.49417  0.62103  0.63932  1.0000
  C   C14       1.0  0.50583  0.37897  0.36068  1.0000
  C   C15       1.0  0.40811  0.73503  0.63223  1.0000
  C   C16       1.0  0.59189  0.26497  0.36777  1.0000
  C   C17       1.0  0.27136  0.76544  0.72086  1.0000
  C   C18       1.0  0.72864  0.23456  0.27914  1.0000
  C   C19       1.0  0.18510  0.87057  0.70937  1.0000
  C   C20       1.0  0.81490  0.12943  0.29063  1.0000
  C   C21       1.0  0.35976  0.91987  0.53189  1.0000
  C   C22       1.0  0.64024  0.08014  0.46812  1.0000
  C   C23       1.0  0.45298  0.81767  0.53704  1.0000
  C   C24       1.0  0.54702  0.18233  0.46296  1.0000
  C   C25       1.0  0.10677  0.24473  0.76962  1.0000
  C   C26       1.0  0.89323  0.75527  0.23038  1.0000
  C   C27       1.0  0.12665  0.31434  0.87063  1.0000
  C   C28       1.0  0.87335  0.68566  0.12937  1.0000
  C   C29       1.0  0.04966  0.29204  0.99280  1.0000
  C   C30       1.0  0.95034  0.70796  0.00720  1.0000
  C   C31       1.0  0.07048  0.35320  0.08784  1.0000
  C   C32       1.0  0.92952  0.64680  0.91216  1.0000
  C   C33       1.0  0.17014  0.43714  0.05965  1.0000
  C   C34       1.0  0.82986  0.56286  0.94035  1.0000
  C   C35       1.0  0.24792  0.46119  0.93840  1.0000
  C   C36       1.0  0.75208  0.53882  0.06160  1.0000
  C   C37       1.0  0.22531  0.39964  0.84441  1.0000
  C   C38       1.0  0.77469  0.60036  0.15559  1.0000
  C   C39       1.0  0.20347  0.08952  0.32148  1.0000
  C   C40       1.0  0.79653  0.91049  0.67852  1.0000
  C   C41       1.0  0.26528  0.09389  0.18510  1.0000
  C   C42       1.0  0.73472  0.90612  0.81490  1.0000
  C   C43       1.0  0.36809  0.17281  0.13125  1.0000
  C   C44       1.0  0.63191  0.82719  0.86875  1.0000
  C   C45       1.0  0.42738  0.17863  0.00454  1.0000
  C   C46       1.0  0.57263  0.82136  0.99545  1.0000
  C   C47       1.0  0.38175  0.10536  0.93181  1.0000
  C   C48       1.0  0.61825  0.89464  0.06819  1.0000
  C   C49       1.0  0.27941  0.02625  0.98348  1.0000
  C   C50       1.0  0.72059  0.97375  0.01652  1.0000
  C   C51       1.0  0.22190  0.02028  0.11046  1.0000
  C   C52       1.0  0.77810  0.97972  0.88954  1.0000
  N   N1        1.0  0.90470  0.26018  0.55298  1.0000
  N   N2        1.0  0.09530  0.73981  0.44702  1.0000
  N   N3        1.0  0.22741  0.94607  0.61531  1.0000
  N   N4        1.0  0.77259  0.05393  0.38469  1.0000
  Cl  Cl1       1.0  0.20035  0.51144  0.17687  1.0000
  Cl  Cl2       1.0  0.79965  0.48856  0.82313  1.0000
  Cl  Cl3       1.0  0.45308  0.11331  0.77400  1.0000
  Cl  Cl4       1.0  0.54692  0.88669  0.22599  1.0000
  O   O1        1.0  0.01976  0.16494  0.79736  1.0000
  O   O2        1.0  0.98023  0.83506  0.20264  1.0000
  O   O3        1.0  0.17929  0.26747  0.65921  1.0000
  O   O4        1.0  0.82071  0.73253  0.34080  1.0000
  O   O5        1.0  0.11154  0.01606  0.37125  1.0000
  O   O6        1.0  0.88847  0.98394  0.62875  1.0000
  O   O7        1.0  0.24381  0.16013  0.38537  1.0000
  O   O8        1.0  0.75619  0.83987  0.61462  1.0000
