data_image0
_chemical_formula_structural       Cd2H36C52N4Cl4O8
_chemical_formula_sum              "Cd2 H36 C52 N4 Cl4 O8"
_cell_length_a       10.1028
_cell_length_b       10.6407
_cell_length_c       11.847
_cell_angle_alpha    88.7608
_cell_angle_beta     70.0702
_cell_angle_gamma    83.2247

_space_group_name_H-M_alt    "P 1"
_space_group_IT_number       1

loop_
  _space_group_symop_operation_xyz
  'x, y, z'

loop_
  _atom_site_type_symbol
  _atom_site_label
  _atom_site_symmetry_multiplicity
  _atom_site_fract_x
  _atom_site_fract_y
  _atom_site_fract_z
  _atom_site_occupancy
  Cd  Cd1       1.0  0.09736  0.60755  0.08158  1.0000
  Cd  Cd2       1.0  0.90264  0.39245  0.91842  1.0000
  H   H1        1.0  0.77344  0.70799  0.21023  1.0000
  H   H2        1.0  0.22656  0.29202  0.78977  1.0000
  H   H3        1.0  0.58136  0.85986  0.18443  1.0000
  H   H4        1.0  0.41864  0.14015  0.81557  1.0000
  H   H5        1.0  0.89423  0.00336  0.87591  1.0000
  H   H6        1.0  0.10577  0.99665  0.12409  1.0000
  H   H7        1.0  0.07556  0.84216  0.91504  1.0000
  H   H8        1.0  0.92444  0.15784  0.08496  1.0000
  H   H9        1.0  0.65843  0.09700  0.93061  1.0000
  H   H10       1.0  0.34157  0.90301  0.06939  1.0000
  H   H11       1.0  0.45330  0.02107  0.17053  1.0000
  H   H12       1.0  0.54670  0.97893  0.82946  1.0000
  H   H13       1.0  0.23877  0.16991  0.26629  1.0000
  H   H14       1.0  0.76123  0.83009  0.73371  1.0000
  H   H15       1.0  0.10613  0.38430  0.26686  1.0000
  H   H16       1.0  0.89387  0.61570  0.73314  1.0000
  H   H17       1.0  0.40785  0.47750  0.95124  1.0000
  H   H18       1.0  0.59215  0.52250  0.04876  1.0000
  H   H19       1.0  0.55926  0.27233  0.94016  1.0000
  H   H20       1.0  0.44074  0.72768  0.05984  1.0000
  H   H21       1.0  0.40123  0.72772  0.69952  1.0000
  H   H22       1.0  0.59877  0.27228  0.30048  1.0000
  H   H23       1.0  0.51121  0.74147  0.47537  1.0000
  H   H24       1.0  0.48878  0.25854  0.52464  1.0000
  H   H25       1.0  0.24211  0.47490  0.43187  1.0000
  H   H26       1.0  0.75790  0.52510  0.56812  1.0000
  H   H27       1.0  0.13322  0.46167  0.65400  1.0000
  H   H28       1.0  0.86678  0.53832  0.34599  1.0000
  H   H29       1.0  0.97611  0.72061  0.51002  1.0000
  H   H30       1.0  0.02388  0.27939  0.48998  1.0000
  H   H31       1.0  0.00892  0.83259  0.68235  1.0000
  H   H32       1.0  0.99107  0.16741  0.31765  1.0000
  H   H33       1.0  0.32564  0.03320  0.43096  1.0000
  H   H34       1.0  0.67436  0.96680  0.56904  1.0000
  H   H35       1.0  0.29112  0.91924  0.26084  1.0000
  H   H36       1.0  0.70887  0.08075  0.73917  1.0000
  C   C1        1.0  0.79593  0.77553  0.13747  1.0000
  C   C2        1.0  0.20407  0.22447  0.86252  1.0000
  C   C3        1.0  0.68909  0.86162  0.12208  1.0000
  C   C4        1.0  0.31091  0.13838  0.87792  1.0000
  C   C5        1.0  0.72109  0.94316  0.02441  1.0000
  C   C6        1.0  0.27891  0.05684  0.97559  1.0000
  C   C7        1.0  0.86348  0.93865  0.95055  1.0000
  C   C8        1.0  0.13652  0.06135  0.04945  1.0000
  C   C9        1.0  0.96431  0.85014  0.97209  1.0000
  C   C10       1.0  0.03569  0.14986  0.02790  1.0000
  C   C11       1.0  0.61022  0.01988  0.98678  1.0000
  C   C12       1.0  0.38979  0.98012  0.01322  1.0000
  C   C13       1.0  0.46446  0.06175  0.08238  1.0000
  C   C14       1.0  0.53554  0.93825  0.91762  1.0000
  C   C15       1.0  0.40702  0.19908  0.09890  1.0000
  C   C16       1.0  0.59298  0.80092  0.90110  1.0000
  C   C17       1.0  0.28161  0.23605  0.19517  1.0000
  C   C18       1.0  0.71839  0.76396  0.80483  1.0000
  C   C19       1.0  0.20664  0.35438  0.19603  1.0000
  C   C20       1.0  0.79336  0.64562  0.80397  1.0000
  C   C21       1.0  0.37615  0.40676  0.02030  1.0000
  C   C22       1.0  0.62385  0.59324  0.97970  1.0000
  C   C23       1.0  0.45864  0.29088  0.01392  1.0000
  C   C24       1.0  0.54136  0.70912  0.98608  1.0000
  C   C25       1.0  0.19829  0.58820  0.82463  1.0000
  C   C26       1.0  0.80170  0.41179  0.17537  1.0000
  C   C27       1.0  0.26054  0.59506  0.69074  1.0000
  C   C28       1.0  0.73946  0.40493  0.30926  1.0000
  C   C29       1.0  0.36712  0.67341  0.63970  1.0000
  C   C30       1.0  0.63288  0.32659  0.36030  1.0000
  C   C31       1.0  0.42821  0.68100  0.51562  1.0000
  C   C32       1.0  0.57179  0.31901  0.48438  1.0000
  C   C33       1.0  0.38216  0.60871  0.44236  1.0000
  C   C34       1.0  0.61784  0.39129  0.55764  1.0000
  C   C35       1.0  0.27652  0.52973  0.49119  1.0000
  C   C36       1.0  0.72348  0.47027  0.50881  1.0000
  C   C37       1.0  0.21578  0.52323  0.61559  1.0000
  C   C38       1.0  0.78422  0.47676  0.38440  1.0000
  C   C39       1.0  0.11918  0.74279  0.27261  1.0000
  C   C40       1.0  0.88082  0.25722  0.72739  1.0000
  C   C41       1.0  0.13157  0.81419  0.37547  1.0000
  C   C42       1.0  0.86842  0.18580  0.62453  1.0000
  C   C43       1.0  0.05115  0.79024  0.49420  1.0000
  C   C44       1.0  0.94885  0.20976  0.50580  1.0000
  C   C45       1.0  0.06892  0.85211  0.58951  1.0000
  C   C46       1.0  0.93107  0.14788  0.41049  1.0000
  C   C47       1.0  0.16820  0.93869  0.56527  1.0000
  C   C48       1.0  0.83181  0.06130  0.43473  1.0000
  C   C49       1.0  0.24861  0.96530  0.44752  1.0000
  C   C50       1.0  0.75139  0.03469  0.55249  1.0000
  C   C51       1.0  0.22919  0.90253  0.35367  1.0000
  C   C52       1.0  0.77081  0.09746  0.64632  1.0000
  N   N1        1.0  0.93071  0.76797  0.06250  1.0000
  N   N2        1.0  0.06929  0.23203  0.93750  1.0000
  N   N3        1.0  0.25024  0.43687  0.10704  1.0000
  N   N4        1.0  0.74976  0.56313  0.89296  1.0000
  Cl  Cl1       1.0  0.45764  0.61739  0.28782  1.0000
  Cl  Cl2       1.0  0.54236  0.38262  0.71219  1.0000
  Cl  Cl3       1.0  0.19473  0.01261  0.68312  1.0000
  Cl  Cl4       1.0  0.80526  0.98739  0.31688  1.0000
  O   O1        1.0  0.25288  0.64719  0.88750  1.0000
  O   O2        1.0  0.74712  0.35281  0.11250  1.0000
  O   O3        1.0  0.09362  0.52530  0.87282  1.0000
  O   O4        1.0  0.90638  0.47468  0.12718  1.0000
  O   O5        1.0  0.03471  0.65816  0.29526  1.0000
  O   O6        1.0  0.96528  0.34184  0.70474  1.0000
  O   O7        1.0  0.19533  0.76864  0.16607  1.0000
  O   O8        1.0  0.80467  0.23136  0.83393  1.0000
