data_image0
_chemical_formula_structural       Cd4H38C54N2O18
_chemical_formula_sum              "Cd4 H38 C54 N2 O18"
_cell_length_a       8.38901
_cell_length_b       11.98
_cell_length_c       12.439
_cell_angle_alpha    99.2259
_cell_angle_beta     91.2378
_cell_angle_gamma    92.987

_space_group_name_H-M_alt    "P 1"
_space_group_IT_number       1

loop_
  _space_group_symop_operation_xyz
  'x, y, z'

loop_
  _atom_site_type_symbol
  _atom_site_label
  _atom_site_symmetry_multiplicity
  _atom_site_fract_x
  _atom_site_fract_y
  _atom_site_fract_z
  _atom_site_occupancy
  Cd  Cd1       1.0  0.92590  0.23872  0.01727  1.0000
  Cd  Cd2       1.0  0.07409  0.76127  0.98273  1.0000
  Cd  Cd3       1.0  0.68176  0.89899  0.99955  1.0000
  Cd  Cd4       1.0  0.31824  0.10101  0.00045  1.0000
  H   H1        1.0  0.02452  0.51093  0.86461  1.0000
  H   H2        1.0  0.97548  0.48907  0.13540  1.0000
  H   H3        1.0  0.65277  0.17378  0.14762  1.0000
  H   H4        1.0  0.34723  0.82622  0.85238  1.0000
  H   H5        1.0  0.74019  0.28920  0.21296  1.0000
  H   H6        1.0  0.25981  0.71080  0.78704  1.0000
  H   H7        1.0  0.58208  0.65492  0.92808  1.0000
  H   H8        1.0  0.41793  0.34508  0.07193  1.0000
  H   H9        1.0  0.45984  0.69034  0.02083  1.0000
  H   H10       1.0  0.54017  0.30966  0.97917  1.0000
  H   H11       1.0  0.52431  0.38106  0.80881  1.0000
  H   H12       1.0  0.47569  0.61894  0.19119  1.0000
  H   H13       1.0  0.28982  0.43818  0.71330  1.0000
  H   H14       1.0  0.71018  0.56182  0.28671  1.0000
  H   H15       1.0  0.16636  0.56945  0.60345  1.0000
  H   H16       1.0  0.83363  0.43055  0.39655  1.0000
  H   H17       1.0  0.33366  0.72221  0.54088  1.0000
  H   H18       1.0  0.66634  0.27780  0.45913  1.0000
  H   H19       1.0  0.62076  0.75058  0.59306  1.0000
  H   H20       1.0  0.37924  0.24942  0.40694  1.0000
  H   H21       1.0  0.07453  0.03249  0.67600  1.0000
  H   H22       1.0  0.92548  0.96750  0.32400  1.0000
  H   H23       1.0  0.14696  0.95569  0.48818  1.0000
  H   H24       1.0  0.85305  0.04431  0.51182  1.0000
  H   H25       1.0  0.13430  0.79844  0.33032  1.0000
  H   H26       1.0  0.86571  0.20156  0.66968  1.0000
  H   H27       1.0  0.99538  0.61307  0.34761  1.0000
  H   H28       1.0  0.00461  0.38693  0.65239  1.0000
  H   H29       1.0  0.87034  0.58497  0.52077  1.0000
  H   H30       1.0  0.12965  0.41504  0.47923  1.0000
  H   H31       1.0  0.64904  0.91781  0.68462  1.0000
  H   H32       1.0  0.35095  0.08219  0.31538  1.0000
  H   H33       1.0  0.60611  0.05657  0.55773  1.0000
  H   H34       1.0  0.39389  0.94343  0.44227  1.0000
  H   H35       1.0  0.41763  0.21231  0.60872  1.0000
  H   H36       1.0  0.58237  0.78770  0.39127  1.0000
  H   H37       1.0  0.28716  0.22446  0.79038  1.0000
  H   H38       1.0  0.71283  0.77554  0.20962  1.0000
  C   C1        1.0  0.78535  0.63207  0.72348  1.0000
  C   C2        1.0  0.21465  0.36793  0.27652  1.0000
  C   C3        1.0  0.84982  0.55981  0.78798  1.0000
  C   C4        1.0  0.15018  0.44019  0.21202  1.0000
  C   C5        1.0  0.75444  0.46758  0.81819  1.0000
  C   C6        1.0  0.24556  0.53242  0.18181  1.0000
  C   C7        1.0  0.59579  0.45046  0.78382  1.0000
  C   C8        1.0  0.40420  0.54955  0.21618  1.0000
  C   C9        1.0  0.36139  0.50688  0.68676  1.0000
  C   C10       1.0  0.63860  0.49312  0.31324  1.0000
  C   C11       1.0  0.29318  0.57887  0.62536  1.0000
  C   C12       1.0  0.70683  0.42113  0.37465  1.0000
  C   C13       1.0  0.38868  0.66667  0.59054  1.0000
  C   C14       1.0  0.61131  0.33333  0.40946  1.0000
  C   C15       1.0  0.54861  0.68275  0.61995  1.0000
  C   C16       1.0  0.45139  0.31725  0.38005  1.0000
  C   C17       1.0  0.62258  0.61227  0.68582  1.0000
  C   C18       1.0  0.37742  0.38773  0.31418  1.0000
  C   C19       1.0  0.52594  0.52123  0.71806  1.0000
  C   C20       1.0  0.47406  0.47878  0.28194  1.0000
  C   C21       1.0  0.87527  0.73783  0.70675  1.0000
  C   C22       1.0  0.12473  0.26216  0.29325  1.0000
  C   C23       1.0  0.89133  0.82501  0.79674  1.0000
  C   C24       1.0  0.10866  0.17498  0.20326  1.0000
  C   C25       1.0  0.95466  0.93570  0.78297  1.0000
  C   C26       1.0  0.04534  0.06430  0.21703  1.0000
  C   C27       1.0  0.02156  0.94956  0.68473  1.0000
  C   C28       1.0  0.97845  0.05044  0.31527  1.0000
  C   C29       1.0  0.08883  0.87365  0.49485  1.0000
  C   C30       1.0  0.91118  0.12635  0.50516  1.0000
  C   C31       1.0  0.08092  0.78663  0.40714  1.0000
  C   C32       1.0  0.91909  0.21337  0.59286  1.0000
  C   C33       1.0  0.00108  0.68179  0.41690  1.0000
  C   C34       1.0  0.99892  0.31821  0.58310  1.0000
  C   C35       1.0  0.93161  0.66572  0.51324  1.0000
  C   C36       1.0  0.06839  0.33428  0.48676  1.0000
  C   C37       1.0  0.93927  0.75336  0.60520  1.0000
  C   C38       1.0  0.06073  0.24664  0.39481  1.0000
  C   C39       1.0  0.01901  0.86015  0.59524  1.0000
  C   C40       1.0  0.98099  0.13985  0.40476  1.0000
  C   C41       1.0  0.82365  0.39225  0.88810  1.0000
  C   C42       1.0  0.17635  0.60775  0.11190  1.0000
  C   C43       1.0  0.94553  0.03758  0.86881  1.0000
  C   C44       1.0  0.05447  0.96243  0.13118  1.0000
  C   C45       1.0  0.48733  0.99535  0.80315  1.0000
  C   C46       1.0  0.51266  0.00465  0.19684  1.0000
  C   C47       1.0  0.56850  0.98593  0.70374  1.0000
  C   C48       1.0  0.43149  0.01407  0.29626  1.0000
  C   C49       1.0  0.54428  0.06349  0.63440  1.0000
  C   C50       1.0  0.45571  0.93651  0.36559  1.0000
  C   C51       1.0  0.44018  0.15091  0.66223  1.0000
  C   C52       1.0  0.55982  0.84909  0.33776  1.0000
  C   C53       1.0  0.36831  0.15860  0.76209  1.0000
  C   C54       1.0  0.63169  0.84140  0.23790  1.0000
  N   N1        1.0  0.39357  0.08413  0.83041  1.0000
  N   N2        1.0  0.60643  0.91587  0.16958  1.0000
  O   O1        1.0  0.73266  0.32064  0.92762  1.0000
  O   O2        1.0  0.26734  0.67936  0.07237  1.0000
  O   O3        1.0  0.97489  0.39941  0.90793  1.0000
  O   O4        1.0  0.02511  0.60059  0.09207  1.0000
  O   O5        1.0  0.00432  0.57834  0.82567  1.0000
  O   O6        1.0  0.99567  0.42166  0.17433  1.0000
  O   O7        1.0  0.03775  0.12447  0.86455  1.0000
  O   O8        1.0  0.96225  0.87553  0.13545  1.0000
  O   O9        1.0  0.84115  0.04145  0.94425  1.0000
  O   O10       1.0  0.15885  0.95855  0.05575  1.0000
  O   O11       1.0  0.85313  0.80112  0.89472  1.0000
  O   O12       1.0  0.14687  0.19888  0.10528  1.0000
  O   O13       1.0  0.49374  0.92229  0.87087  1.0000
  O   O14       1.0  0.50626  0.07772  0.12913  1.0000
  O   O15       1.0  0.75207  0.22548  0.15482  1.0000
  O   O16       1.0  0.24793  0.77451  0.84518  1.0000
  O   O17       1.0  0.57084  0.70358  0.99774  1.0000
  O   O18       1.0  0.42916  0.29642  0.00226  1.0000
