data_image0
_chemical_formula_structural       Li4H28C28O16
_chemical_formula_sum              "Li4 H28 C28 O16"
_cell_length_a       4.61114
_cell_length_b       12.7596
_cell_length_c       13.1582
_cell_angle_alpha    107.61
_cell_angle_beta     89.9999
_cell_angle_gamma    89.9999

_space_group_name_H-M_alt    "P 1"
_space_group_IT_number       1

loop_
  _space_group_symop_operation_xyz
  'x, y, z'

loop_
  _atom_site_type_symbol
  _atom_site_label
  _atom_site_symmetry_multiplicity
  _atom_site_fract_x
  _atom_site_fract_y
  _atom_site_fract_z
  _atom_site_occupancy
  Li  Li1       1.0  0.97347  0.84889  0.50060  1.0000
  Li  Li2       1.0  0.52654  0.34889  0.50060  1.0000
  Li  Li3       1.0  0.02654  0.15111  0.49940  1.0000
  Li  Li4       1.0  0.47346  0.65111  0.49940  1.0000
  H   H1        1.0  0.57367  0.08607  0.21880  1.0000
  H   H2        1.0  0.92633  0.58607  0.21880  1.0000
  H   H3        1.0  0.42634  0.91393  0.78120  1.0000
  H   H4        1.0  0.07367  0.41393  0.78120  1.0000
  H   H5        1.0  0.10214  0.71767  0.10917  1.0000
  H   H6        1.0  0.39786  0.21767  0.10917  1.0000
  H   H7        1.0  0.89786  0.28233  0.89083  1.0000
  H   H8        1.0  0.60214  0.78232  0.89083  1.0000
  H   H9        1.0  0.23751  0.03465  0.06264  1.0000
  H   H10       1.0  0.26249  0.53465  0.06265  1.0000
  H   H11       1.0  0.76250  0.96535  0.93735  1.0000
  H   H12       1.0  0.73750  0.46535  0.93735  1.0000
  H   H13       1.0  0.99757  0.85060  0.01083  1.0000
  H   H14       1.0  0.50243  0.35060  0.01083  1.0000
  H   H15       1.0  0.00243  0.14940  0.98917  1.0000
  H   H16       1.0  0.49756  0.64940  0.98917  1.0000
  H   H17       1.0  0.00226  0.65001  0.40382  1.0000
  H   H18       1.0  0.49775  0.15001  0.40382  1.0000
  H   H19       1.0  0.99775  0.34999  0.59618  1.0000
  H   H20       1.0  0.50226  0.84999  0.59618  1.0000
  H   H21       1.0  0.24881  0.71129  0.35662  1.0000
  H   H22       1.0  0.25119  0.21129  0.35662  1.0000
  H   H23       1.0  0.75119  0.28871  0.64338  1.0000
  H   H24       1.0  0.74881  0.78871  0.64338  1.0000
  H   H25       1.0  0.63229  0.78946  0.32028  1.0000
  H   H26       1.0  0.86770  0.28946  0.32028  1.0000
  H   H27       1.0  0.36771  0.21054  0.67972  1.0000
  H   H28       1.0  0.13229  0.71054  0.67972  1.0000
  C   C1        1.0  0.40321  0.82533  0.21721  1.0000
  C   C2        1.0  0.09678  0.32532  0.21720  1.0000
  C   C3        1.0  0.59678  0.17468  0.78280  1.0000
  C   C4        1.0  0.90322  0.67467  0.78279  1.0000
  C   C5        1.0  0.71216  0.96435  0.34883  1.0000
  C   C6        1.0  0.78784  0.46435  0.34883  1.0000
  C   C7        1.0  0.28785  0.03565  0.65117  1.0000
  C   C8        1.0  0.21216  0.53565  0.65117  1.0000
  C   C9        1.0  0.52667  0.93206  0.25201  1.0000
  C   C10       1.0  0.97333  0.43205  0.25201  1.0000
  C   C11       1.0  0.47333  0.06795  0.74799  1.0000
  C   C12       1.0  0.02667  0.56794  0.74799  1.0000
  C   C13       1.0  0.20672  0.79802  0.13212  1.0000
  C   C14       1.0  0.29328  0.29802  0.13212  1.0000
  C   C15       1.0  0.79328  0.20198  0.86788  1.0000
  C   C16       1.0  0.70672  0.70198  0.86788  1.0000
  C   C17       1.0  0.46638  0.00610  0.19465  1.0000
  C   C18       1.0  0.03362  0.50610  0.19465  1.0000
  C   C19       1.0  0.53363  0.99390  0.80535  1.0000
  C   C20       1.0  0.96638  0.49390  0.80535  1.0000
  C   C21       1.0  0.14803  0.87364  0.07771  1.0000
  C   C22       1.0  0.35197  0.37364  0.07771  1.0000
  C   C23       1.0  0.85198  0.12636  0.92229  1.0000
  C   C24       1.0  0.64802  0.62636  0.92229  1.0000
  C   C25       1.0  0.28088  0.97716  0.10733  1.0000
  C   C26       1.0  0.21912  0.47715  0.10733  1.0000
  C   C27       1.0  0.71912  0.02285  0.89267  1.0000
  C   C28       1.0  0.78088  0.52284  0.89268  1.0000
  O   O1        1.0  0.16298  0.70582  0.42392  1.0000
  O   O2        1.0  0.33703  0.20582  0.42392  1.0000
  O   O3        1.0  0.83703  0.29418  0.57608  1.0000
  O   O4        1.0  0.66298  0.79418  0.57608  1.0000
  O   O5        1.0  0.80122  0.88720  0.38543  1.0000
  O   O6        1.0  0.69877  0.38719  0.38543  1.0000
  O   O7        1.0  0.19878  0.11281  0.61457  1.0000
  O   O8        1.0  0.30123  0.61280  0.61457  1.0000
  O   O9        1.0  0.47605  0.74879  0.26582  1.0000
  O   O10       1.0  0.02394  0.24879  0.26582  1.0000
  O   O11       1.0  0.52394  0.25121  0.73418  1.0000
  O   O12       1.0  0.97605  0.75121  0.73418  1.0000
  O   O13       1.0  0.77062  0.06532  0.39315  1.0000
  O   O14       1.0  0.72938  0.56532  0.39316  1.0000
  O   O15       1.0  0.22939  0.93469  0.60684  1.0000
  O   O16       1.0  0.27063  0.43468  0.60685  1.0000
