data_image0
_chemical_formula_structural       Cu2H18C32N6Cl2O8
_chemical_formula_sum              "Cu2 H18 C32 N6 Cl2 O8"
_cell_length_a       9.24198
_cell_length_b       10.2047
_cell_length_c       12.3686
_cell_angle_alpha    106.184
_cell_angle_beta     94.0421
_cell_angle_gamma    117.496

_space_group_name_H-M_alt    "P 1"
_space_group_IT_number       1

loop_
  _space_group_symop_operation_xyz
  'x, y, z'

loop_
  _atom_site_type_symbol
  _atom_site_label
  _atom_site_symmetry_multiplicity
  _atom_site_fract_x
  _atom_site_fract_y
  _atom_site_fract_z
  _atom_site_occupancy
  Cu  Cu1       1.0  0.35720  0.02602  0.42833  1.0000
  Cu  Cu2       1.0  0.64280  0.97398  0.57167  1.0000
  H   H1        1.0  0.41131  0.26881  0.30530  1.0000
  H   H2        1.0  0.58869  0.73119  0.69470  1.0000
  H   H3        1.0  0.35334  0.49567  0.34016  1.0000
  H   H4        1.0  0.64666  0.50432  0.65984  1.0000
  H   H5        1.0  0.22756  0.55653  0.50143  1.0000
  H   H6        1.0  0.77243  0.44347  0.49857  1.0000
  H   H7        1.0  0.01652  0.28722  0.77983  1.0000
  H   H8        1.0  0.98347  0.71278  0.22017  1.0000
  H   H9        1.0  0.00451  0.04666  0.80697  1.0000
  H   H10       1.0  0.99548  0.95333  0.19303  1.0000
  H   H11       1.0  0.07635  0.82905  0.74216  1.0000
  H   H12       1.0  0.92365  0.17095  0.25784  1.0000
  H   H13       1.0  0.22481  0.81992  0.58130  1.0000
  H   H14       1.0  0.77520  0.18009  0.41870  1.0000
  H   H15       1.0  0.67942  0.17798  0.19677  1.0000
  H   H16       1.0  0.32059  0.82203  0.80324  1.0000
  H   H17       1.0  0.20119  0.80328  0.97787  1.0000
  H   H18       1.0  0.79882  0.19672  0.02213  1.0000
  C   C1        1.0  0.35207  0.29787  0.37414  1.0000
  C   C2        1.0  0.64792  0.70213  0.62586  1.0000
  C   C3        1.0  0.32065  0.42342  0.39461  1.0000
  C   C4        1.0  0.67934  0.57658  0.60539  1.0000
  C   C5        1.0  0.24932  0.45789  0.48536  1.0000
  C   C6        1.0  0.75068  0.54211  0.51464  1.0000
  C   C7        1.0  0.20393  0.36322  0.55548  1.0000
  C   C8        1.0  0.79606  0.63678  0.44452  1.0000
  C   C9        1.0  0.12601  0.37836  0.65226  1.0000
  C   C10       1.0  0.87398  0.62164  0.34774  1.0000
  C   C11       1.0  0.08232  0.27536  0.71135  1.0000
  C   C12       1.0  0.91767  0.72464  0.28865  1.0000
  C   C13       1.0  0.11578  0.14852  0.68166  1.0000
  C   C14       1.0  0.88421  0.85147  0.31834  1.0000
  C   C15       1.0  0.07136  0.03755  0.73865  1.0000
  C   C16       1.0  0.92863  0.96245  0.26135  1.0000
  C   C17       1.0  0.10964  0.91893  0.70275  1.0000
  C   C18       1.0  0.89036  0.08107  0.29725  1.0000
  C   C19       1.0  0.19131  0.91075  0.61129  1.0000
  C   C20       1.0  0.80870  0.08926  0.38871  1.0000
  C   C21       1.0  0.19590  0.13092  0.59006  1.0000
  C   C22       1.0  0.80410  0.86908  0.40994  1.0000
  C   C23       1.0  0.23911  0.23729  0.52723  1.0000
  C   C24       1.0  0.76089  0.76270  0.47277  1.0000
  C   C25       1.0  0.35965  0.97841  0.20102  1.0000
  C   C26       1.0  0.64036  0.02159  0.79898  1.0000
  C   C27       1.0  0.43351  0.99014  0.09768  1.0000
  C   C28       1.0  0.56649  0.00987  0.90232  1.0000
  C   C29       1.0  0.60187  0.10059  0.11009  1.0000
  C   C30       1.0  0.39814  0.89942  0.88992  1.0000
  C   C31       1.0  0.33162  0.88939  0.98670  1.0000
  C   C32       1.0  0.66839  0.11062  0.01330  1.0000
  N   N1        1.0  0.31289  0.20815  0.43950  1.0000
  N   N2        1.0  0.68711  0.79185  0.56050  1.0000
  N   N3        1.0  0.23215  0.01315  0.55588  1.0000
  N   N4        1.0  0.76785  0.98685  0.44412  1.0000
  N   N5        1.0  0.08571  0.50486  0.69321  1.0000
  N   N6        1.0  0.91429  0.49514  0.30679  1.0000
  Cl  Cl1       1.0  0.35259  0.79310  0.40410  1.0000
  Cl  Cl2       1.0  0.64742  0.20690  0.59590  1.0000
  O   O1        1.0  0.46745  0.05635  0.30112  1.0000
  O   O2        1.0  0.53255  0.94365  0.69888  1.0000
  O   O3        1.0  0.20442  0.90062  0.18868  1.0000
  O   O4        1.0  0.79558  0.09938  0.81132  1.0000
  O   O5        1.0  0.08870  0.58128  0.62962  1.0000
  O   O6        1.0  0.91129  0.41872  0.37037  1.0000
  O   O7        1.0  0.05162  0.53007  0.78911  1.0000
  O   O8        1.0  0.94839  0.46994  0.21089  1.0000
