data_image0
_chemical_formula_structural       CuH18C28N8O4
_chemical_formula_sum              "Cu1 H18 C28 N8 O4"
_cell_length_a       7.09629
_cell_length_b       8.03294
_cell_length_c       10.8643
_cell_angle_alpha    97.5003
_cell_angle_beta     96.0338
_cell_angle_gamma    97.8328

_space_group_name_H-M_alt    "P 1"
_space_group_IT_number       1

loop_
  _space_group_symop_operation_xyz
  'x, y, z'

loop_
  _atom_site_type_symbol
  _atom_site_label
  _atom_site_symmetry_multiplicity
  _atom_site_fract_x
  _atom_site_fract_y
  _atom_site_fract_z
  _atom_site_occupancy
  Cu  Cu1       1.0  0.50001  1.00000  0.00000  1.0000
  H   H1        1.0  0.64130  0.42250  0.76526  1.0000
  H   H2        1.0  0.35868  0.57750  0.23475  1.0000
  H   H3        1.0  0.44447  0.13612  0.25850  1.0000
  H   H4        1.0  0.55554  0.86388  0.74150  1.0000
  H   H5        1.0  0.99897  0.37348  0.45030  1.0000
  H   H6        1.0  0.00103  0.62653  0.54970  1.0000
  H   H7        1.0  0.13830  0.28226  0.25630  1.0000
  H   H8        1.0  0.86170  0.71776  0.74370  1.0000
  H   H9        1.0  0.92458  0.11118  0.07347  1.0000
  H   H10       1.0  0.07543  0.88881  0.92654  1.0000
  H   H11       1.0  0.11963  0.06547  0.55032  1.0000
  H   H12       1.0  0.88038  0.93454  0.44968  1.0000
  H   H13       1.0  0.82981  0.01426  0.66032  1.0000
  H   H14       1.0  0.17018  0.98574  0.33966  1.0000
  H   H15       1.0  0.07793  0.43468  0.94661  1.0000
  H   H16       1.0  0.92206  0.56529  0.05339  1.0000
  H   H17       1.0  0.36088  0.48231  0.83934  1.0000
  H   H18       1.0  0.63912  0.51769  0.16066  1.0000
  C   C1        1.0  0.59874  0.17045  0.26180  1.0000
  C   C2        1.0  0.40127  0.82955  0.73821  1.0000
  C   C3        1.0  0.70960  0.25960  0.37059  1.0000
  C   C4        1.0  0.29040  0.74041  0.62941  1.0000
  C   C5        1.0  0.90722  0.30346  0.36830  1.0000
  C   C6        1.0  0.09279  0.69655  0.63171  1.0000
  C   C7        1.0  0.98492  0.25300  0.26011  1.0000
  C   C8        1.0  0.01508  0.74702  0.73990  1.0000
  C   C9        1.0  0.86649  0.15917  0.15732  1.0000
  C   C10       1.0  0.13352  0.84083  0.84268  1.0000
  C   C11       1.0  0.62140  0.30038  0.48417  1.0000
  C   C12       1.0  0.37861  0.69962  0.51584  1.0000
  C   C13       1.0  0.42285  0.30275  0.61764  1.0000
  C   C14       1.0  0.57714  0.69726  0.38235  1.0000
  C   C15       1.0  0.25692  0.27737  0.68503  1.0000
  C   C16       1.0  0.74307  0.72264  0.31497  1.0000
  C   C17       1.0  0.10590  0.14603  0.63644  1.0000
  C   C18       1.0  0.89409  0.85397  0.36355  1.0000
  C   C19       1.0  0.94610  0.11723  0.69885  1.0000
  C   C20       1.0  0.05389  0.88277  0.30114  1.0000
  C   C21       1.0  0.93359  0.22198  0.81059  1.0000
  C   C22       1.0  0.06640  0.77801  0.18940  1.0000
  C   C23       1.0  0.08444  0.35305  0.85943  1.0000
  C   C24       1.0  0.91557  0.64695  0.14056  1.0000
  C   C25       1.0  0.24584  0.37991  0.79833  1.0000
  C   C26       1.0  0.75415  0.62009  0.20167  1.0000
  C   C27       1.0  0.76112  0.19808  0.87881  1.0000
  C   C28       1.0  0.23887  0.80191  0.12119  1.0000
  N   N1        1.0  0.67535  0.12082  0.15727  1.0000
  N   N2        1.0  0.32465  0.87918  0.84274  1.0000
  N   N3        1.0  0.43500  0.24350  0.49808  1.0000
  N   N4        1.0  0.56500  0.75650  0.50192  1.0000
  N   N5        1.0  0.59521  0.39343  0.67055  1.0000
  N   N6        1.0  0.40478  0.60657  0.32945  1.0000
  N   N7        1.0  0.72396  0.39160  0.58770  1.0000
  N   N8        1.0  0.27604  0.60840  0.41231  1.0000
  O   O1        1.0  0.70877  0.04300  0.89769  1.0000
  O   O2        1.0  0.29126  0.95698  0.10231  1.0000
  O   O3        1.0  0.68157  0.32270  0.91497  1.0000
  O   O4        1.0  0.31841  0.67728  0.08502  1.0000
