data_image0
_chemical_formula_structural       Mn2H64C48S4N20
_chemical_formula_sum              "Mn2 H64 C48 S4 N20"
_cell_length_a       9.61359
_cell_length_b       11.4701
_cell_length_c       14.6094
_cell_angle_alpha    81.0154
_cell_angle_beta     71.2469
_cell_angle_gamma    65.2353

_space_group_name_H-M_alt    "P 1"
_space_group_IT_number       1

loop_
  _space_group_symop_operation_xyz
  'x, y, z'

loop_
  _atom_site_type_symbol
  _atom_site_label
  _atom_site_symmetry_multiplicity
  _atom_site_fract_x
  _atom_site_fract_y
  _atom_site_fract_z
  _atom_site_occupancy
  Mn  Mn1       1.0  0.46722  0.25052  0.75010  1.0000
  Mn  Mn2       1.0  0.53278  0.74949  0.24990  1.0000
  H   H1        1.0  0.29169  0.25126  0.97471  1.0000
  H   H2        1.0  0.48373  0.75207  0.47381  1.0000
  H   H3        1.0  0.70833  0.74874  0.02527  1.0000
  H   H4        1.0  0.51626  0.24792  0.52621  1.0000
  H   H5        1.0  0.63271  0.13208  0.89896  1.0000
  H   H6        1.0  0.33617  0.63132  0.39867  1.0000
  H   H7        1.0  0.36728  0.86792  0.10104  1.0000
  H   H8        1.0  0.66384  0.36869  0.60132  1.0000
  H   H9        1.0  0.96816  0.53187  0.74403  1.0000
  H   H10       1.0  0.75503  0.03157  0.24435  1.0000
  H   H11       1.0  0.03184  0.46814  0.25595  1.0000
  H   H12       1.0  0.24495  0.96843  0.75568  1.0000
  H   H13       1.0  0.97665  0.37931  0.72635  1.0000
  H   H14       1.0  0.91632  0.87896  0.22750  1.0000
  H   H15       1.0  0.02335  0.62069  0.27364  1.0000
  H   H16       1.0  0.08367  0.12105  0.77253  1.0000
  H   H17       1.0  0.15468  0.40984  0.68695  1.0000
  H   H18       1.0  0.74755  0.90927  0.18682  1.0000
  H   H19       1.0  0.84534  0.59015  0.31303  1.0000
  H   H20       1.0  0.25244  0.09074  0.81320  1.0000
  H   H21       1.0  0.95243  0.23254  0.12385  1.0000
  H   H22       1.0  0.69331  0.73317  0.62448  1.0000
  H   H23       1.0  0.04760  0.76744  0.87613  1.0000
  H   H24       1.0  0.30667  0.26683  0.37555  1.0000
  H   H25       1.0  0.87577  0.40037  0.13738  1.0000
  H   H26       1.0  0.58824  0.90099  0.63811  1.0000
  H   H27       1.0  0.12425  0.59961  0.86261  1.0000
  H   H28       1.0  0.41173  0.09901  0.36191  1.0000
  H   H29       1.0  0.07594  0.30264  0.13904  1.0000
  H   H30       1.0  0.48526  0.80298  0.63837  1.0000
  H   H31       1.0  0.92409  0.69735  0.86093  1.0000
  H   H32       1.0  0.51472  0.19702  0.36165  1.0000
  H   H33       1.0  0.74116  0.54598  0.91158  1.0000
  H   H34       1.0  0.80191  0.04592  0.41243  1.0000
  H   H35       1.0  0.25884  0.45402  0.08840  1.0000
  H   H36       1.0  0.19808  0.95407  0.58760  1.0000
  H   H37       1.0  0.71869  0.47230  0.02667  1.0000
  H   H38       1.0  0.78623  0.97146  0.52720  1.0000
  H   H39       1.0  0.28133  0.52770  0.97332  1.0000
  H   H40       1.0  0.21378  0.02852  0.47282  1.0000
  H   H41       1.0  0.62823  0.56173  0.75318  1.0000
  H   H42       1.0  0.05555  0.06125  0.25296  1.0000
  H   H43       1.0  0.37180  0.43824  0.24679  1.0000
  H   H44       1.0  0.94440  0.93878  0.74707  1.0000
  H   H45       1.0  0.49230  0.61890  0.86666  1.0000
  H   H46       1.0  0.02248  0.11852  0.36657  1.0000
  H   H47       1.0  0.50773  0.38110  0.13331  1.0000
  H   H48       1.0  0.97751  0.88148  0.63346  1.0000
  H   H49       1.0  0.43869  0.55262  0.78749  1.0000
  H   H50       1.0  0.22026  0.05180  0.28787  1.0000
  H   H51       1.0  0.56133  0.44737  0.21250  1.0000
  H   H52       1.0  0.77971  0.94821  0.71214  1.0000
  H   H53       1.0  0.82760  0.05177  0.99741  1.0000
  H   H54       1.0  0.12399  0.55137  0.49726  1.0000
  H   H55       1.0  0.17240  0.94823  0.00258  1.0000
  H   H56       1.0  0.87602  0.44862  0.50274  1.0000
  H   H57       1.0  0.78235  0.17253  0.07691  1.0000
  H   H58       1.0  0.97022  0.67276  0.57608  1.0000
  H   H59       1.0  0.21765  0.82746  0.92309  1.0000
  H   H60       1.0  0.02979  0.32724  0.42392  1.0000
  H   H61       1.0  0.95570  0.13548  0.97569  1.0000
  H   H62       1.0  0.93433  0.63549  0.47438  1.0000
  H   H63       1.0  0.04430  0.86451  0.02430  1.0000
  H   H64       1.0  0.06568  0.36450  0.52562  1.0000
  C   C1        1.0  0.04175  0.42808  0.74389  1.0000
  C   C2        1.0  0.78538  0.92774  0.24426  1.0000
  C   C3        1.0  0.95826  0.57192  0.25608  1.0000
  C   C4        1.0  0.21460  0.07226  0.75577  1.0000
  C   C5        1.0  0.07014  0.38268  0.84016  1.0000
  C   C6        1.0  0.70693  0.88269  0.34027  1.0000
  C   C7        1.0  0.92986  0.61732  0.15982  1.0000
  C   C8        1.0  0.29306  0.11730  0.65975  1.0000
  C   C9        1.0  0.95354  0.39231  0.93054  1.0000
  C   C10       1.0  0.72449  0.89247  0.43093  1.0000
  C   C11       1.0  0.04647  0.60768  0.06944  1.0000
  C   C12       1.0  0.27550  0.10752  0.56909  1.0000
  C   C13       1.0  0.03891  0.33630  0.99839  1.0000
  C   C14       1.0  0.62780  0.83699  0.49849  1.0000
  C   C15       1.0  0.96111  0.66369  0.00159  1.0000
  C   C16       1.0  0.37219  0.16300  0.50153  1.0000
  C   C17       1.0  0.98328  0.31714  0.10500  1.0000
  C   C18       1.0  0.59672  0.81772  0.60519  1.0000
  C   C19       1.0  0.01674  0.68284  0.89498  1.0000
  C   C20       1.0  0.40326  0.18227  0.39483  1.0000
  C   C21       1.0  0.77555  0.45171  0.94921  1.0000
  C   C22       1.0  0.82524  0.95143  0.44968  1.0000
  C   C23       1.0  0.22445  0.54829  0.05078  1.0000
  C   C24       1.0  0.17476  0.04856  0.55033  1.0000
  C   C25       1.0  0.53675  0.54307  0.81452  1.0000
  C   C26       1.0  0.10510  0.04259  0.31457  1.0000
  C   C27       1.0  0.46327  0.45692  0.18547  1.0000
  C   C28       1.0  0.89488  0.95743  0.68545  1.0000
  C   C29       1.0  0.60332  0.41344  0.85933  1.0000
  C   C30       1.0  0.12374  0.91298  0.35932  1.0000
  C   C31       1.0  0.39669  0.58656  0.14066  1.0000
  C   C32       1.0  0.87626  0.08702  0.64069  1.0000
  C   C33       1.0  0.70893  0.37231  0.91763  1.0000
  C   C34       1.0  0.00205  0.87199  0.41760  1.0000
  C   C35       1.0  0.29107  0.62769  0.08236  1.0000
  C   C36       1.0  0.99795  0.12801  0.58241  1.0000
  C   C37       1.0  0.73586  0.24293  0.94042  1.0000
  C   C38       1.0  0.08185  0.74240  0.43994  1.0000
  C   C39       1.0  0.26413  0.75708  0.05958  1.0000
  C   C40       1.0  0.91815  0.25760  0.56006  1.0000
  C   C41       1.0  0.83075  0.14552  0.00059  1.0000
  C   C42       1.0  0.02449  0.64532  0.49986  1.0000
  C   C43       1.0  0.16925  0.85448  0.99941  1.0000
  C   C44       1.0  0.97552  0.35467  0.50014  1.0000
  C   C45       1.0  0.36745  0.53520  0.64223  1.0000
  C   C46       1.0  0.45436  0.03530  0.14276  1.0000
  C   C47       1.0  0.63254  0.46481  0.35778  1.0000
  C   C48       1.0  0.54564  0.96472  0.85722  1.0000
  S   S1        1.0  0.28045  0.68768  0.62453  1.0000
  S   S2        1.0  0.40897  0.18749  0.12464  1.0000
  S   S3        1.0  0.71955  0.31231  0.37547  1.0000
  S   S4        1.0  0.59103  0.81254  0.87534  1.0000
  N   N1        1.0  0.21817  0.32499  0.85165  1.0000
  N   N2        1.0  0.60514  0.82534  0.35130  1.0000
  N   N3        1.0  0.78183  0.67502  0.14833  1.0000
  N   N4        1.0  0.39484  0.17466  0.64872  1.0000
  N   N5        1.0  0.19576  0.29752  0.94785  1.0000
  N   N6        1.0  0.55965  0.79837  0.44747  1.0000
  N   N7        1.0  0.80425  0.70248  0.05213  1.0000
  N   N8        1.0  0.44034  0.20162  0.55254  1.0000
  N   N9        1.0  0.56738  0.31587  0.84756  1.0000
  N   N10       1.0  0.26859  0.81513  0.34722  1.0000
  N   N11       1.0  0.43261  0.68413  0.15244  1.0000
  N   N12       1.0  0.73141  0.18488  0.65278  1.0000
  N   N13       1.0  0.65031  0.21469  0.89652  1.0000
  N   N14       1.0  0.23860  0.71386  0.39578  1.0000
  N   N15       1.0  0.34969  0.78532  0.10348  1.0000
  N   N16       1.0  0.76140  0.28614  0.60421  1.0000
  N   N17       1.0  0.43122  0.42258  0.65725  1.0000
  N   N18       1.0  0.48680  0.92294  0.15805  1.0000
  N   N19       1.0  0.56878  0.57741  0.34276  1.0000
  N   N20       1.0  0.51320  0.07709  0.84194  1.0000
