data_image0
_chemical_formula_structural       Nd2H20C24O16
_chemical_formula_sum              "Nd2 H20 C24 O16"
_cell_length_a       6.20968
_cell_length_b       10.2335
_cell_length_c       10.1012
_cell_angle_alpha    102.468
_cell_angle_beta     92.1414
_cell_angle_gamma    101.776

_space_group_name_H-M_alt    "P 1"
_space_group_IT_number       1

loop_
  _space_group_symop_operation_xyz
  'x, y, z'

loop_
  _atom_site_type_symbol
  _atom_site_label
  _atom_site_symmetry_multiplicity
  _atom_site_fract_x
  _atom_site_fract_y
  _atom_site_fract_z
  _atom_site_occupancy
  Nd  Nd1       1.0  0.50762  0.48774  0.24598  1.0000
  Nd  Nd2       1.0  0.49238  0.51226  0.75402  1.0000
  H   H1        1.0  0.07776  0.54703  0.14109  1.0000
  H   H2        1.0  0.92224  0.45297  0.85891  1.0000
  H   H3        1.0  0.84637  0.58949  0.51048  1.0000
  H   H4        1.0  0.15364  0.41051  0.48952  1.0000
  H   H5        1.0  0.97994  0.54928  0.38381  1.0000
  H   H6        1.0  0.02007  0.45072  0.61619  1.0000
  H   H7        1.0  0.22904  0.60878  0.03878  1.0000
  H   H8        1.0  0.77096  0.39122  0.96122  1.0000
  H   H9        1.0  0.74280  0.16218  0.97452  1.0000
  H   H10       1.0  0.25720  0.83782  0.02548  1.0000
  H   H11       1.0  0.65001  0.90586  0.91731  1.0000
  H   H12       1.0  0.35000  0.09415  0.08269  1.0000
  H   H13       1.0  0.92452  0.90406  0.31265  1.0000
  H   H14       1.0  0.07549  0.09594  0.68735  1.0000
  H   H15       1.0  0.03677  0.16011  0.36693  1.0000
  H   H16       1.0  0.96324  0.83989  0.63307  1.0000
  H   H17       1.0  0.32903  0.79925  0.31246  1.0000
  H   H18       1.0  0.67098  0.20075  0.68754  1.0000
  H   H19       1.0  0.37610  0.03786  0.27754  1.0000
  H   H20       1.0  0.62390  0.96214  0.72246  1.0000
  C   C1        1.0  0.95234  0.32995  0.20750  1.0000
  C   C2        1.0  0.04766  0.67005  0.79250  1.0000
  C   C3        1.0  0.89524  0.17734  0.17426  1.0000
  C   C4        1.0  0.10477  0.82266  0.82574  1.0000
  C   C5        1.0  0.78505  0.10555  0.04781  1.0000
  C   C6        1.0  0.21494  0.89445  0.95220  1.0000
  C   C7        1.0  0.73181  0.96323  0.01593  1.0000
  C   C8        1.0  0.26819  0.03677  0.98407  1.0000
  C   C9        1.0  0.77971  0.89054  0.11172  1.0000
  C   C10       1.0  0.22029  0.10946  0.88828  1.0000
  C   C11       1.0  0.88927  0.96186  0.23868  1.0000
  C   C12       1.0  0.11074  0.03814  0.76131  1.0000
  C   C13       1.0  0.95057  0.10432  0.26875  1.0000
  C   C14       1.0  0.04944  0.89568  0.73125  1.0000
  C   C15       1.0  0.70751  0.73762  0.07785  1.0000
  C   C16       1.0  0.29249  0.26238  0.92216  1.0000
  C   C17       1.0  0.45206  0.72574  0.54205  1.0000
  C   C18       1.0  0.54793  0.27426  0.45795  1.0000
  C   C19       1.0  0.47536  0.86722  0.51998  1.0000
  C   C20       1.0  0.52464  0.13278  0.48002  1.0000
  C   C21       1.0  0.40371  0.88744  0.39406  1.0000
  C   C22       1.0  0.59630  0.11256  0.60594  1.0000
  C   C23       1.0  0.42929  0.01985  0.37459  1.0000
  C   C24       1.0  0.57071  0.98015  0.62541  1.0000
  O   O1        1.0  0.84405  0.39598  0.14429  1.0000
  O   O2        1.0  0.15594  0.60401  0.85570  1.0000
  O   O3        1.0  0.10943  0.39378  0.29878  1.0000
  O   O4        1.0  0.89057  0.60623  0.70122  1.0000
  O   O5        1.0  0.62845  0.67804  0.95665  1.0000
  O   O6        1.0  0.37155  0.32195  0.04335  1.0000
  O   O7        1.0  0.72385  0.67448  0.17194  1.0000
  O   O8        1.0  0.27614  0.32552  0.82806  1.0000
  O   O9        1.0  0.40358  0.62534  0.43828  1.0000
  O   O10       1.0  0.59642  0.37466  0.56173  1.0000
  O   O11       1.0  0.48106  0.71057  0.66254  1.0000
  O   O12       1.0  0.51892  0.28944  0.33747  1.0000
  O   O13       1.0  0.85005  0.58607  0.41246  1.0000
  O   O14       1.0  0.14995  0.41393  0.58754  1.0000
  O   O15       1.0  0.22985  0.59567  0.13273  1.0000
  O   O16       1.0  0.77015  0.40433  0.86727  1.0000
