data_image0
_chemical_formula_structural       Er2H20C24O16
_chemical_formula_sum              "Er2 H20 C24 O16"
_cell_length_a       6.1219
_cell_length_b       9.98685
_cell_length_c       10.0145
_cell_angle_alpha    102.767
_cell_angle_beta     91.4439
_cell_angle_gamma    100.333

_space_group_name_H-M_alt    "P 1"
_space_group_IT_number       1

loop_
  _space_group_symop_operation_xyz
  'x, y, z'

loop_
  _atom_site_type_symbol
  _atom_site_label
  _atom_site_symmetry_multiplicity
  _atom_site_fract_x
  _atom_site_fract_y
  _atom_site_fract_z
  _atom_site_occupancy
  Er  Er1       1.0  0.01458  0.51582  0.75822  1.0000
  Er  Er2       1.0  0.98541  0.48419  0.24178  1.0000
  H   H1        1.0  0.72897  0.47475  0.51577  1.0000
  H   H2        1.0  0.27103  0.52526  0.48424  1.0000
  H   H3        1.0  0.55550  0.45953  0.62690  1.0000
  H   H4        1.0  0.44450  0.54047  0.37310  1.0000
  H   H5        1.0  0.26844  0.39249  0.95975  1.0000
  H   H6        1.0  0.73155  0.60750  0.04025  1.0000
  H   H7        1.0  0.43066  0.44868  0.85710  1.0000
  H   H8        1.0  0.56933  0.55132  0.14290  1.0000
  H   H9        1.0  0.75732  0.84320  0.03594  1.0000
  H   H10       1.0  0.24269  0.15679  0.96406  1.0000
  H   H11       1.0  0.84920  0.10444  0.08763  1.0000
  H   H12       1.0  0.15080  0.89556  0.91237  1.0000
  H   H13       1.0  0.59447  0.09924  0.68299  1.0000
  H   H14       1.0  0.40554  0.90075  0.31701  1.0000
  H   H15       1.0  0.47826  0.83783  0.63594  1.0000
  H   H16       1.0  0.52174  0.16217  0.36406  1.0000
  H   H17       1.0  0.85558  0.04300  0.28277  1.0000
  H   H18       1.0  0.14442  0.95700  0.71723  1.0000
  H   H19       1.0  0.18711  0.20105  0.68522  1.0000
  H   H20       1.0  0.81289  0.79895  0.31478  1.0000
  C   C1        1.0  0.55711  0.66999  0.80243  1.0000
  C   C2        1.0  0.44290  0.33001  0.19758  1.0000
  C   C3        1.0  0.61421  0.82523  0.83240  1.0000
  C   C4        1.0  0.38580  0.17477  0.16760  1.0000
  C   C5        1.0  0.71929  0.89961  0.95962  1.0000
  C   C6        1.0  0.28071  0.10039  0.04038  1.0000
  C   C7        1.0  0.77159  0.04447  0.98846  1.0000
  C   C8        1.0  0.22841  0.95553  0.01155  1.0000
  C   C9        1.0  0.73010  0.11630  0.88823  1.0000
  C   C10       1.0  0.26990  0.88370  0.11177  1.0000
  C   C11       1.0  0.62506  0.04214  0.76039  1.0000
  C   C12       1.0  0.37494  0.95785  0.23962  1.0000
  C   C13       1.0  0.56235  0.89731  0.73390  1.0000
  C   C14       1.0  0.43765  0.10269  0.26610  1.0000
  C   C15       1.0  0.80749  0.27107  0.91870  1.0000
  C   C16       1.0  0.19252  0.72894  0.08131  1.0000
  C   C17       1.0  0.04841  0.28192  0.46033  1.0000
  C   C18       1.0  0.95158  0.71808  0.53966  1.0000
  C   C19       1.0  0.02259  0.13672  0.48160  1.0000
  C   C20       1.0  0.97742  0.86328  0.51839  1.0000
  C   C21       1.0  0.91744  0.02306  0.37784  1.0000
  C   C22       1.0  0.08257  0.97694  0.62216  1.0000
  C   C23       1.0  0.10591  0.11280  0.60429  1.0000
  C   C24       1.0  0.89409  0.88720  0.39571  1.0000
  O   O1        1.0  0.67664  0.60222  0.86033  1.0000
  O   O2        1.0  0.32337  0.39777  0.13967  1.0000
  O   O3        1.0  0.39216  0.60691  0.71832  1.0000
  O   O4        1.0  0.60785  0.39309  0.28168  1.0000
  O   O5        1.0  0.80883  0.33209  0.81989  1.0000
  O   O6        1.0  0.19117  0.66791  0.18010  1.0000
  O   O7        1.0  0.87419  0.33416  0.04176  1.0000
  O   O8        1.0  0.12580  0.66584  0.95824  1.0000
  O   O9        1.0  0.11932  0.38468  0.56334  1.0000
  O   O10       1.0  0.88068  0.61532  0.43665  1.0000
  O   O11       1.0  0.00461  0.29874  0.34131  1.0000
  O   O12       1.0  0.99538  0.70126  0.65869  1.0000
  O   O13       1.0  0.69321  0.43023  0.59346  1.0000
  O   O14       1.0  0.30679  0.56977  0.40655  1.0000
  O   O15       1.0  0.27665  0.40073  0.86323  1.0000
  O   O16       1.0  0.72334  0.59928  0.13678  1.0000
