data_image0
_chemical_formula_structural       Ag4H24C40N12O20
_chemical_formula_sum              "Ag4 H24 C40 N12 O20"
_cell_length_a       12.6806
_cell_length_b       13.1721
_cell_length_c       13.2047
_cell_angle_alpha    115.815
_cell_angle_beta     118.714
_cell_angle_gamma    90.0275

_space_group_name_H-M_alt    "P 1"
_space_group_IT_number       1

loop_
  _space_group_symop_operation_xyz
  'x, y, z'

loop_
  _atom_site_type_symbol
  _atom_site_label
  _atom_site_symmetry_multiplicity
  _atom_site_fract_x
  _atom_site_fract_y
  _atom_site_fract_z
  _atom_site_occupancy
  Ag  Ag1       1.0  0.53736  0.40170  0.57219  1.0000
  Ag  Ag2       1.0  0.96501  0.59826  0.42774  1.0000
  Ag  Ag3       1.0  0.46264  0.59829  0.42780  1.0000
  Ag  Ag4       1.0  0.03499  0.40174  0.57226  1.0000
  H   H1        1.0  0.23669  0.57896  0.47320  1.0000
  H   H2        1.0  0.76331  0.42103  0.52679  1.0000
  H   H3        1.0  0.12323  0.80752  0.24669  1.0000
  H   H4        1.0  0.87678  0.19250  0.75333  1.0000
  H   H5        1.0  0.38169  0.97386  0.44995  1.0000
  H   H6        1.0  0.93186  0.02601  0.54979  1.0000
  H   H7        1.0  0.61832  0.02613  0.55006  1.0000
  H   H8        1.0  0.06814  0.97399  0.45021  1.0000
  H   H9        1.0  0.33032  0.05453  0.14878  1.0000
  H   H10       1.0  0.18180  0.94590  0.85148  1.0000
  H   H11       1.0  0.66967  0.94547  0.85122  1.0000
  H   H12       1.0  0.81819  0.05410  0.14852  1.0000
  H   H13       1.0  0.27933  0.83842  0.98869  1.0000
  H   H14       1.0  0.29057  0.16212  0.01154  1.0000
  H   H15       1.0  0.72066  0.16158  0.01131  1.0000
  H   H16       1.0  0.70942  0.83787  0.98846  1.0000
  H   H17       1.0  0.28126  0.69425  0.06216  1.0000
  H   H18       1.0  0.21885  0.30607  0.93775  1.0000
  H   H19       1.0  0.71874  0.30575  0.93784  1.0000
  H   H20       1.0  0.78116  0.69393  0.06225  1.0000
  H   H21       1.0  0.15245  0.03307  0.30526  1.0000
  H   H22       1.0  0.84755  0.96693  0.69473  1.0000
  H   H23       1.0  0.29980  0.45594  0.59951  1.0000
  H   H24       1.0  0.70020  0.54406  0.40049  1.0000
  C   C1        1.0  0.20952  0.62683  0.41891  1.0000
  C   C2        1.0  0.79048  0.37317  0.58109  1.0000
  C   C3        1.0  0.25770  0.72008  0.32943  1.0000
  C   C4        1.0  0.92819  0.27993  0.67042  1.0000
  C   C5        1.0  0.74231  0.27992  0.67057  1.0000
  C   C6        1.0  0.07182  0.72008  0.32959  1.0000
  C   C7        1.0  0.14845  0.75650  0.29694  1.0000
  C   C8        1.0  0.85156  0.24351  0.70307  1.0000
  C   C9        1.0  0.33153  0.82625  0.25924  1.0000
  C   C10       1.0  0.07228  0.17384  0.74059  1.0000
  C   C11       1.0  0.66847  0.17375  0.74076  1.0000
  C   C12       1.0  0.92772  0.82616  0.25942  1.0000
  C   C13       1.0  0.35814  0.94444  0.34888  1.0000
  C   C14       1.0  0.00939  0.05560  0.65094  1.0000
  C   C15       1.0  0.64186  0.05556  0.65112  1.0000
  C   C16       1.0  0.99061  0.94441  0.34906  1.0000
  C   C17       1.0  0.35442  0.02334  0.30400  1.0000
  C   C18       1.0  0.05064  0.97682  0.69596  1.0000
  C   C19       1.0  0.64558  0.97666  0.69600  1.0000
  C   C20       1.0  0.94935  0.02318  0.30404  1.0000
  C   C21       1.0  0.32780  0.98823  0.17653  1.0000
  C   C22       1.0  0.15144  0.01210  0.82356  1.0000
  C   C23       1.0  0.67219  0.01177  0.82347  1.0000
  C   C24       1.0  0.84855  0.98790  0.17644  1.0000
  C   C25       1.0  0.30154  0.86918  0.08974  1.0000
  C   C26       1.0  0.21179  0.13122  0.91036  1.0000
  C   C27       1.0  0.69846  0.13082  0.91026  1.0000
  C   C28       1.0  0.78820  0.86878  0.08964  1.0000
  C   C29       1.0  0.30269  0.78713  0.13039  1.0000
  C   C30       1.0  0.17219  0.21316  0.86957  1.0000
  C   C31       1.0  0.69731  0.21287  0.86961  1.0000
  C   C32       1.0  0.82781  0.78685  0.13043  1.0000
  C   C33       1.0  0.18647  0.12680  0.37319  1.0000
  C   C34       1.0  0.81352  0.87320  0.62681  1.0000
  C   C35       1.0  0.30342  0.19080  0.42083  1.0000
  C   C36       1.0  0.88280  0.80925  0.57920  1.0000
  C   C37       1.0  0.69657  0.80920  0.57917  1.0000
  C   C38       1.0  0.11719  0.19075  0.42079  1.0000
  C   C39       1.0  0.26851  0.36087  0.53704  1.0000
  C   C40       1.0  0.73148  0.63913  0.46295  1.0000
  N   N1        1.0  0.55895  0.65497  0.73436  1.0000
  N   N2        1.0  0.82456  0.34508  0.26583  1.0000
  N   N3        1.0  0.44105  0.34502  0.26564  1.0000
  N   N4        1.0  0.17544  0.65492  0.73417  1.0000
  N   N5        1.0  0.34444  0.30758  0.50177  1.0000
  N   N6        1.0  0.84277  0.69247  0.49825  1.0000
  N   N7        1.0  0.65555  0.69242  0.49823  1.0000
  N   N8        1.0  0.15723  0.30753  0.50174  1.0000
  N   N9        1.0  0.28849  0.65528  0.38979  1.0000
  N   N10       1.0  0.89855  0.34473  0.61007  1.0000
  N   N11       1.0  0.71151  0.34472  0.61021  1.0000
  N   N12       1.0  0.10145  0.65527  0.38993  1.0000
  O   O1        1.0  0.55808  0.76029  0.78079  1.0000
  O   O2        1.0  0.77737  0.23964  0.21915  1.0000
  O   O3        1.0  0.44192  0.23970  0.21921  1.0000
  O   O4        1.0  0.22263  0.76036  0.78085  1.0000
  O   O5        1.0  0.64554  0.61908  0.79836  1.0000
  O   O6        1.0  0.84729  0.38128  0.20211  1.0000
  O   O7        1.0  0.35446  0.38091  0.20163  1.0000
  O   O8        1.0  0.15271  0.61872  0.79789  1.0000
  O   O9        1.0  0.46785  0.57874  0.61511  1.0000
  O   O10       1.0  0.85241  0.42111  0.38496  1.0000
  O   O11       1.0  0.53215  0.42126  0.38488  1.0000
  O   O12       1.0  0.14759  0.57889  0.61504  1.0000
  O   O13       1.0  0.34175  0.74431  0.30266  1.0000
  O   O14       1.0  0.03897  0.25567  0.69700  1.0000
  O   O15       1.0  0.65826  0.25569  0.69734  1.0000
  O   O16       1.0  0.96104  0.74434  0.30301  1.0000
  O   O17       1.0  0.38665  0.14389  0.39237  1.0000
  O   O18       1.0  0.99454  0.85625  0.60771  1.0000
  O   O19       1.0  0.61335  0.85611  0.60763  1.0000
  O   O20       1.0  0.00545  0.14375  0.39229  1.0000
