data_image0
_chemical_formula_structural       Yb2H28C24O20
_chemical_formula_sum              "Yb2 H28 C24 O20"
_cell_length_a       7.39278
_cell_length_b       9.75255
_cell_length_c       10.4487
_cell_angle_alpha    88.7744
_cell_angle_beta     80.8298
_cell_angle_gamma    84.8942

_space_group_name_H-M_alt    "P 1"
_space_group_IT_number       1

loop_
  _space_group_symop_operation_xyz
  'x, y, z'

loop_
  _atom_site_type_symbol
  _atom_site_label
  _atom_site_symmetry_multiplicity
  _atom_site_fract_x
  _atom_site_fract_y
  _atom_site_fract_z
  _atom_site_occupancy
  Yb  Yb1       1.0  0.78837  0.74098  0.96357  1.0000
  Yb  Yb2       1.0  0.21163  0.25901  0.03643  1.0000
  H   H1        1.0  0.95614  0.88860  0.73403  1.0000
  H   H2        1.0  0.04387  0.11139  0.26597  1.0000
  H   H3        1.0  0.14046  0.83471  0.79222  1.0000
  H   H4        1.0  0.85954  0.16529  0.20778  1.0000
  H   H5        1.0  0.87410  0.02985  0.94142  1.0000
  H   H6        1.0  0.12585  0.97016  0.05856  1.0000
  H   H7        1.0  0.74706  0.02713  0.07735  1.0000
  H   H8        1.0  0.25295  0.97287  0.92265  1.0000
  H   H9        1.0  0.15026  0.59081  0.93853  1.0000
  H   H10       1.0  0.84975  0.40919  0.06148  1.0000
  H   H11       1.0  0.12791  0.65728  0.07870  1.0000
  H   H12       1.0  0.87210  0.34272  0.92131  1.0000
  H   H13       1.0  0.41028  0.77631  0.95720  1.0000
  H   H14       1.0  0.58972  0.22369  0.04280  1.0000
  H   H15       1.0  0.40384  0.70532  0.09948  1.0000
  H   H16       1.0  0.59616  0.29468  0.90051  1.0000
  H   H17       1.0  0.84377  0.78825  0.40273  1.0000
  H   H18       1.0  0.15622  0.21175  0.59727  1.0000
  H   H19       1.0  0.85373  0.71862  0.63433  1.0000
  H   H20       1.0  0.14626  0.28138  0.36568  1.0000
  H   H21       1.0  0.68106  0.32458  0.56088  1.0000
  H   H22       1.0  0.31893  0.67542  0.43912  1.0000
  H   H23       1.0  0.67569  0.39176  0.32778  1.0000
  H   H24       1.0  0.32431  0.60824  0.67222  1.0000
  H   H25       1.0  0.26845  0.84065  0.59218  1.0000
  H   H26       1.0  0.73157  0.15936  0.40782  1.0000
  H   H27       1.0  0.73269  0.06429  0.63089  1.0000
  H   H28       1.0  0.26732  0.93571  0.36911  1.0000
  C   C1        1.0  0.75978  0.59434  0.35173  1.0000
  C   C2        1.0  0.24022  0.40566  0.64827  1.0000
  C   C3        1.0  0.80841  0.68688  0.43855  1.0000
  C   C4        1.0  0.19158  0.31313  0.56145  1.0000
  C   C5        1.0  0.81304  0.64873  0.56679  1.0000
  C   C6        1.0  0.18694  0.35127  0.43321  1.0000
  C   C7        1.0  0.76728  0.51782  0.61129  1.0000
  C   C8        1.0  0.23270  0.48218  0.38872  1.0000
  C   C9        1.0  0.71889  0.42510  0.52443  1.0000
  C   C10       1.0  0.28110  0.57490  0.47558  1.0000
  C   C11       1.0  0.71556  0.46258  0.39540  1.0000
  C   C12       1.0  0.28443  0.53742  0.60460  1.0000
  C   C13       1.0  0.75771  0.64025  0.21499  1.0000
  C   C14       1.0  0.24228  0.35975  0.78502  1.0000
  C   C15       1.0  0.77253  0.47871  0.75040  1.0000
  C   C16       1.0  0.22747  0.52129  0.24960  1.0000
  C   C17       1.0  0.50135  0.94586  0.62481  1.0000
  C   C18       1.0  0.49866  0.05415  0.37519  1.0000
  C   C19       1.0  0.36834  0.91197  0.55195  1.0000
  C   C20       1.0  0.63167  0.08804  0.44805  1.0000
  C   C21       1.0  0.63286  0.03485  0.57235  1.0000
  C   C22       1.0  0.36716  0.96516  0.42765  1.0000
  C   C23       1.0  0.50532  0.88482  0.75640  1.0000
  C   C24       1.0  0.49469  0.11519  0.24361  1.0000
  O   O1        1.0  0.77474  0.76691  0.18567  1.0000
  O   O2        1.0  0.22526  0.23309  0.81434  1.0000
  O   O3        1.0  0.74099  0.55565  0.12590  1.0000
  O   O4        1.0  0.25901  0.44435  0.87410  1.0000
  O   O5        1.0  0.78646  0.57450  0.82906  1.0000
  O   O6        1.0  0.21353  0.42550  0.17094  1.0000
  O   O7        1.0  0.76668  0.35302  0.78452  1.0000
  O   O8        1.0  0.23332  0.64698  0.21549  1.0000
  O   O9        1.0  0.65581  0.87245  0.79989  1.0000
  O   O10       1.0  0.34420  0.12756  0.20012  1.0000
  O   O11       1.0  0.35366  0.84617  0.81988  1.0000
  O   O12       1.0  0.64635  0.15383  0.18011  1.0000
  O   O13       1.0  0.00815  0.82139  0.79103  1.0000
  O   O14       1.0  0.99185  0.17860  0.20897  1.0000
  O   O15       1.0  0.81702  0.96801  0.00684  1.0000
  O   O16       1.0  0.18300  0.03199  0.99316  1.0000
  O   O17       1.0  0.08249  0.66758  0.99342  1.0000
  O   O18       1.0  0.91751  0.33242  0.00658  1.0000
  O   O19       1.0  0.48200  0.75291  0.02923  1.0000
  O   O20       1.0  0.51800  0.24708  0.97076  1.0000
