data_image0
_chemical_formula_structural       Pr4P4H40C16S4O28
_chemical_formula_sum              "Pr4 P4 H40 C16 S4 O28"
_cell_length_a       7.18133
_cell_length_b       10.832
_cell_length_c       13.303
_cell_angle_alpha    90.0001
_cell_angle_beta     90
_cell_angle_gamma    105.023

_space_group_name_H-M_alt    "P 1"
_space_group_IT_number       1

loop_
  _space_group_symop_operation_xyz
  'x, y, z'

loop_
  _atom_site_type_symbol
  _atom_site_label
  _atom_site_symmetry_multiplicity
  _atom_site_fract_x
  _atom_site_fract_y
  _atom_site_fract_z
  _atom_site_occupancy
  Pr  Pr1       1.0  0.24396  0.48932  0.42287  1.0000
  Pr  Pr2       1.0  0.25604  0.51068  0.92287  1.0000
  Pr  Pr3       1.0  0.75604  0.51068  0.57713  1.0000
  Pr  Pr4       1.0  0.74396  0.48932  0.07713  1.0000
  P   P1        1.0  0.28467  0.60111  0.15083  1.0000
  P   P2        1.0  0.21533  0.39890  0.65082  1.0000
  P   P3        1.0  0.71533  0.39890  0.84917  1.0000
  P   P4        1.0  0.78467  0.60110  0.34918  1.0000
  H   H1        1.0  0.26196  0.27009  0.29182  1.0000
  H   H2        1.0  0.23804  0.72991  0.79182  1.0000
  H   H3        1.0  0.73804  0.72991  0.70818  1.0000
  H   H4        1.0  0.76196  0.27009  0.20818  1.0000
  H   H5        1.0  0.46242  0.28379  0.34400  1.0000
  H   H6        1.0  0.03757  0.71621  0.84400  1.0000
  H   H7        1.0  0.53758  0.71621  0.65600  1.0000
  H   H8        1.0  0.96243  0.28379  0.15600  1.0000
  H   H9        1.0  0.31411  0.78941  0.24979  1.0000
  H   H10       1.0  0.18589  0.21059  0.74978  1.0000
  H   H11       1.0  0.68590  0.21059  0.75021  1.0000
  H   H12       1.0  0.81410  0.78940  0.25022  1.0000
  H   H13       1.0  0.52065  0.79980  0.17517  1.0000
  H   H14       1.0  0.97935  0.20020  0.67517  1.0000
  H   H15       1.0  0.47935  0.20020  0.82483  1.0000
  H   H16       1.0  0.02065  0.79980  0.32483  1.0000
  H   H17       1.0  0.12719  0.82006  0.09460  1.0000
  H   H18       1.0  0.37281  0.17994  0.59460  1.0000
  H   H19       1.0  0.87281  0.17994  0.90540  1.0000
  H   H20       1.0  0.62719  0.82006  0.40540  1.0000
  H   H21       1.0  0.33367  0.83839  0.02113  1.0000
  H   H22       1.0  0.16633  0.16161  0.52113  1.0000
  H   H23       1.0  0.66633  0.16161  0.97887  1.0000
  H   H24       1.0  0.83367  0.83838  0.47887  1.0000
  H   H25       1.0  0.49988  0.03446  0.12887  1.0000
  H   H26       1.0  0.00012  0.96554  0.62887  1.0000
  H   H27       1.0  0.50012  0.96554  0.87113  1.0000
  H   H28       1.0  0.99988  0.03446  0.37113  1.0000
  H   H29       1.0  0.28488  0.01065  0.19856  1.0000
  H   H30       1.0  0.21511  0.98935  0.69856  1.0000
  H   H31       1.0  0.71511  0.98935  0.80144  1.0000
  H   H32       1.0  0.78489  0.01065  0.30144  1.0000
  H   H33       1.0  0.10740  0.02750  0.03392  1.0000
  H   H34       1.0  0.39260  0.97250  0.53392  1.0000
  H   H35       1.0  0.89260  0.97250  0.96608  1.0000
  H   H36       1.0  0.60740  0.02750  0.46608  1.0000
  H   H37       1.0  0.33515  0.07822  0.97332  1.0000
  H   H38       1.0  0.16485  0.92177  0.47332  1.0000
  H   H39       1.0  0.66485  0.92177  0.02668  1.0000
  H   H40       1.0  0.83515  0.07823  0.52668  1.0000
  C   C1        1.0  0.36182  0.77329  0.17338  1.0000
  C   C2        1.0  0.13818  0.22671  0.67338  1.0000
  C   C3        1.0  0.63819  0.22671  0.82662  1.0000
  C   C4        1.0  0.86181  0.77329  0.32662  1.0000
  C   C5        1.0  0.28537  0.85398  0.09755  1.0000
  C   C6        1.0  0.21462  0.14602  0.59755  1.0000
  C   C7        1.0  0.71462  0.14602  0.90245  1.0000
  C   C8        1.0  0.78538  0.85398  0.40245  1.0000
  C   C9        1.0  0.34236  0.99645  0.12391  1.0000
  C   C10       1.0  0.15764  0.00355  0.62391  1.0000
  C   C11       1.0  0.65763  0.00355  0.87609  1.0000
  C   C12       1.0  0.84236  0.99645  0.37610  1.0000
  C   C13       1.0  0.26122  0.07173  0.04607  1.0000
  C   C14       1.0  0.23877  0.92827  0.54607  1.0000
  C   C15       1.0  0.73877  0.92827  0.95393  1.0000
  C   C16       1.0  0.76123  0.07173  0.45393  1.0000
  S   S1        1.0  0.27169  0.23086  0.08421  1.0000
  S   S2        1.0  0.22829  0.76913  0.58421  1.0000
  S   S3        1.0  0.72831  0.76914  0.91579  1.0000
  S   S4        1.0  0.77171  0.23087  0.41579  1.0000
  O   O1        1.0  0.25163  0.53778  0.25330  1.0000
  O   O2        1.0  0.24838  0.46222  0.75331  1.0000
  O   O3        1.0  0.74837  0.46222  0.74670  1.0000
  O   O4        1.0  0.75163  0.53778  0.24669  1.0000
  O   O5        1.0  0.10182  0.57110  0.08271  1.0000
  O   O6        1.0  0.39818  0.42890  0.58271  1.0000
  O   O7        1.0  0.89818  0.42890  0.91729  1.0000
  O   O8        1.0  0.60182  0.57110  0.41729  1.0000
  O   O9        1.0  0.44042  0.56162  0.08650  1.0000
  O   O10       1.0  0.05959  0.43838  0.58650  1.0000
  O   O11       1.0  0.55958  0.43838  0.91350  1.0000
  O   O12       1.0  0.94041  0.56162  0.41350  1.0000
  O   O13       1.0  0.15198  0.21837  0.17579  1.0000
  O   O14       1.0  0.34803  0.78164  0.67580  1.0000
  O   O15       1.0  0.84803  0.78164  0.82421  1.0000
  O   O16       1.0  0.65197  0.21836  0.32420  1.0000
  O   O17       1.0  0.47504  0.29273  0.10510  1.0000
  O   O18       1.0  0.02497  0.70727  0.60510  1.0000
  O   O19       1.0  0.52497  0.70727  0.89490  1.0000
  O   O20       1.0  0.97503  0.29273  0.39490  1.0000
  O   O21       1.0  0.18902  0.28878  0.00032  1.0000
  O   O22       1.0  0.31098  0.71122  0.50033  1.0000
  O   O23       1.0  0.81098  0.71122  0.99968  1.0000
  O   O24       1.0  0.68902  0.28878  0.49967  1.0000
  O   O25       1.0  0.33496  0.30093  0.35395  1.0000
  O   O26       1.0  0.16505  0.69907  0.85395  1.0000
  O   O27       1.0  0.66504  0.69907  0.64605  1.0000
  O   O28       1.0  0.83495  0.30093  0.14605  1.0000
