data_image0
_chemical_formula_structural       Sm4P4H40C16S4O28
_chemical_formula_sum              "Sm4 P4 H40 C16 S4 O28"
_cell_length_a       7.09279
_cell_length_b       10.7992
_cell_length_c       13.0856
_cell_angle_alpha    90
_cell_angle_beta     89.9999
_cell_angle_gamma    104.49

_space_group_name_H-M_alt    "P 1"
_space_group_IT_number       1

loop_
  _space_group_symop_operation_xyz
  'x, y, z'

loop_
  _atom_site_type_symbol
  _atom_site_label
  _atom_site_symmetry_multiplicity
  _atom_site_fract_x
  _atom_site_fract_y
  _atom_site_fract_z
  _atom_site_occupancy
  Sm  Sm1       1.0  0.24461  0.49008  0.42442  1.0000
  Sm  Sm2       1.0  0.25539  0.50992  0.92442  1.0000
  Sm  Sm3       1.0  0.75539  0.50992  0.57558  1.0000
  Sm  Sm4       1.0  0.74461  0.49008  0.07558  1.0000
  P   P1        1.0  0.28165  0.59965  0.15170  1.0000
  P   P2        1.0  0.21835  0.40036  0.65169  1.0000
  P   P3        1.0  0.71835  0.40035  0.84830  1.0000
  P   P4        1.0  0.78165  0.59964  0.34831  1.0000
  H   H1        1.0  0.27119  0.27862  0.29168  1.0000
  H   H2        1.0  0.22881  0.72138  0.79168  1.0000
  H   H3        1.0  0.72881  0.72138  0.70832  1.0000
  H   H4        1.0  0.77119  0.27862  0.20832  1.0000
  H   H5        1.0  0.47418  0.29470  0.34467  1.0000
  H   H6        1.0  0.02582  0.70530  0.84467  1.0000
  H   H7        1.0  0.52582  0.70530  0.65533  1.0000
  H   H8        1.0  0.97419  0.29470  0.15533  1.0000
  H   H9        1.0  0.32087  0.78921  0.25198  1.0000
  H   H10       1.0  0.17913  0.21079  0.75198  1.0000
  H   H11       1.0  0.67913  0.21079  0.74802  1.0000
  H   H12       1.0  0.82087  0.78921  0.24802  1.0000
  H   H13       1.0  0.52357  0.79695  0.17192  1.0000
  H   H14       1.0  0.97643  0.20306  0.67192  1.0000
  H   H15       1.0  0.47643  0.20305  0.82808  1.0000
  H   H16       1.0  0.02357  0.79695  0.32808  1.0000
  H   H17       1.0  0.32631  0.83778  0.01975  1.0000
  H   H18       1.0  0.17369  0.16222  0.51975  1.0000
  H   H19       1.0  0.67369  0.16222  0.98025  1.0000
  H   H20       1.0  0.82631  0.83778  0.48025  1.0000
  H   H21       1.0  0.12198  0.82104  0.09754  1.0000
  H   H22       1.0  0.37802  0.17896  0.59754  1.0000
  H   H23       1.0  0.87802  0.17896  0.90246  1.0000
  H   H24       1.0  0.62198  0.82104  0.40247  1.0000
  H   H25       1.0  0.28345  0.01169  0.20072  1.0000
  H   H26       1.0  0.21655  0.98831  0.70072  1.0000
  H   H27       1.0  0.71655  0.98831  0.79928  1.0000
  H   H28       1.0  0.78345  0.01169  0.29928  1.0000
  H   H29       1.0  0.50083  0.03214  0.13041  1.0000
  H   H30       1.0  0.99917  0.96786  0.63041  1.0000
  H   H31       1.0  0.49917  0.96786  0.86959  1.0000
  H   H32       1.0  0.00083  0.03214  0.36959  1.0000
  H   H33       1.0  0.10621  0.03205  0.03374  1.0000
  H   H34       1.0  0.39379  0.96795  0.53374  1.0000
  H   H35       1.0  0.89379  0.96795  0.96626  1.0000
  H   H36       1.0  0.60621  0.03205  0.46627  1.0000
  H   H37       1.0  0.33593  0.07610  0.97123  1.0000
  H   H38       1.0  0.16407  0.92390  0.47123  1.0000
  H   H39       1.0  0.66407  0.92390  0.02877  1.0000
  H   H40       1.0  0.83593  0.07610  0.52877  1.0000
  C   C1        1.0  0.36311  0.77210  0.17326  1.0000
  C   C2        1.0  0.13689  0.22790  0.67326  1.0000
  C   C3        1.0  0.63689  0.22790  0.82674  1.0000
  C   C4        1.0  0.86311  0.77210  0.32674  1.0000
  C   C5        1.0  0.28179  0.85379  0.09821  1.0000
  C   C6        1.0  0.21821  0.14621  0.59821  1.0000
  C   C7        1.0  0.71821  0.14621  0.90179  1.0000
  C   C8        1.0  0.78179  0.85379  0.40179  1.0000
  C   C9        1.0  0.34160  0.99622  0.12504  1.0000
  C   C10       1.0  0.15840  0.00378  0.62504  1.0000
  C   C11       1.0  0.65840  0.00378  0.87496  1.0000
  C   C12       1.0  0.84160  0.99622  0.37496  1.0000
  C   C13       1.0  0.26247  0.07285  0.04533  1.0000
  C   C14       1.0  0.23753  0.92715  0.54533  1.0000
  C   C15       1.0  0.73753  0.92715  0.95467  1.0000
  C   C16       1.0  0.76247  0.07285  0.45467  1.0000
  S   S1        1.0  0.27920  0.23383  0.08176  1.0000
  S   S2        1.0  0.22082  0.76617  0.58176  1.0000
  S   S3        1.0  0.72080  0.76617  0.91824  1.0000
  S   S4        1.0  0.77919  0.23383  0.41824  1.0000
  O   O1        1.0  0.24586  0.53858  0.25655  1.0000
  O   O2        1.0  0.25415  0.46143  0.75656  1.0000
  O   O3        1.0  0.75414  0.46142  0.74345  1.0000
  O   O4        1.0  0.74586  0.53857  0.24344  1.0000
  O   O5        1.0  0.09802  0.57130  0.08171  1.0000
  O   O6        1.0  0.40197  0.42870  0.58171  1.0000
  O   O7        1.0  0.90198  0.42870  0.91829  1.0000
  O   O8        1.0  0.59803  0.57130  0.41829  1.0000
  O   O9        1.0  0.43652  0.55537  0.08704  1.0000
  O   O10       1.0  0.06348  0.44463  0.58704  1.0000
  O   O11       1.0  0.56348  0.44463  0.91296  1.0000
  O   O12       1.0  0.93652  0.55537  0.41296  1.0000
  O   O13       1.0  0.16129  0.22560  0.17565  1.0000
  O   O14       1.0  0.33870  0.77440  0.67565  1.0000
  O   O15       1.0  0.83871  0.77440  0.82435  1.0000
  O   O16       1.0  0.66130  0.22560  0.32435  1.0000
  O   O17       1.0  0.48579  0.29306  0.10058  1.0000
  O   O18       1.0  0.01420  0.70694  0.60058  1.0000
  O   O19       1.0  0.51421  0.70694  0.89942  1.0000
  O   O20       1.0  0.98581  0.29306  0.39942  1.0000
  O   O21       1.0  0.19459  0.29126  0.99614  1.0000
  O   O22       1.0  0.30541  0.70875  0.49614  1.0000
  O   O23       1.0  0.80541  0.70874  0.00386  1.0000
  O   O24       1.0  0.69459  0.29126  0.50386  1.0000
  O   O25       1.0  0.34426  0.31070  0.35472  1.0000
  O   O26       1.0  0.15573  0.68930  0.85473  1.0000
  O   O27       1.0  0.65574  0.68930  0.64528  1.0000
  O   O28       1.0  0.84427  0.31070  0.14527  1.0000
