data_image0
_chemical_formula_structural       Zn2H48C60N4O8
_chemical_formula_sum              "Zn2 H48 C60 N4 O8"
_cell_length_a       9.363
_cell_length_b       9.81526
_cell_length_c       14.496
_cell_angle_alpha    106.954
_cell_angle_beta     97.4055
_cell_angle_gamma    102.009

_space_group_name_H-M_alt    "P 1"
_space_group_IT_number       1

loop_
  _space_group_symop_operation_xyz
  'x, y, z'

loop_
  _atom_site_type_symbol
  _atom_site_label
  _atom_site_symmetry_multiplicity
  _atom_site_fract_x
  _atom_site_fract_y
  _atom_site_fract_z
  _atom_site_occupancy
  Zn  Zn1       1.0  0.08272  0.61368  0.90973  1.0000
  Zn  Zn2       1.0  0.91728  0.38632  0.09027  1.0000
  H   H1        1.0  0.40967  0.77928  0.00526  1.0000
  H   H2        1.0  0.59033  0.22072  0.99474  1.0000
  H   H3        1.0  0.54922  0.02323  0.12949  1.0000
  H   H4        1.0  0.45078  0.97677  0.87051  1.0000
  H   H5        1.0  0.12329  0.12482  0.14995  1.0000
  H   H6        1.0  0.87671  0.87518  0.85005  1.0000
  H   H7        1.0  0.00517  0.87676  0.02653  1.0000
  H   H8        1.0  0.99483  0.12323  0.97347  1.0000
  H   H9        1.0  0.55152  0.25496  0.24163  1.0000
  H   H10       1.0  0.44848  0.74504  0.75837  1.0000
  H   H11       1.0  0.24412  0.32230  0.25355  1.0000
  H   H12       1.0  0.75588  0.67769  0.74645  1.0000
  H   H13       1.0  0.66767  0.45532  0.34965  1.0000
  H   H14       1.0  0.33233  0.54468  0.65035  1.0000
  H   H15       1.0  0.78645  0.69062  0.48156  1.0000
  H   H16       1.0  0.21355  0.30938  0.51844  1.0000
  H   H17       1.0  0.35697  0.78078  0.49767  1.0000
  H   H18       1.0  0.64303  0.21922  0.50233  1.0000
  H   H19       1.0  0.23663  0.54253  0.36525  1.0000
  H   H20       1.0  0.76337  0.45747  0.63475  1.0000
  H   H21       1.0  0.56885  0.94927  0.61152  1.0000
  H   H22       1.0  0.43115  0.05073  0.38848  1.0000
  H   H23       1.0  0.86852  0.93184  0.54881  1.0000
  H   H24       1.0  0.13148  0.06816  0.45119  1.0000
  H   H25       1.0  0.06299  0.16155  0.61442  1.0000
  H   H26       1.0  0.93702  0.83846  0.38558  1.0000
  H   H27       1.0  0.16541  0.41249  0.73897  1.0000
  H   H28       1.0  0.83459  0.58751  0.26103  1.0000
  H   H29       1.0  0.78842  0.37761  0.86035  1.0000
  H   H30       1.0  0.21158  0.62240  0.13965  1.0000
  H   H31       1.0  0.66901  0.12888  0.74225  1.0000
  H   H32       1.0  0.33099  0.87112  0.25775  1.0000
  H   H33       1.0  0.29488  0.97392  0.60982  1.0000
  H   H34       1.0  0.70512  0.02608  0.39018  1.0000
  H   H35       1.0  0.46336  0.22688  0.67963  1.0000
  H   H36       1.0  0.53664  0.77312  0.32037  1.0000
  H   H37       1.0  0.47155  0.38224  0.85013  1.0000
  H   H38       1.0  0.52845  0.61776  0.14987  1.0000
  H   H39       1.0  0.14922  0.02757  0.88483  1.0000
  H   H40       1.0  0.85078  0.97242  0.11516  1.0000
  H   H41       1.0  0.98775  0.83836  0.68222  1.0000
  H   H42       1.0  0.01225  0.16164  0.31778  1.0000
  H   H43       1.0  0.13201  0.77282  0.62876  1.0000
  H   H44       1.0  0.86799  0.22718  0.37124  1.0000
  H   H45       1.0  0.43278  0.37921  0.01570  1.0000
  H   H46       1.0  0.56722  0.62079  0.98431  1.0000
  H   H47       1.0  0.28704  0.24103  0.02864  1.0000
  H   H48       1.0  0.71296  0.75897  0.97137  1.0000
  C   C1        1.0  0.35175  0.85973  0.03969  1.0000
  C   C2        1.0  0.64824  0.14027  0.96031  1.0000
  C   C3        1.0  0.42814  0.99536  0.10885  1.0000
  C   C4        1.0  0.57186  0.00464  0.89115  1.0000
  C   C5        1.0  0.34920  0.09597  0.15255  1.0000
  C   C6        1.0  0.65080  0.90402  0.84746  1.0000
  C   C7        1.0  0.19267  0.05230  0.12121  1.0000
  C   C8        1.0  0.80733  0.94769  0.87880  1.0000
  C   C9        1.0  0.12555  0.91532  0.05184  1.0000
  C   C10       1.0  0.87445  0.08468  0.94816  1.0000
  C   C11       1.0  0.43030  0.23655  0.22589  1.0000
  C   C12       1.0  0.56970  0.76345  0.77411  1.0000
  C   C13       1.0  0.36534  0.34140  0.27217  1.0000
  C   C14       1.0  0.63466  0.65860  0.72782  1.0000
  C   C15       1.0  0.44250  0.48120  0.34754  1.0000
  C   C16       1.0  0.55750  0.51880  0.65246  1.0000
  C   C17       1.0  0.59902  0.52643  0.38181  1.0000
  C   C18       1.0  0.40098  0.47357  0.61819  1.0000
  C   C19       1.0  0.66588  0.65979  0.45536  1.0000
  C   C20       1.0  0.33412  0.34021  0.54464  1.0000
  C   C21       1.0  0.58081  0.75530  0.49836  1.0000
  C   C22       1.0  0.41919  0.24470  0.50163  1.0000
  C   C23       1.0  0.42484  0.70894  0.46531  1.0000
  C   C24       1.0  0.57516  0.29106  0.53469  1.0000
  C   C25       1.0  0.35744  0.57583  0.39101  1.0000
  C   C26       1.0  0.64256  0.42417  0.60899  1.0000
  C   C27       1.0  0.64685  0.89915  0.57196  1.0000
  C   C28       1.0  0.35315  0.10085  0.42804  1.0000
  C   C29       1.0  0.79138  0.97703  0.59185  1.0000
  C   C30       1.0  0.20862  0.02297  0.40814  1.0000
  C   C31       1.0  0.85372  0.12256  0.66465  1.0000
  C   C32       1.0  0.14628  0.87745  0.33535  1.0000
  C   C33       1.0  0.99633  0.20627  0.66622  1.0000
  C   C34       1.0  0.00367  0.79373  0.33378  1.0000
  C   C35       1.0  0.05519  0.34549  0.73572  1.0000
  C   C36       1.0  0.94481  0.65452  0.26428  1.0000
  C   C37       1.0  0.84417  0.32670  0.80332  1.0000
  C   C38       1.0  0.15583  0.67331  0.19667  1.0000
  C   C39       1.0  0.77804  0.18725  0.73654  1.0000
  C   C40       1.0  0.22195  0.81275  0.26345  1.0000
  C   C41       1.0  0.20815  0.98384  0.74197  1.0000
  C   C42       1.0  0.79185  0.01616  0.25803  1.0000
  C   C43       1.0  0.29898  0.04101  0.68537  1.0000
  C   C44       1.0  0.70102  0.95899  0.31463  1.0000
  C   C45       1.0  0.39339  0.18349  0.72429  1.0000
  C   C46       1.0  0.60661  0.81651  0.27571  1.0000
  C   C47       1.0  0.39866  0.27062  0.82018  1.0000
  C   C48       1.0  0.60134  0.72937  0.17982  1.0000
  C   C49       1.0  0.31081  0.21538  0.87907  1.0000
  C   C50       1.0  0.68919  0.78461  0.12093  1.0000
  C   C51       1.0  0.21626  0.07233  0.83905  1.0000
  C   C52       1.0  0.78374  0.92766  0.16096  1.0000
  C   C53       1.0  0.10340  0.83058  0.69831  1.0000
  C   C54       1.0  0.89660  0.16942  0.30169  1.0000
  C   C55       1.0  0.11222  0.73846  0.76680  1.0000
  C   C56       1.0  0.88778  0.26153  0.23319  1.0000
  C   C57       1.0  0.31840  0.30989  0.98343  1.0000
  C   C58       1.0  0.68160  0.69011  0.01657  1.0000
  C   C59       1.0  0.21318  0.41096  0.98612  1.0000
  C   C60       1.0  0.78683  0.58903  0.01388  1.0000
  N   N1        1.0  0.20229  0.81880  0.01171  1.0000
  N   N2        1.0  0.79771  0.18119  0.98829  1.0000
  N   N3        1.0  0.98041  0.40586  0.80349  1.0000
  N   N4        1.0  0.01959  0.59414  0.19651  1.0000
  O   O1        1.0  0.22115  0.68326  0.77566  1.0000
  O   O2        1.0  0.77885  0.31674  0.22434  1.0000
  O   O3        1.0  0.00655  0.72415  0.81458  1.0000
  O   O4        1.0  0.99345  0.27584  0.18542  1.0000
  O   O5        1.0  0.09418  0.37758  0.01646  1.0000
  O   O6        1.0  0.90582  0.62242  0.98354  1.0000
  O   O7        1.0  0.25151  0.51982  0.95550  1.0000
  O   O8        1.0  0.74850  0.48018  0.04450  1.0000
