data_image0
_chemical_formula_structural       Zn2H48C60N4O8
_chemical_formula_sum              "Zn2 H48 C60 N4 O8"
_cell_length_a       5.33972
_cell_length_b       12.6544
_cell_length_c       21.4235
_cell_angle_alpha    92.0213
_cell_angle_beta     90.0185
_cell_angle_gamma    102.157

_space_group_name_H-M_alt    "P 1"
_space_group_IT_number       1

loop_
  _space_group_symop_operation_xyz
  'x, y, z'

loop_
  _atom_site_type_symbol
  _atom_site_label
  _atom_site_symmetry_multiplicity
  _atom_site_fract_x
  _atom_site_fract_y
  _atom_site_fract_z
  _atom_site_occupancy
  Zn  Zn1       1.0  0.38271  0.99993  0.74999  1.0000
  Zn  Zn2       1.0  0.61727  0.00007  0.25001  1.0000
  H   H1        1.0  0.37788  0.91743  0.61921  1.0000
  H   H2        1.0  0.46102  0.08232  0.88080  1.0000
  H   H3        1.0  0.62213  0.08255  0.38080  1.0000
  H   H4        1.0  0.53896  0.91768  0.11920  1.0000
  H   H5        1.0  0.08632  0.79094  0.54701  1.0000
  H   H6        1.0  0.29664  0.20889  0.95307  1.0000
  H   H7        1.0  0.91371  0.20904  0.45299  1.0000
  H   H8        1.0  0.70331  0.79112  0.04692  1.0000
  H   H9        1.0  0.54353  0.73225  0.69889  1.0000
  H   H10       1.0  0.81231  0.26819  0.80127  1.0000
  H   H11       1.0  0.45645  0.26774  0.30110  1.0000
  H   H12       1.0  0.18764  0.73180  0.19872  1.0000
  H   H13       1.0  0.86064  0.85817  0.76472  1.0000
  H   H14       1.0  0.00281  0.14213  0.73539  1.0000
  H   H15       1.0  0.13932  0.14183  0.23528  1.0000
  H   H16       1.0  0.99715  0.85786  0.26461  1.0000
  H   H17       1.0  0.68237  0.67518  0.52495  1.0000
  H   H18       1.0  0.00886  0.32519  0.97522  1.0000
  H   H19       1.0  0.31769  0.32481  0.47504  1.0000
  H   H20       1.0  0.99111  0.67481  0.02477  1.0000
  H   H21       1.0  0.30451  0.62490  0.63394  1.0000
  H   H22       1.0  0.68048  0.37499  0.86616  1.0000
  H   H23       1.0  0.69551  0.37509  0.36606  1.0000
  H   H24       1.0  0.31949  0.62503  0.13383  1.0000
  H   H25       1.0  0.40421  0.60660  0.45685  1.0000
  H   H26       1.0  0.79758  0.39336  0.04320  1.0000
  H   H27       1.0  0.59584  0.39338  0.54315  1.0000
  H   H28       1.0  0.20242  0.60664  0.95680  1.0000
  H   H29       1.0  0.92233  0.49927  0.61411  1.0000
  H   H30       1.0  0.42339  0.50090  0.88586  1.0000
  H   H31       1.0  0.07773  0.50070  0.38590  1.0000
  H   H32       1.0  0.57661  0.49911  0.11414  1.0000
  H   H33       1.0  0.73784  0.24443  0.58127  1.0000
  H   H34       1.0  0.49357  0.75558  0.91880  1.0000
  H   H35       1.0  0.26222  0.75557  0.41873  1.0000
  H   H36       1.0  0.50642  0.24442  0.08119  1.0000
  H   H37       1.0  0.93836  0.15579  0.60529  1.0000
  H   H38       1.0  0.78262  0.84416  0.89480  1.0000
  H   H39       1.0  0.06164  0.84421  0.39472  1.0000
  H   H40       1.0  0.21739  0.15584  0.10520  1.0000
  H   H41       1.0  0.88513  0.97505  0.55744  1.0000
  H   H42       1.0  0.91024  0.02480  0.94270  1.0000
  H   H43       1.0  0.11489  0.02495  0.44257  1.0000
  H   H44       1.0  0.08975  0.97521  0.05730  1.0000
  H   H45       1.0  0.32410  0.16381  0.52152  1.0000
  H   H46       1.0  0.16023  0.83634  0.97834  1.0000
  H   H47       1.0  0.67590  0.83619  0.47849  1.0000
  H   H48       1.0  0.83976  0.16367  0.02166  1.0000
  C   C1        1.0  0.19181  0.87375  0.63491  1.0000
  C   C2        1.0  0.31873  0.12614  0.86515  1.0000
  C   C3        1.0  0.80820  0.12623  0.36510  1.0000
  C   C4        1.0  0.68124  0.87387  0.13485  1.0000
  C   C5        1.0  0.02753  0.80262  0.59503  1.0000
  C   C6        1.0  0.22587  0.19731  0.90508  1.0000
  C   C7        1.0  0.97249  0.19737  0.40497  1.0000
  C   C8        1.0  0.77409  0.80270  0.09492  1.0000
  C   C9        1.0  0.78579  0.74868  0.61606  1.0000
  C   C10       1.0  0.03831  0.25150  0.88410  1.0000
  C   C11       1.0  0.21421  0.25131  0.38394  1.0000
  C   C12       1.0  0.96165  0.74850  0.11590  1.0000
  C   C13       1.0  0.72707  0.76945  0.67883  1.0000
  C   C14       1.0  0.95852  0.23082  0.82133  1.0000
  C   C15       1.0  0.27293  0.23054  0.32117  1.0000
  C   C16       1.0  0.04143  0.76918  0.17867  1.0000
  C   C17       1.0  0.90222  0.84051  0.71626  1.0000
  C   C18       1.0  0.06215  0.15965  0.78387  1.0000
  C   C19       1.0  0.09778  0.15949  0.28374  1.0000
  C   C20       1.0  0.93779  0.84035  0.21613  1.0000
  C   C21       1.0  0.61073  0.67942  0.57255  1.0000
  C   C22       1.0  0.93282  0.32091  0.92762  1.0000
  C   C23       1.0  0.38930  0.32056  0.42745  1.0000
  C   C24       1.0  0.06714  0.67909  0.07237  1.0000
  C   C25       1.0  0.37250  0.62345  0.58582  1.0000
  C   C26       1.0  0.75010  0.37666  0.91428  1.0000
  C   C27       1.0  0.62752  0.37654  0.41417  1.0000
  C   C28       1.0  0.24989  0.62335  0.08572  1.0000
  C   C29       1.0  0.18941  0.56074  0.54149  1.0000
  C   C30       1.0  0.62910  0.43937  0.95852  1.0000
  C   C31       1.0  0.81062  0.43925  0.45850  1.0000
  C   C32       1.0  0.37088  0.56064  0.04148  1.0000
  C   C33       1.0  0.22792  0.56021  0.47632  1.0000
  C   C34       1.0  0.66765  0.43979  0.02372  1.0000
  C   C35       1.0  0.77212  0.43977  0.52367  1.0000
  C   C36       1.0  0.33233  0.56021  0.97628  1.0000
  C   C37       1.0  0.95678  0.49923  0.56388  1.0000
  C   C38       1.0  0.45781  0.50084  0.93609  1.0000
  C   C39       1.0  0.04327  0.50075  0.43612  1.0000
  C   C40       1.0  0.54218  0.49917  0.06391  1.0000
  C   C41       1.0  0.57365  0.13651  0.65291  1.0000
  C   C42       1.0  0.43712  0.86342  0.84713  1.0000
  C   C43       1.0  0.42636  0.86351  0.34709  1.0000
  C   C44       1.0  0.56288  0.13660  0.15287  1.0000
  C   C45       1.0  0.74058  0.16189  0.59483  1.0000
  C   C46       1.0  0.57876  0.83809  0.90522  1.0000
  C   C47       1.0  0.25945  0.83812  0.40518  1.0000
  C   C48       1.0  0.42124  0.16192  0.09479  1.0000
  C   C49       1.0  0.71611  0.98630  0.53225  1.0000
  C   C50       1.0  0.72997  0.01364  0.96784  1.0000
  C   C51       1.0  0.28389  0.01370  0.46776  1.0000
  C   C52       1.0  0.27003  0.98636  0.03216  1.0000
  C   C53       1.0  0.62281  0.08045  0.54422  1.0000
  C   C54       1.0  0.54237  0.91960  0.95577  1.0000
  C   C55       1.0  0.37723  0.91956  0.45579  1.0000
  C   C56       1.0  0.45763  0.08040  0.04423  1.0000
  C   C57       1.0  0.40360  0.09245  0.51151  1.0000
  C   C58       1.0  0.31109  0.90763  0.98841  1.0000
  C   C59       1.0  0.59640  0.90754  0.48850  1.0000
  C   C60       1.0  0.68891  0.09237  0.01159  1.0000
  N   N1        1.0  0.13102  0.89288  0.69478  1.0000
  N   N2        1.0  0.23849  0.10709  0.80530  1.0000
  N   N3        1.0  0.86896  0.10712  0.30522  1.0000
  N   N4        1.0  0.76148  0.89291  0.19470  1.0000
  O   O1        1.0  0.63563  0.06215  0.68682  1.0000
  O   O2        1.0  0.57362  0.93756  0.81312  1.0000
  O   O3        1.0  0.36433  0.93784  0.31317  1.0000
  O   O4        1.0  0.42640  0.06246  0.18689  1.0000
  O   O5        1.0  0.38885  0.18054  0.66256  1.0000
  O   O6        1.0  0.20812  0.81965  0.83756  1.0000
  O   O7        1.0  0.61123  0.81950  0.33745  1.0000
  O   O8        1.0  0.79188  0.18038  0.16244  1.0000
