data_image0
_chemical_formula_structural       Pr2H16C18N2O22
_chemical_formula_sum              "Pr2 H16 C18 N2 O22"
_cell_length_a       8.53277
_cell_length_b       8.98934
_cell_length_c       9.4779
_cell_angle_alpha    99.1754
_cell_angle_beta     116.444
_cell_angle_gamma    92.0782

_space_group_name_H-M_alt    "P 1"
_space_group_IT_number       1

loop_
  _space_group_symop_operation_xyz
  'x, y, z'

loop_
  _atom_site_type_symbol
  _atom_site_label
  _atom_site_symmetry_multiplicity
  _atom_site_fract_x
  _atom_site_fract_y
  _atom_site_fract_z
  _atom_site_occupancy
  Pr  Pr1       1.0  0.67746  0.29546  0.30990  1.0000
  Pr  Pr2       1.0  0.32254  0.70454  0.69010  1.0000
  H   H1        1.0  0.18961  0.93996  0.91884  1.0000
  H   H2        1.0  0.81039  0.06005  0.08117  1.0000
  H   H3        1.0  0.38744  0.45410  0.34542  1.0000
  H   H4        1.0  0.61256  0.54590  0.65458  1.0000
  H   H5        1.0  0.38668  0.50760  0.20379  1.0000
  H   H6        1.0  0.61331  0.49239  0.79620  1.0000
  H   H7        1.0  0.87253  0.43315  0.12549  1.0000
  H   H8        1.0  0.12747  0.56687  0.87450  1.0000
  H   H9        1.0  0.96273  0.50470  0.31078  1.0000
  H   H10       1.0  0.03728  0.49531  0.68922  1.0000
  H   H11       1.0  0.58093  0.29123  0.93806  1.0000
  H   H12       1.0  0.41907  0.70877  0.06194  1.0000
  H   H13       1.0  0.40717  0.26842  0.95351  1.0000
  H   H14       1.0  0.59283  0.73159  0.04649  1.0000
  H   H15       1.0  0.17849  0.23928  0.27689  1.0000
  H   H16       1.0  0.82152  0.76072  0.72311  1.0000
  C   C1        1.0  0.33992  0.74701  0.34552  1.0000
  C   C2        1.0  0.66007  0.25298  0.65447  1.0000
  C   C3        1.0  0.28508  0.90019  0.38650  1.0000
  C   C4        1.0  0.71493  0.09980  0.61351  1.0000
  C   C5        1.0  0.25471  0.01422  0.29495  1.0000
  C   C6        1.0  0.74529  0.98578  0.70504  1.0000
  C   C7        1.0  0.20318  0.14951  0.34642  1.0000
  C   C8        1.0  0.79683  0.85049  0.65358  1.0000
  C   C9        1.0  0.18363  0.16998  0.48663  1.0000
  C   C10       1.0  0.81637  0.83002  0.51337  1.0000
  C   C11       1.0  0.21764  0.05114  0.57174  1.0000
  C   C12       1.0  0.78237  0.94886  0.42826  1.0000
  C   C13       1.0  0.20816  0.06250  0.72814  1.0000
  C   C14       1.0  0.79182  0.93749  0.27185  1.0000
  C   C15       1.0  0.28751  0.00698  0.15141  1.0000
  C   C16       1.0  0.71249  0.99301  0.84859  1.0000
  C   C17       1.0  0.14049  0.32127  0.54518  1.0000
  C   C18       1.0  0.85951  0.67874  0.45482  1.0000
  N   N1        1.0  0.26627  0.92153  0.52101  1.0000
  N   N2        1.0  0.73373  0.07846  0.47899  1.0000
  O   O1        1.0  0.42214  0.08060  0.16626  1.0000
  O   O2        1.0  0.57786  0.91940  0.83374  1.0000
  O   O3        1.0  0.16390  0.92974  0.01699  1.0000
  O   O4        1.0  0.83609  0.07026  0.98300  1.0000
  O   O5        1.0  0.35288  0.71330  0.21721  1.0000
  O   O6        1.0  0.64710  0.28669  0.78279  1.0000
  O   O7        1.0  0.36729  0.66032  0.44720  1.0000
  O   O8        1.0  0.63271  0.33968  0.55280  1.0000
  O   O9        1.0  0.20935  0.93454  0.77546  1.0000
  O   O10       1.0  0.79066  0.06546  0.22454  1.0000
  O   O11       1.0  0.20133  0.18811  0.80133  1.0000
  O   O12       1.0  0.79868  0.81188  0.19868  1.0000
  O   O13       1.0  0.98766  0.33581  0.53424  1.0000
  O   O14       1.0  0.01234  0.66419  0.46576  1.0000
  O   O15       1.0  0.26476  0.42737  0.59723  1.0000
  O   O16       1.0  0.73524  0.57264  0.40277  1.0000
  O   O17       1.0  0.38942  0.41168  0.24373  1.0000
  O   O18       1.0  0.61057  0.58832  0.75627  1.0000
  O   O19       1.0  0.91008  0.40734  0.23075  1.0000
  O   O20       1.0  0.08992  0.59267  0.76924  1.0000
  O   O21       1.0  0.53488  0.30497  0.01737  1.0000
  O   O22       1.0  0.46512  0.69503  0.98264  1.0000
