data_image0
_chemical_formula_structural       Tb2H12C18N2O20
_chemical_formula_sum              "Tb2 H12 C18 N2 O20"
_cell_length_a       8.74563
_cell_length_b       8.24499
_cell_length_c       8.77434
_cell_angle_alpha    75.8759
_cell_angle_beta     75.7677
_cell_angle_gamma    70.8306

_space_group_name_H-M_alt    "P 1"
_space_group_IT_number       1

loop_
  _space_group_symop_operation_xyz
  'x, y, z'

loop_
  _atom_site_type_symbol
  _atom_site_label
  _atom_site_symmetry_multiplicity
  _atom_site_fract_x
  _atom_site_fract_y
  _atom_site_fract_z
  _atom_site_occupancy
  Tb  Tb1       1.0  0.12059  0.33707  0.68690  1.0000
  Tb  Tb2       1.0  0.87941  0.66293  0.31310  1.0000
  H   H1        1.0  0.59458  0.36627  0.11353  1.0000
  H   H2        1.0  0.40542  0.63373  0.88647  1.0000
  H   H3        1.0  0.90115  0.68983  0.69500  1.0000
  H   H4        1.0  0.09885  0.31016  0.30500  1.0000
  H   H5        1.0  0.96429  0.64177  0.86462  1.0000
  H   H6        1.0  0.03571  0.35822  0.13538  1.0000
  H   H7        1.0  0.89694  0.26288  0.99869  1.0000
  H   H8        1.0  0.10306  0.73711  0.00132  1.0000
  H   H9        1.0  0.07995  0.14141  0.99798  1.0000
  H   H10       1.0  0.92005  0.85859  0.00201  1.0000
  H   H11       1.0  0.87630  0.16623  0.37571  1.0000
  H   H12       1.0  0.12370  0.83377  0.62430  1.0000
  C   C1        1.0  0.34193  0.16466  0.37367  1.0000
  C   C2        1.0  0.65807  0.83534  0.62633  1.0000
  C   C3        1.0  0.47017  0.19802  0.43909  1.0000
  C   C4        1.0  0.52982  0.80199  0.56091  1.0000
  C   C5        1.0  0.63392  0.16478  0.36109  1.0000
  C   C6        1.0  0.36608  0.83522  0.63891  1.0000
  C   C7        1.0  0.74660  0.19421  0.43119  1.0000
  C   C8        1.0  0.25340  0.80579  0.56881  1.0000
  C   C9        1.0  0.69214  0.26632  0.57071  1.0000
  C   C10       1.0  0.30786  0.73367  0.42928  1.0000
  C   C11       1.0  0.52398  0.30498  0.63687  1.0000
  C   C12       1.0  0.47602  0.69502  0.36312  1.0000
  C   C13       1.0  0.43593  0.40713  0.77056  1.0000
  C   C14       1.0  0.56408  0.59288  0.22944  1.0000
  C   C15       1.0  0.68929  0.11441  0.19933  1.0000
  C   C16       1.0  0.31071  0.88559  0.80067  1.0000
  C   C17       1.0  0.82192  0.30565  0.62811  1.0000
  C   C18       1.0  0.17809  0.69432  0.37191  1.0000
  N   N1        1.0  0.41941  0.26554  0.57238  1.0000
  N   N2        1.0  0.58059  0.73446  0.42762  1.0000
  O   O1        1.0  0.19418  0.20095  0.45871  1.0000
  O   O2        1.0  0.80582  0.79905  0.54128  1.0000
  O   O3        1.0  0.38422  0.10812  0.24647  1.0000
  O   O4        1.0  0.61577  0.89188  0.75352  1.0000
  O   O5        1.0  0.76909  0.96260  0.17990  1.0000
  O   O6        1.0  0.23090  0.03740  0.82010  1.0000
  O   O7        1.0  0.67352  0.24398  0.07795  1.0000
  O   O8        1.0  0.32649  0.75602  0.92205  1.0000
  O   O9        1.0  0.86666  0.44117  0.55082  1.0000
  O   O10       1.0  0.13334  0.55883  0.44918  1.0000
  O   O11       1.0  0.89622  0.20007  0.73476  1.0000
  O   O12       1.0  0.10377  0.79995  0.26522  1.0000
  O   O13       1.0  0.51339  0.48573  0.81754  1.0000
  O   O14       1.0  0.48661  0.51428  0.18246  1.0000
  O   O15       1.0  0.28383  0.41752  0.81688  1.0000
  O   O16       1.0  0.71617  0.58248  0.18312  1.0000
  O   O17       1.0  0.96034  0.59457  0.77261  1.0000
  O   O18       1.0  0.03965  0.40543  0.22739  1.0000
  O   O19       1.0  0.01193  0.26384  0.98613  1.0000
  O   O20       1.0  0.98808  0.73616  0.01387  1.0000
