data_image0
_chemical_formula_structural       K4Sm4H36C36N4O48
_chemical_formula_sum              "K4 Sm4 H36 C36 N4 O48"
_cell_length_a       6.7626
_cell_length_b       13.9895
_cell_length_c       14.2651
_cell_angle_alpha    90
_cell_angle_beta     92.495
_cell_angle_gamma    90

_space_group_name_H-M_alt    "P 1"
_space_group_IT_number       1

loop_
  _space_group_symop_operation_xyz
  'x, y, z'

loop_
  _atom_site_type_symbol
  _atom_site_label
  _atom_site_symmetry_multiplicity
  _atom_site_fract_x
  _atom_site_fract_y
  _atom_site_fract_z
  _atom_site_occupancy
  K   K1        1.0  0.72855  0.28704  0.25626  1.0000
  K   K2        1.0  0.77141  0.78702  0.24375  1.0000
  K   K3        1.0  0.27142  0.71298  0.74375  1.0000
  K   K4        1.0  0.22858  0.21298  0.75625  1.0000
  Sm  Sm1       1.0  0.77662  0.25342  0.93261  1.0000
  Sm  Sm2       1.0  0.72338  0.75342  0.56739  1.0000
  Sm  Sm3       1.0  0.22338  0.74657  0.06739  1.0000
  Sm  Sm4       1.0  0.27662  0.24658  0.43261  1.0000
  H   H1        1.0  0.71232  0.70086  0.86524  1.0000
  H   H2        1.0  0.78768  0.20086  0.63475  1.0000
  H   H3        1.0  0.28767  0.29914  0.13476  1.0000
  H   H4        1.0  0.21232  0.79914  0.36524  1.0000
  H   H5        1.0  0.11174  0.19016  0.07178  1.0000
  H   H6        1.0  0.38826  0.69016  0.42822  1.0000
  H   H7        1.0  0.88825  0.80984  0.92822  1.0000
  H   H8        1.0  0.61174  0.30984  0.57178  1.0000
  H   H9        1.0  0.07965  0.10372  0.00501  1.0000
  H   H10       1.0  0.42035  0.60371  0.49499  1.0000
  H   H11       1.0  0.92035  0.89628  0.99499  1.0000
  H   H12       1.0  0.57965  0.39629  0.50501  1.0000
  H   H13       1.0  0.51861  0.12704  0.08020  1.0000
  H   H14       1.0  0.98140  0.62704  0.41980  1.0000
  H   H15       1.0  0.48139  0.87296  0.91980  1.0000
  H   H16       1.0  0.01860  0.37296  0.58020  1.0000
  H   H17       1.0  0.45080  0.11028  0.97587  1.0000
  H   H18       1.0  0.04920  0.61029  0.52413  1.0000
  H   H19       1.0  0.54919  0.88971  0.02413  1.0000
  H   H20       1.0  0.95080  0.38971  0.47587  1.0000
  H   H21       1.0  0.72019  0.48836  0.38752  1.0000
  H   H22       1.0  0.77981  0.98835  0.11248  1.0000
  H   H23       1.0  0.27981  0.51164  0.61248  1.0000
  H   H24       1.0  0.22019  0.01165  0.88752  1.0000
  H   H25       1.0  0.79518  0.52022  0.48489  1.0000
  H   H26       1.0  0.70482  0.02022  0.01512  1.0000
  H   H27       1.0  0.20482  0.47978  0.51511  1.0000
  H   H28       1.0  0.29518  0.97978  0.98489  1.0000
  H   H29       1.0  0.93094  0.10073  0.16540  1.0000
  H   H30       1.0  0.56906  0.60073  0.33461  1.0000
  H   H31       1.0  0.06906  0.89927  0.83460  1.0000
  H   H32       1.0  0.43094  0.39927  0.66540  1.0000
  H   H33       1.0  0.83050  0.05542  0.25582  1.0000
  H   H34       1.0  0.66951  0.55542  0.24418  1.0000
  H   H35       1.0  0.16950  0.94458  0.74418  1.0000
  H   H36       1.0  0.33050  0.44458  0.75582  1.0000
  C   C1        1.0  0.75276  0.43794  0.07535  1.0000
  C   C2        1.0  0.74724  0.93794  0.42465  1.0000
  C   C3        1.0  0.24724  0.56206  0.92465  1.0000
  C   C4        1.0  0.25277  0.06207  0.57535  1.0000
  C   C5        1.0  0.75757  0.48932  0.98199  1.0000
  C   C6        1.0  0.74242  0.98932  0.51800  1.0000
  C   C7        1.0  0.24242  0.51068  0.01801  1.0000
  C   C8        1.0  0.25758  0.01068  0.48200  1.0000
  C   C9        1.0  0.73477  0.58863  0.97064  1.0000
  C   C10       1.0  0.76522  0.08862  0.52935  1.0000
  C   C11       1.0  0.26522  0.41137  0.02936  1.0000
  C   C12       1.0  0.23478  0.91138  0.47065  1.0000
  C   C13       1.0  0.73503  0.62471  0.87924  1.0000
  C   C14       1.0  0.76497  0.12470  0.62076  1.0000
  C   C15       1.0  0.26497  0.37529  0.12076  1.0000
  C   C16       1.0  0.23503  0.87530  0.37924  1.0000
  C   C17       1.0  0.76216  0.56416  0.80302  1.0000
  C   C18       1.0  0.73784  0.06415  0.69698  1.0000
  C   C19       1.0  0.23784  0.43584  0.19698  1.0000
  C   C20       1.0  0.26216  0.93585  0.30302  1.0000
  C   C21       1.0  0.78798  0.46651  0.82079  1.0000
  C   C22       1.0  0.71202  0.96651  0.67921  1.0000
  C   C23       1.0  0.21202  0.53349  0.17921  1.0000
  C   C24       1.0  0.28798  0.03349  0.32079  1.0000
  C   C25       1.0  0.82275  0.39317  0.74532  1.0000
  C   C26       1.0  0.67724  0.89316  0.75467  1.0000
  C   C27       1.0  0.17725  0.60683  0.25468  1.0000
  C   C28       1.0  0.32276  0.10684  0.24532  1.0000
  C   C29       1.0  0.71978  0.65935  0.05002  1.0000
  C   C30       1.0  0.78023  0.15935  0.44998  1.0000
  C   C31       1.0  0.28022  0.34065  0.94998  1.0000
  C   C32       1.0  0.21978  0.84065  0.55002  1.0000
  C   C33       1.0  0.76040  0.60758  0.70689  1.0000
  C   C34       1.0  0.73960  0.10758  0.79311  1.0000
  C   C35       1.0  0.23960  0.39242  0.29311  1.0000
  C   C36       1.0  0.26040  0.89242  0.20689  1.0000
  N   N1        1.0  0.78258  0.43226  0.90808  1.0000
  N   N2        1.0  0.71741  0.93226  0.59191  1.0000
  N   N3        1.0  0.21742  0.56774  0.09192  1.0000
  N   N4        1.0  0.28259  0.06774  0.40808  1.0000
  O   O1        1.0  0.77432  0.34625  0.07279  1.0000
  O   O2        1.0  0.72567  0.84624  0.42721  1.0000
  O   O3        1.0  0.22567  0.65375  0.92722  1.0000
  O   O4        1.0  0.27435  0.15376  0.57278  1.0000
  O   O5        1.0  0.72786  0.48555  0.14795  1.0000
  O   O6        1.0  0.77214  0.98554  0.35205  1.0000
  O   O7        1.0  0.27214  0.51445  0.85205  1.0000
  O   O8        1.0  0.22786  0.01446  0.64795  1.0000
  O   O9        1.0  0.55262  0.68074  0.07996  1.0000
  O   O10       1.0  0.94739  0.18073  0.42004  1.0000
  O   O11       1.0  0.44738  0.31926  0.92004  1.0000
  O   O12       1.0  0.05261  0.81927  0.57996  1.0000
  O   O13       1.0  0.88024  0.69910  0.07794  1.0000
  O   O14       1.0  0.61977  0.19911  0.42206  1.0000
  O   O15       1.0  0.11976  0.30090  0.92206  1.0000
  O   O16       1.0  0.38023  0.80089  0.57794  1.0000
  O   O17       1.0  0.91836  0.64596  0.67999  1.0000
  O   O18       1.0  0.58165  0.14596  0.82001  1.0000
  O   O19       1.0  0.08165  0.35404  0.32001  1.0000
  O   O20       1.0  0.41835  0.85404  0.17999  1.0000
  O   O21       1.0  0.59536  0.61431  0.66077  1.0000
  O   O22       1.0  0.90466  0.11431  0.83922  1.0000
  O   O23       1.0  0.40466  0.38569  0.33922  1.0000
  O   O24       1.0  0.09534  0.88569  0.16078  1.0000
  O   O25       1.0  0.84736  0.42140  0.66310  1.0000
  O   O26       1.0  0.65264  0.92139  0.83690  1.0000
  O   O27       1.0  0.15265  0.57860  0.33690  1.0000
  O   O28       1.0  0.34736  0.07861  0.16310  1.0000
  O   O29       1.0  0.82297  0.30559  0.77218  1.0000
  O   O30       1.0  0.67703  0.80559  0.72781  1.0000
  O   O31       1.0  0.17703  0.69441  0.22781  1.0000
  O   O32       1.0  0.32298  0.19441  0.27219  1.0000
  O   O33       1.0  0.00527  0.15347  0.04086  1.0000
  O   O34       1.0  0.49473  0.65347  0.45914  1.0000
  O   O35       1.0  0.99473  0.84652  0.95914  1.0000
  O   O36       1.0  0.50527  0.34653  0.54086  1.0000
  O   O37       1.0  0.56364  0.13675  0.01536  1.0000
  O   O38       1.0  0.93636  0.63675  0.48464  1.0000
  O   O39       1.0  0.43635  0.86325  0.98464  1.0000
  O   O40       1.0  0.06364  0.36325  0.51536  1.0000
  O   O41       1.0  0.74631  0.46229  0.45157  1.0000
  O   O42       1.0  0.75369  0.96229  0.04843  1.0000
  O   O43       1.0  0.25369  0.53770  0.54843  1.0000
  O   O44       1.0  0.24631  0.03771  0.95157  1.0000
  O   O45       1.0  0.80674  0.09106  0.19679  1.0000
  O   O46       1.0  0.69327  0.59105  0.30322  1.0000
  O   O47       1.0  0.19326  0.90894  0.80321  1.0000
  O   O48       1.0  0.30673  0.40894  0.69679  1.0000
