data_image0
_chemical_formula_structural       La2H16C18N2O22
_chemical_formula_sum              "La2 H16 C18 N2 O22"
_cell_length_a       8.48433
_cell_length_b       9.19955
_cell_length_c       9.39748
_cell_angle_alpha    77.4091
_cell_angle_beta     63.4388
_cell_angle_gamma    90.0079

_space_group_name_H-M_alt    "P 1"
_space_group_IT_number       1

loop_
  _space_group_symop_operation_xyz
  'x, y, z'

loop_
  _atom_site_type_symbol
  _atom_site_label
  _atom_site_symmetry_multiplicity
  _atom_site_fract_x
  _atom_site_fract_y
  _atom_site_fract_z
  _atom_site_occupancy
  La  La1       1.0  0.64081  0.29362  0.68036  1.0000
  La  La2       1.0  0.35918  0.70637  0.31964  1.0000
  H   H1        1.0  0.72993  0.94196  0.08872  1.0000
  H   H2        1.0  0.27006  0.05803  0.91128  1.0000
  H   H3        1.0  0.80852  0.42673  0.85658  1.0000
  H   H4        1.0  0.19149  0.57325  0.14343  1.0000
  H   H5        1.0  0.94896  0.49043  0.67717  1.0000
  H   H6        1.0  0.05103  0.50956  0.32285  1.0000
  H   H7        1.0  0.33263  0.48450  0.70983  1.0000
  H   H8        1.0  0.66737  0.51551  0.29016  1.0000
  H   H9        1.0  0.22529  0.36906  0.88510  1.0000
  H   H10       1.0  0.77471  0.63095  0.11489  1.0000
  H   H11       1.0  0.54506  0.26437  0.05270  1.0000
  H   H12       1.0  0.45493  0.73564  0.94729  1.0000
  H   H13       1.0  0.36707  0.31156  0.05217  1.0000
  H   H14       1.0  0.63292  0.68844  0.94783  1.0000
  H   H15       1.0  0.09329  0.24338  0.69916  1.0000
  H   H16       1.0  0.90671  0.75664  0.30083  1.0000
  C   C1        1.0  0.86117  0.00405  0.85003  1.0000
  C   C2        1.0  0.13883  0.99595  0.14997  1.0000
  C   C3        1.0  0.03753  0.01351  0.70367  1.0000
  C   C4        1.0  0.96248  0.98650  0.29633  1.0000
  C   C5        1.0  0.14121  0.15177  0.64004  1.0000
  C   C6        1.0  0.85880  0.84824  0.35996  1.0000
  C   C7        1.0  0.30597  0.17287  0.50148  1.0000
  C   C8        1.0  0.69403  0.82712  0.49853  1.0000
  C   C9        1.0  0.35744  0.05293  0.42675  1.0000
  C   C10       1.0  0.64256  0.94707  0.57325  1.0000
  C   C11       1.0  0.10016  0.89800  0.62324  1.0000
  C   C12       1.0  0.89984  0.10200  0.37675  1.0000
  C   C13       1.0  0.00189  0.74212  0.68007  1.0000
  C   C14       1.0  0.99812  0.25788  0.31995  1.0000
  C   C15       1.0  0.52659  0.06396  0.27110  1.0000
  C   C16       1.0  0.47342  0.93604  0.72889  1.0000
  C   C17       1.0  0.41122  0.32526  0.43899  1.0000
  C   C18       1.0  0.58878  0.67474  0.56100  1.0000
  N   N1        1.0  0.25523  0.92128  0.48689  1.0000
  N   N2        1.0  0.74477  0.07872  0.51312  1.0000
  O   O1        1.0  0.74120  0.07209  0.83355  1.0000
  O   O2        1.0  0.25880  0.92792  0.16644  1.0000
  O   O3        1.0  0.85187  0.93179  0.98915  1.0000
  O   O4        1.0  0.14812  0.06821  0.01086  1.0000
  O   O5        1.0  0.86713  0.70445  0.81676  1.0000
  O   O6        1.0  0.13288  0.29556  0.18325  1.0000
  O   O7        1.0  0.06968  0.65699  0.57996  1.0000
  O   O8        1.0  0.93033  0.34300  0.42006  1.0000
  O   O9        1.0  0.56744  0.93726  0.23267  1.0000
  O   O10       1.0  0.43255  0.06274  0.76733  1.0000
  O   O11       1.0  0.61448  0.18808  0.18950  1.0000
  O   O12       1.0  0.38552  0.81192  0.81048  1.0000
  O   O13       1.0  0.55470  0.34218  0.44883  1.0000
  O   O14       1.0  0.44532  0.65782  0.55115  1.0000
  O   O15       1.0  0.33907  0.42981  0.38749  1.0000
  O   O16       1.0  0.66093  0.57019  0.61250  1.0000
  O   O17       1.0  0.87237  0.39540  0.75457  1.0000
  O   O18       1.0  0.12763  0.60460  0.24544  1.0000
  O   O19       1.0  0.31474  0.37859  0.77213  1.0000
  O   O20       1.0  0.68525  0.62142  0.22786  1.0000
  O   O21       1.0  0.49309  0.30728  0.97866  1.0000
  O   O22       1.0  0.50690  0.69272  0.02134  1.0000
