data_image0
_chemical_formula_structural       Ca6H36C30O24
_chemical_formula_sum              "Ca6 H36 C30 O24"
_cell_length_a       8.67183
_cell_length_b       12.283
_cell_length_c       12.2832
_cell_angle_alpha    114.636
_cell_angle_beta     103.613
_cell_angle_gamma    103.613

_space_group_name_H-M_alt    "P 1"
_space_group_IT_number       1

loop_
  _space_group_symop_operation_xyz
  'x, y, z'

loop_
  _atom_site_type_symbol
  _atom_site_label
  _atom_site_symmetry_multiplicity
  _atom_site_fract_x
  _atom_site_fract_y
  _atom_site_fract_z
  _atom_site_occupancy
  Ca  Ca1       1.0  0.59047  0.19627  0.57680  1.0000
  Ca  Ca2       1.0  0.39421  0.38052  0.80373  1.0000
  Ca  Ca3       1.0  0.01366  0.42320  0.61946  1.0000
  Ca  Ca4       1.0  0.40953  0.80373  0.42320  1.0000
  Ca  Ca5       1.0  0.60579  0.61948  0.19627  1.0000
  Ca  Ca6       1.0  0.98634  0.57680  0.38054  1.0000
  H   H1        1.0  0.79108  0.73112  0.82207  1.0000
  H   H2        1.0  0.05995  0.09097  0.26884  1.0000
  H   H3        1.0  0.96898  0.17790  0.90903  1.0000
  H   H4        1.0  0.20892  0.26888  0.17793  1.0000
  H   H5        1.0  0.94005  0.90903  0.73116  1.0000
  H   H6        1.0  0.03102  0.82210  0.09097  1.0000
  H   H7        1.0  0.64761  0.65925  0.87780  1.0000
  H   H8        1.0  0.98836  0.21858  0.34070  1.0000
  H   H9        1.0  0.76977  0.12216  0.78143  1.0000
  H   H10       1.0  0.35239  0.34075  0.12220  1.0000
  H   H11       1.0  0.01164  0.78142  0.65930  1.0000
  H   H12       1.0  0.23023  0.87784  0.21857  1.0000
  H   H13       1.0  0.56653  0.60853  0.59909  1.0000
  H   H14       1.0  0.95799  0.99059  0.39143  1.0000
  H   H15       1.0  0.96744  0.40088  0.00943  1.0000
  H   H16       1.0  0.43347  0.39147  0.40091  1.0000
  H   H17       1.0  0.04201  0.00941  0.60857  1.0000
  H   H18       1.0  0.03256  0.59912  0.99058  1.0000
  H   H19       1.0  0.42744  0.52562  0.64806  1.0000
  H   H20       1.0  0.90181  0.12244  0.47432  1.0000
  H   H21       1.0  0.77939  0.35194  0.87757  1.0000
  H   H22       1.0  0.57256  0.47438  0.35194  1.0000
  H   H23       1.0  0.09819  0.87756  0.52568  1.0000
  H   H24       1.0  0.22061  0.64806  0.12243  1.0000
  H   H25       1.0  0.43320  0.74441  0.80707  1.0000
  H   H26       1.0  0.68870  0.06265  0.25555  1.0000
  H   H27       1.0  0.62609  0.19294  0.93735  1.0000
  H   H28       1.0  0.56680  0.25559  0.19293  1.0000
  H   H29       1.0  0.31130  0.93735  0.74445  1.0000
  H   H30       1.0  0.37391  0.80706  0.06265  1.0000
  H   H31       1.0  0.54553  0.81410  0.73189  1.0000
  H   H32       1.0  0.73138  0.91779  0.18587  1.0000
  H   H33       1.0  0.81361  0.26809  0.08220  1.0000
  H   H34       1.0  0.45447  0.18590  0.26811  1.0000
  H   H35       1.0  0.26862  0.08221  0.81413  1.0000
  H   H36       1.0  0.18639  0.73191  0.91780  1.0000
  C   C1        1.0  0.73533  0.52821  0.75094  1.0000
  C   C2        1.0  0.20715  0.22276  0.47178  1.0000
  C   C3        1.0  0.98437  0.24904  0.77723  1.0000
  C   C4        1.0  0.26467  0.47179  0.24906  1.0000
  C   C5        1.0  0.79285  0.77724  0.52822  1.0000
  C   C6        1.0  0.01563  0.75096  0.22277  1.0000
  C   C7        1.0  0.68263  0.64426  0.79349  1.0000
  C   C8        1.0  0.03835  0.14924  0.35568  1.0000
  C   C9        1.0  0.88910  0.20649  0.85076  1.0000
  C   C10       1.0  0.31737  0.35573  0.20651  1.0000
  C   C11       1.0  0.96165  0.85076  0.64432  1.0000
  C   C12       1.0  0.11090  0.79351  0.14924  1.0000
  C   C13       1.0  0.52853  0.61836  0.68107  1.0000
  C   C14       1.0  0.91016  0.06273  0.38158  1.0000
  C   C15       1.0  0.84745  0.31890  0.93728  1.0000
  C   C16       1.0  0.47147  0.38164  0.31892  1.0000
  C   C17       1.0  0.08984  0.93727  0.61842  1.0000
  C   C18       1.0  0.15255  0.68110  0.06272  1.0000
  C   C19       1.0  0.45564  0.72520  0.71763  1.0000
  C   C20       1.0  0.73042  0.99243  0.27476  1.0000
  C   C21       1.0  0.73801  0.28237  0.00757  1.0000
  C   C22       1.0  0.54436  0.27480  0.28237  1.0000
  C   C23       1.0  0.26958  0.00757  0.72524  1.0000
  C   C24       1.0  0.26199  0.71762  0.99243  1.0000
  C   C25       1.0  0.28676  0.68126  0.61120  1.0000
  C   C26       1.0  0.60553  0.92996  0.31874  1.0000
  C   C27       1.0  0.67556  0.38878  0.07007  1.0000
  C   C28       1.0  0.71324  0.31874  0.38880  1.0000
  C   C29       1.0  0.39447  0.07004  0.68126  1.0000
  C   C30       1.0  0.32444  0.61122  0.92993  1.0000
  O   O1        1.0  0.63437  0.42376  0.73707  1.0000
  O   O2        1.0  0.21059  0.31331  0.57621  1.0000
  O   O3        1.0  0.89727  0.26290  0.68666  1.0000
  O   O4        1.0  0.36564  0.57624  0.26293  1.0000
  O   O5        1.0  0.78941  0.68669  0.42379  1.0000
  O   O6        1.0  0.10273  0.73710  0.31334  1.0000
  O   O7        1.0  0.86966  0.53809  0.72640  1.0000
  O   O8        1.0  0.33162  0.18837  0.46191  1.0000
  O   O9        1.0  0.14325  0.27359  0.81165  1.0000
  O   O10       1.0  0.13033  0.46191  0.27360  1.0000
  O   O11       1.0  0.66839  0.81163  0.53809  1.0000
  O   O12       1.0  0.85676  0.72641  0.18835  1.0000
  O   O13       1.0  0.15063  0.60180  0.59909  1.0000
  O   O14       1.0  0.54890  0.99733  0.39821  1.0000
  O   O15       1.0  0.55152  0.40087  0.00273  1.0000
  O   O16       1.0  0.84937  0.39820  0.40091  1.0000
  O   O17       1.0  0.45110  0.00268  0.60179  1.0000
  O   O18       1.0  0.44848  0.59913  0.99727  1.0000
  O   O19       1.0  0.28143  0.72193  0.53080  1.0000
  O   O20       1.0  0.55949  0.80889  0.27809  1.0000
  O   O21       1.0  0.75067  0.46920  0.19114  1.0000
  O   O22       1.0  0.71857  0.27807  0.46920  1.0000
  O   O23       1.0  0.44051  0.19112  0.72191  1.0000
  O   O24       1.0  0.24933  0.53080  0.80886  1.0000
