data_image0
_chemical_formula_structural       Co2H26C32Cl2O14
_chemical_formula_sum              "Co2 H26 C32 Cl2 O14"
_cell_length_a       7.0691
_cell_length_b       9.20683
_cell_length_c       14.4061
_cell_angle_alpha    80.5441
_cell_angle_beta     75.8062
_cell_angle_gamma    67.4172

_space_group_name_H-M_alt    "P 1"
_space_group_IT_number       1

loop_
  _space_group_symop_operation_xyz
  'x, y, z'

loop_
  _atom_site_type_symbol
  _atom_site_label
  _atom_site_symmetry_multiplicity
  _atom_site_fract_x
  _atom_site_fract_y
  _atom_site_fract_z
  _atom_site_occupancy
  Co  Co1       1.0  0.05517  0.95621  0.51576  1.0000
  Co  Co2       1.0  0.52715  0.04388  0.48418  1.0000
  H   H1        1.0  0.64177  0.27579  0.74494  1.0000
  H   H2        1.0  0.66221  0.72398  0.25514  1.0000
  H   H3        1.0  0.66700  0.51821  0.57342  1.0000
  H   H4        1.0  0.75925  0.48133  0.42650  1.0000
  H   H5        1.0  0.88847  0.37165  0.61588  1.0000
  H   H6        1.0  0.87656  0.62787  0.38392  1.0000
  H   H7        1.0  0.70398  0.52117  0.69084  1.0000
  H   H8        1.0  0.91593  0.47851  0.30895  1.0000
  H   H9        1.0  0.44896  0.13439  0.78012  1.0000
  H   H10       1.0  0.36254  0.86567  0.22037  1.0000
  H   H11       1.0  0.19146  0.06141  0.90816  1.0000
  H   H12       1.0  0.16068  0.93868  0.09207  1.0000
  H   H13       1.0  0.75349  0.53796  0.89575  1.0000
  H   H14       1.0  0.18765  0.46203  0.10405  1.0000
  H   H15       1.0  0.01419  0.61454  0.76453  1.0000
  H   H16       1.0  0.39303  0.38543  0.23556  1.0000
  H   H17       1.0  0.08080  0.31822  0.05084  1.0000
  H   H18       1.0  0.45041  0.68188  0.94904  1.0000
  H   H19       1.0  0.12739  0.25252  0.22071  1.0000
  H   H20       1.0  0.60101  0.74779  0.77919  1.0000
  H   H21       1.0  0.66233  0.03696  0.28080  1.0000
  H   H22       1.0  0.98039  0.96314  0.71909  1.0000
  H   H23       1.0  0.84206  0.78417  0.61150  1.0000
  H   H24       1.0  0.23738  0.21600  0.38854  1.0000
  H   H25       1.0  0.07709  0.66433  0.57730  1.0000
  H   H26       1.0  0.31843  0.33573  0.42280  1.0000
  C   C1        1.0  0.64840  0.20912  0.60882  1.0000
  C   C2        1.0  0.46659  0.79075  0.39128  1.0000
  C   C3        1.0  0.59671  0.33766  0.67689  1.0000
  C   C4        1.0  0.61123  0.66212  0.32324  1.0000
  C   C5        1.0  0.72235  0.44423  0.63624  1.0000
  C   C6        1.0  0.80307  0.55541  0.36365  1.0000
  C   C7        1.0  0.24747  0.38148  0.76457  1.0000
  C   C8        1.0  0.39304  0.61850  0.23569  1.0000
  C   C9        1.0  0.29834  0.22504  0.80452  1.0000
  C   C10       1.0  0.32729  0.77500  0.19582  1.0000
  C   C11       1.0  0.15279  0.18286  0.87703  1.0000
  C   C12       1.0  0.21240  0.81719  0.12315  1.0000
  C   C13       1.0  0.95809  0.29587  0.90892  1.0000
  C   C14       1.0  0.16309  0.70413  0.09104  1.0000
  C   C15       1.0  0.90552  0.45109  0.86896  1.0000
  C   C16       1.0  0.22569  0.54890  0.13100  1.0000
  C   C17       1.0  0.04971  0.49381  0.79650  1.0000
  C   C18       1.0  0.33981  0.50619  0.20361  1.0000
  C   C19       1.0  0.84040  0.22111  0.07158  1.0000
  C   C20       1.0  0.13358  0.77895  0.92830  1.0000
  C   C21       1.0  0.98619  0.26061  0.10277  1.0000
  C   C22       1.0  0.35007  0.73948  0.89710  1.0000
  C   C23       1.0  0.01164  0.22361  0.19744  1.0000
  C   C24       1.0  0.43312  0.77659  0.80245  1.0000
  C   C25       1.0  0.89548  0.14341  0.26283  1.0000
  C   C26       1.0  0.30207  0.85683  0.73707  1.0000
  C   C27       1.0  0.75008  0.10283  0.23188  1.0000
  C   C28       1.0  0.08516  0.89736  0.76801  1.0000
  C   C29       1.0  0.72010  0.14390  0.13812  1.0000
  C   C30       1.0  0.00256  0.85621  0.86175  1.0000
  C   C31       1.0  0.93605  0.09325  0.36070  1.0000
  C   C32       1.0  0.39023  0.90694  0.63920  1.0000
  Cl  Cl1       1.0  0.53431  0.09945  0.10220  1.0000
  Cl  Cl2       1.0  0.73647  0.90057  0.89768  1.0000
  O   O1        1.0  0.83125  0.10616  0.60611  1.0000
  O   O2        1.0  0.54395  0.89355  0.39396  1.0000
  O   O3        1.0  0.51418  0.21441  0.56275  1.0000
  O   O4        1.0  0.29143  0.78572  0.43731  1.0000
  O   O5        1.0  0.38042  0.43643  0.69517  1.0000
  O   O6        1.0  0.51166  0.56349  0.30507  1.0000
  O   O7        1.0  0.80827  0.25311  0.97970  1.0000
  O   O8        1.0  0.04153  0.74682  0.02014  1.0000
  O   O9        1.0  0.07311  0.12380  0.38945  1.0000
  O   O10       1.0  0.58658  0.87638  0.61039  1.0000
  O   O11       1.0  0.84330  0.00757  0.41986  1.0000
  O   O12       1.0  0.27087  0.99258  0.58004  1.0000
  O   O13       1.0  0.99336  0.76556  0.60373  1.0000
  O   O14       1.0  0.36231  0.23453  0.39635  1.0000
