data_image0
_chemical_formula_structural       Cd2H44C64N16O8
_chemical_formula_sum              "Cd2 H44 C64 N16 O8"
_cell_length_a       8.80301
_cell_length_b       14.0117
_cell_length_c       14.37
_cell_angle_alpha    90
_cell_angle_beta     90
_cell_angle_gamma    107.736

_space_group_name_H-M_alt    "P 1"
_space_group_IT_number       1

loop_
  _space_group_symop_operation_xyz
  'x, y, z'

loop_
  _atom_site_type_symbol
  _atom_site_label
  _atom_site_symmetry_multiplicity
  _atom_site_fract_x
  _atom_site_fract_y
  _atom_site_fract_z
  _atom_site_occupancy
  Cd  Cd1       1.0  0.50000  0.50000  1.00000  1.0000
  Cd  Cd2       1.0  0.00000  0.50001  0.50000  1.0000
  H   H1        1.0  0.88477  0.59504  0.31218  1.0000
  H   H2        1.0  0.61521  0.40496  0.81218  1.0000
  H   H3        1.0  0.11523  0.40496  0.68782  1.0000
  H   H4        1.0  0.38477  0.59504  0.18781  1.0000
  H   H5        1.0  0.97902  0.75225  0.21556  1.0000
  H   H6        1.0  0.52096  0.24775  0.71556  1.0000
  H   H7        1.0  0.02099  0.24774  0.78443  1.0000
  H   H8        1.0  0.47902  0.75224  0.28444  1.0000
  H   H9        1.0  0.22990  0.88429  0.26119  1.0000
  H   H10       1.0  0.27008  0.11571  0.76119  1.0000
  H   H11       1.0  0.77011  0.11570  0.73880  1.0000
  H   H12       1.0  0.72991  0.88428  0.23881  1.0000
  H   H13       1.0  0.62213  0.89350  0.50136  1.0000
  H   H14       1.0  0.87787  0.10651  0.00137  1.0000
  H   H15       1.0  0.37786  0.10650  0.49864  1.0000
  H   H16       1.0  0.12214  0.89349  0.99864  1.0000
  H   H17       1.0  0.51834  0.73305  0.58540  1.0000
  H   H18       1.0  0.98167  0.26695  0.08541  1.0000
  H   H19       1.0  0.48166  0.26695  0.41460  1.0000
  H   H20       1.0  0.01834  0.73305  0.91459  1.0000
  H   H21       1.0  0.62234  0.00445  0.39132  1.0000
  H   H22       1.0  0.87764  0.99556  0.89132  1.0000
  H   H23       1.0  0.37766  0.99556  0.60868  1.0000
  H   H24       1.0  0.12236  0.00444  0.10868  1.0000
  H   H25       1.0  0.77472  0.26739  0.29581  1.0000
  H   H26       1.0  0.72528  0.73261  0.79582  1.0000
  H   H27       1.0  0.22526  0.73261  0.70419  1.0000
  H   H28       1.0  0.27474  0.26738  0.20421  1.0000
  H   H29       1.0  0.93551  0.43944  0.24848  1.0000
  H   H30       1.0  0.56451  0.56057  0.74848  1.0000
  H   H31       1.0  0.06448  0.56057  0.75152  1.0000
  H   H32       1.0  0.43552  0.43943  0.25154  1.0000
  H   H33       1.0  0.83562  0.52452  0.11825  1.0000
  H   H34       1.0  0.66438  0.47549  0.61824  1.0000
  H   H35       1.0  0.16438  0.47549  0.88175  1.0000
  H   H36       1.0  0.33562  0.52451  0.38177  1.0000
  H   H37       1.0  0.44654  0.27287  0.07503  1.0000
  H   H38       1.0  0.05346  0.72714  0.57502  1.0000
  H   H39       1.0  0.55346  0.72713  0.92497  1.0000
  H   H40       1.0  0.94654  0.27286  0.42498  1.0000
  H   H41       1.0  0.65846  0.11796  0.29034  1.0000
  H   H42       1.0  0.84154  0.88205  0.79033  1.0000
  H   H43       1.0  0.34153  0.88204  0.70965  1.0000
  H   H44       1.0  0.15847  0.11795  0.20967  1.0000
  C   C1        1.0  0.99605  0.65348  0.32808  1.0000
  C   C2        1.0  0.50394  0.34652  0.82808  1.0000
  C   C3        1.0  0.00397  0.34651  0.67192  1.0000
  C   C4        1.0  0.49604  0.65348  0.17192  1.0000
  C   C5        1.0  0.04807  0.74160  0.27524  1.0000
  C   C6        1.0  0.45192  0.25840  0.77524  1.0000
  C   C7        1.0  0.95194  0.25839  0.72475  1.0000
  C   C8        1.0  0.54807  0.74160  0.22476  1.0000
  C   C9        1.0  0.18708  0.81455  0.30014  1.0000
  C   C10       1.0  0.31291  0.18546  0.80015  1.0000
  C   C11       1.0  0.81292  0.18545  0.69985  1.0000
  C   C12       1.0  0.68708  0.81454  0.19985  1.0000
  C   C13       1.0  0.27742  0.79940  0.37743  1.0000
  C   C14       1.0  0.22257  0.20059  0.87744  1.0000
  C   C15       1.0  0.72259  0.20059  0.62257  1.0000
  C   C16       1.0  0.77741  0.79940  0.12257  1.0000
  C   C17       1.0  0.21761  0.70609  0.42580  1.0000
  C   C18       1.0  0.28239  0.29391  0.92581  1.0000
  C   C19       1.0  0.78239  0.29391  0.57420  1.0000
  C   C20       1.0  0.71760  0.70609  0.07419  1.0000
  C   C21       1.0  0.42607  0.86949  0.40623  1.0000
  C   C22       1.0  0.07392  0.13051  0.90623  1.0000
  C   C23       1.0  0.57393  0.13051  0.59377  1.0000
  C   C24       1.0  0.92608  0.86948  0.09377  1.0000
  C   C25       1.0  0.50779  0.84110  0.48025  1.0000
  C   C26       1.0  0.99221  0.15890  0.98026  1.0000
  C   C27       1.0  0.49221  0.15890  0.51975  1.0000
  C   C28       1.0  0.00779  0.84110  0.01975  1.0000
  C   C29       1.0  0.45037  0.75109  0.52821  1.0000
  C   C30       1.0  0.04963  0.24891  0.02823  1.0000
  C   C31       1.0  0.54964  0.24891  0.47178  1.0000
  C   C32       1.0  0.95038  0.75109  0.97178  1.0000
  C   C33       1.0  0.30244  0.68035  0.50545  1.0000
  C   C34       1.0  0.19756  0.31965  0.00547  1.0000
  C   C35       1.0  0.69757  0.31966  0.49455  1.0000
  C   C36       1.0  0.80244  0.68035  0.99454  1.0000
  C   C37       1.0  0.50281  0.96530  0.36408  1.0000
  C   C38       1.0  0.99717  0.03470  0.86409  1.0000
  C   C39       1.0  0.49717  0.03470  0.63591  1.0000
  C   C40       1.0  0.00284  0.96529  0.13592  1.0000
  C   C41       1.0  0.48730  0.15318  0.20791  1.0000
  C   C42       1.0  0.01270  0.84684  0.70791  1.0000
  C   C43       1.0  0.51269  0.84683  0.79209  1.0000
  C   C44       1.0  0.98731  0.15317  0.29210  1.0000
  C   C45       1.0  0.59926  0.25467  0.18647  1.0000
  C   C46       1.0  0.90073  0.74534  0.68647  1.0000
  C   C47       1.0  0.40073  0.74534  0.81353  1.0000
  C   C48       1.0  0.09928  0.25466  0.31354  1.0000
  C   C49       1.0  0.73748  0.30346  0.23671  1.0000
  C   C50       1.0  0.76252  0.69654  0.73671  1.0000
  C   C51       1.0  0.26251  0.69654  0.76329  1.0000
  C   C52       1.0  0.23749  0.30345  0.26330  1.0000
  C   C53       1.0  0.82649  0.40035  0.21129  1.0000
  C   C54       1.0  0.67352  0.59966  0.71129  1.0000
  C   C55       1.0  0.17351  0.59966  0.78871  1.0000
  C   C56       1.0  0.32650  0.40034  0.28872  1.0000
  C   C57       1.0  0.77178  0.44790  0.13936  1.0000
  C   C58       1.0  0.72823  0.55210  0.63935  1.0000
  C   C59       1.0  0.22822  0.55210  0.86064  1.0000
  C   C60       1.0  0.27179  0.44789  0.36066  1.0000
  C   C61       1.0  0.55475  0.30826  0.11456  1.0000
  C   C62       1.0  0.94526  0.69175  0.61456  1.0000
  C   C63       1.0  0.44525  0.69174  0.88543  1.0000
  C   C64       1.0  0.05474  0.30825  0.38544  1.0000
  N   N1        1.0  0.07907  0.63672  0.40016  1.0000
  N   N2        1.0  0.42093  0.36328  0.90016  1.0000
  N   N3        1.0  0.92093  0.36329  0.59984  1.0000
  N   N4        1.0  0.57906  0.63671  0.09983  1.0000
  N   N5        1.0  0.63636  0.40285  0.09262  1.0000
  N   N6        1.0  0.86364  0.59716  0.59261  1.0000
  N   N7        1.0  0.36363  0.59716  0.90738  1.0000
  N   N8        1.0  0.13635  0.40284  0.40739  1.0000
  N   N9        1.0  0.44161  0.00641  0.29827  1.0000
  N   N10       1.0  0.05838  0.99359  0.79827  1.0000
  N   N11       1.0  0.55839  0.99359  0.70173  1.0000
  N   N12       1.0  0.94162  0.00641  0.20173  1.0000
  N   N13       1.0  0.54005  0.09706  0.26893  1.0000
  N   N14       1.0  0.95994  0.90295  0.76893  1.0000
  N   N15       1.0  0.45994  0.90294  0.73106  1.0000
  N   N16       1.0  0.04007  0.09705  0.23107  1.0000
  O   O1        1.0  0.24455  0.59796  0.55137  1.0000
  O   O2        1.0  0.25545  0.40204  0.05138  1.0000
  O   O3        1.0  0.75546  0.40204  0.44863  1.0000
  O   O4        1.0  0.74454  0.59796  0.94862  1.0000
  O   O5        1.0  0.35111  0.12582  0.17171  1.0000
  O   O6        1.0  0.14890  0.87419  0.67172  1.0000
  O   O7        1.0  0.64890  0.87418  0.82828  1.0000
  O   O8        1.0  0.85109  0.12582  0.32827  1.0000
