data_image0
_chemical_formula_structural       Cd4H24C24N32O8
_chemical_formula_sum              "Cd4 H24 C24 N32 O8"
_cell_length_a       7.79675
_cell_length_b       7.68415
_cell_length_c       18.1708
_cell_angle_alpha    98.1339
_cell_angle_beta     90
_cell_angle_gamma    89.9999

_space_group_name_H-M_alt    "P 1"
_space_group_IT_number       1

loop_
  _space_group_symop_operation_xyz
  'x, y, z'

loop_
  _atom_site_type_symbol
  _atom_site_label
  _atom_site_symmetry_multiplicity
  _atom_site_fract_x
  _atom_site_fract_y
  _atom_site_fract_z
  _atom_site_occupancy
  Cd  Cd1       1.0  0.82303  0.98046  0.75843  1.0000
  Cd  Cd2       1.0  0.32304  0.01953  0.74157  1.0000
  Cd  Cd3       1.0  0.17697  0.01954  0.24157  1.0000
  Cd  Cd4       1.0  0.67697  0.98047  0.25843  1.0000
  H   H1        1.0  0.20445  0.41319  0.52294  1.0000
  H   H2        1.0  0.70445  0.58681  0.97706  1.0000
  H   H3        1.0  0.79555  0.58681  0.47706  1.0000
  H   H4        1.0  0.29555  0.41319  0.02294  1.0000
  H   H5        1.0  0.21562  0.55243  0.65781  1.0000
  H   H6        1.0  0.71563  0.44757  0.84219  1.0000
  H   H7        1.0  0.78437  0.44758  0.34219  1.0000
  H   H8        1.0  0.28437  0.55243  0.15781  1.0000
  H   H9        1.0  0.98426  0.47795  0.74501  1.0000
  H   H10       1.0  0.48426  0.52204  0.75500  1.0000
  H   H11       1.0  0.01574  0.52205  0.25500  1.0000
  H   H12       1.0  0.51574  0.47796  0.24500  1.0000
  H   H13       1.0  0.74389  0.14275  0.57752  1.0000
  H   H14       1.0  0.24388  0.85725  0.92248  1.0000
  H   H15       1.0  0.25612  0.85725  0.42248  1.0000
  H   H16       1.0  0.75612  0.14275  0.07752  1.0000
  H   H17       1.0  0.05332  0.74348  0.81309  1.0000
  H   H18       1.0  0.55332  0.25652  0.68691  1.0000
  H   H19       1.0  0.94668  0.25653  0.18691  1.0000
  H   H20       1.0  0.44668  0.74349  0.31309  1.0000
  H   H21       1.0  0.89456  0.74853  0.86886  1.0000
  H   H22       1.0  0.39456  0.25147  0.63114  1.0000
  H   H23       1.0  0.10544  0.25147  0.13114  1.0000
  H   H24       1.0  0.60544  0.74854  0.36886  1.0000
  C   C1        1.0  0.95546  0.19196  0.46204  1.0000
  C   C2        1.0  0.45546  0.80804  0.03796  1.0000
  C   C3        1.0  0.04454  0.80804  0.53796  1.0000
  C   C4        1.0  0.54455  0.19196  0.96204  1.0000
  C   C5        1.0  0.97144  0.27096  0.53951  1.0000
  C   C6        1.0  0.47144  0.72903  0.96049  1.0000
  C   C7        1.0  0.02856  0.72903  0.46049  1.0000
  C   C8        1.0  0.52856  0.27096  0.03951  1.0000
  C   C9        1.0  0.10786  0.38483  0.56302  1.0000
  C   C10       1.0  0.60787  0.61517  0.93698  1.0000
  C   C11       1.0  0.89213  0.61518  0.43698  1.0000
  C   C12       1.0  0.39214  0.38483  0.06302  1.0000
  C   C13       1.0  0.11398  0.46153  0.63707  1.0000
  C   C14       1.0  0.61399  0.53847  0.86293  1.0000
  C   C15       1.0  0.88601  0.53847  0.36293  1.0000
  C   C16       1.0  0.38601  0.46153  0.13707  1.0000
  C   C17       1.0  0.99009  0.42178  0.68674  1.0000
  C   C18       1.0  0.49009  0.57822  0.81326  1.0000
  C   C19       1.0  0.00990  0.57822  0.31326  1.0000
  C   C20       1.0  0.50991  0.42178  0.18674  1.0000
  C   C21       1.0  0.84954  0.23393  0.59103  1.0000
  C   C22       1.0  0.34954  0.76607  0.90897  1.0000
  C   C23       1.0  0.15046  0.76607  0.40897  1.0000
  C   C24       1.0  0.65046  0.23394  0.09103  1.0000
  N   N1        1.0  0.01832  0.10971  0.34950  1.0000
  N   N2        1.0  0.51832  0.89029  0.15050  1.0000
  N   N3        1.0  0.98168  0.89029  0.65050  1.0000
  N   N4        1.0  0.48168  0.10971  0.84950  1.0000
  N   N5        1.0  0.08632  0.18403  0.41310  1.0000
  N   N6        1.0  0.58632  0.81597  0.08690  1.0000
  N   N7        1.0  0.91368  0.81596  0.58690  1.0000
  N   N8        1.0  0.41368  0.18404  0.91310  1.0000
  N   N9        1.0  0.80915  0.12370  0.42995  1.0000
  N   N10       1.0  0.30914  0.87630  0.07005  1.0000
  N   N11       1.0  0.19085  0.87630  0.57005  1.0000
  N   N12       1.0  0.69086  0.12370  0.92995  1.0000
  N   N13       1.0  0.85282  0.07358  0.35948  1.0000
  N   N14       1.0  0.35281  0.92642  0.14052  1.0000
  N   N15       1.0  0.14719  0.92642  0.64052  1.0000
  N   N16       1.0  0.64719  0.07357  0.85949  1.0000
  N   N17       1.0  0.86240  0.30728  0.66320  1.0000
  N   N18       1.0  0.36240  0.69272  0.83680  1.0000
  N   N19       1.0  0.13760  0.69272  0.33680  1.0000
  N   N20       1.0  0.63760  0.30728  0.16320  1.0000
  N   N21       1.0  0.57331  0.86625  0.69916  1.0000
  N   N22       1.0  0.07331  0.13374  0.80084  1.0000
  N   N23       1.0  0.42669  0.13374  0.30084  1.0000
  N   N24       1.0  0.92669  0.86626  0.19916  1.0000
  N   N25       1.0  0.56408  0.72963  0.65685  1.0000
  N   N26       1.0  0.06407  0.27035  0.84315  1.0000
  N   N27       1.0  0.43592  0.27036  0.34315  1.0000
  N   N28       1.0  0.93593  0.72964  0.15685  1.0000
  N   N29       1.0  0.55350  0.59786  0.61686  1.0000
  N   N30       1.0  0.05350  0.40213  0.88314  1.0000
  N   N31       1.0  0.44650  0.40214  0.38314  1.0000
  N   N32       1.0  0.94651  0.59786  0.11686  1.0000
  O   O1        1.0  0.75031  0.26343  0.71280  1.0000
  O   O2        1.0  0.25031  0.73656  0.78721  1.0000
  O   O3        1.0  0.24968  0.73657  0.28720  1.0000
  O   O4        1.0  0.74969  0.26344  0.21280  1.0000
  O   O5        1.0  0.92379  0.74593  0.81668  1.0000
  O   O6        1.0  0.42379  0.25407  0.68332  1.0000
  O   O7        1.0  0.07621  0.25408  0.18332  1.0000
  O   O8        1.0  0.57621  0.74592  0.31668  1.0000
