data_image0
_chemical_formula_structural       Cu4H16C24N32O4
_chemical_formula_sum              "Cu4 H16 C24 N32 O4"
_cell_length_a       6.81278
_cell_length_b       8.61719
_cell_length_c       17.0168
_cell_angle_alpha    76.9844
_cell_angle_beta     78.4931
_cell_angle_gamma    66.775

_space_group_name_H-M_alt    "P 1"
_space_group_IT_number       1

loop_
  _space_group_symop_operation_xyz
  'x, y, z'

loop_
  _atom_site_type_symbol
  _atom_site_label
  _atom_site_symmetry_multiplicity
  _atom_site_fract_x
  _atom_site_fract_y
  _atom_site_fract_z
  _atom_site_occupancy
  Cu  Cu1       1.0  0.55690  0.77918  0.76450  1.0000
  Cu  Cu2       1.0  0.10059  0.72070  0.73544  1.0000
  Cu  Cu3       1.0  0.44311  0.22082  0.23550  1.0000
  Cu  Cu4       1.0  0.89941  0.27930  0.26456  1.0000
  H   H1        1.0  0.96029  0.09177  0.82125  1.0000
  H   H2        1.0  0.87211  0.40795  0.67866  1.0000
  H   H3        1.0  0.03971  0.90822  0.17875  1.0000
  H   H4        1.0  0.12788  0.59205  0.32135  1.0000
  H   H5        1.0  0.64276  0.01376  0.89411  1.0000
  H   H6        1.0  0.54963  0.48613  0.60565  1.0000
  H   H7        1.0  0.35724  0.98624  0.10589  1.0000
  H   H8        1.0  0.45036  0.51388  0.39435  1.0000
  H   H9        1.0  0.69878  0.77618  0.01510  1.0000
  H   H10       1.0  0.48953  0.72372  0.48471  1.0000
  H   H11       1.0  0.30121  0.22382  0.98490  1.0000
  H   H12       1.0  0.51047  0.27628  0.51529  1.0000
  H   H13       1.0  0.37571  0.70594  0.97088  1.0000
  H   H14       1.0  0.05200  0.79391  0.52921  1.0000
  H   H15       1.0  0.62428  0.29405  0.02912  1.0000
  H   H16       1.0  0.94800  0.20609  0.47079  1.0000
  C   C1        1.0  0.97264  0.98829  0.87243  1.0000
  C   C2        1.0  0.83244  0.51147  0.62749  1.0000
  C   C3        1.0  0.02736  0.01171  0.12757  1.0000
  C   C4        1.0  0.16756  0.48853  0.37251  1.0000
  C   C5        1.0  0.80085  0.94386  0.91436  1.0000
  C   C6        1.0  0.65833  0.55589  0.58542  1.0000
  C   C7        1.0  0.19916  0.05614  0.08564  1.0000
  C   C8        1.0  0.34167  0.44412  0.41458  1.0000
  C   C9        1.0  0.83160  0.81178  0.98051  1.0000
  C   C10       1.0  0.62342  0.68796  0.51930  1.0000
  C   C11       1.0  0.16839  0.18822  0.01949  1.0000
  C   C12       1.0  0.37659  0.31204  0.48070  1.0000
  C   C13       1.0  0.04051  0.72317  0.00220  1.0000
  C   C14       1.0  0.76548  0.77664  0.49776  1.0000
  C   C15       1.0  0.95949  0.27683  0.99781  1.0000
  C   C16       1.0  0.23452  0.22336  0.50224  1.0000
  C   C17       1.0  0.20963  0.77046  0.95851  1.0000
  C   C18       1.0  0.93803  0.72933  0.54153  1.0000
  C   C19       1.0  0.79036  0.22954  0.04149  1.0000
  C   C20       1.0  0.06198  0.27067  0.45847  1.0000
  C   C21       1.0  0.08253  0.58391  0.07111  1.0000
  C   C22       1.0  0.73738  0.91607  0.42892  1.0000
  C   C23       1.0  0.91747  0.41609  0.92889  1.0000
  C   C24       1.0  0.26263  0.08393  0.57108  1.0000
  N   N1        1.0  0.92553  0.54124  0.12168  1.0000
  N   N2        1.0  0.58816  0.95884  0.37835  1.0000
  N   N3        1.0  0.07446  0.45877  0.87832  1.0000
  N   N4        1.0  0.41186  0.04116  0.62165  1.0000
  N   N5        1.0  0.02764  0.41535  0.17642  1.0000
  N   N6        1.0  0.61923  0.08474  0.32364  1.0000
  N   N7        1.0  0.97235  0.58465  0.82359  1.0000
  N   N8        1.0  0.38078  0.91526  0.67636  1.0000
  N   N9        1.0  0.23922  0.38137  0.16002  1.0000
  N   N10       1.0  0.78062  0.11866  0.34004  1.0000
  N   N11       1.0  0.76078  0.61863  0.83998  1.0000
  N   N12       1.0  0.21938  0.88135  0.65996  1.0000
  N   N13       1.0  0.27883  0.48472  0.09389  1.0000
  N   N14       1.0  0.85748  0.01523  0.40615  1.0000
  N   N15       1.0  0.72117  0.51527  0.90610  1.0000
  N   N16       1.0  0.14252  0.98478  0.59385  1.0000
  N   N17       1.0  0.17472  0.90292  0.89517  1.0000
  N   N18       1.0  0.97204  0.59681  0.60485  1.0000
  N   N19       1.0  0.82528  0.09708  0.10483  1.0000
  N   N20       1.0  0.02796  0.40320  0.39515  1.0000
  N   N21       1.0  0.38868  0.62045  0.77930  1.0000
  N   N22       1.0  0.78871  0.87935  0.72061  1.0000
  N   N23       1.0  0.61132  0.37955  0.22069  1.0000
  N   N24       1.0  0.21129  0.12065  0.27939  1.0000
  N   N25       1.0  0.47629  0.46763  0.80292  1.0000
  N   N26       1.0  0.74731  0.03219  0.69703  1.0000
  N   N27       1.0  0.52372  0.53235  0.19708  1.0000
  N   N28       1.0  0.25268  0.96782  0.30296  1.0000
  N   N29       1.0  0.56326  0.32411  0.82620  1.0000
  N   N30       1.0  0.71419  0.17574  0.67378  1.0000
  N   N31       1.0  0.43673  0.67589  0.17379  1.0000
  N   N32       1.0  0.28580  0.82427  0.32621  1.0000
  O   O1        1.0  0.33508  0.94829  0.85567  1.0000
  O   O2        1.0  0.13830  0.55140  0.64436  1.0000
  O   O3        1.0  0.66492  0.05171  0.14433  1.0000
  O   O4        1.0  0.86170  0.44861  0.35564  1.0000
