data_image0
_chemical_formula_structural       Ca4Hg4H36C36S8N12O28
_chemical_formula_sum              "Ca4 Hg4 H36 C36 S8 N12 O28"
_cell_length_a       6.84116
_cell_length_b       15.2564
_cell_length_c       17.0665
_cell_angle_alpha    116.882
_cell_angle_beta     90
_cell_angle_gamma    90

_space_group_name_H-M_alt    "P 1"
_space_group_IT_number       1

loop_
  _space_group_symop_operation_xyz
  'x, y, z'

loop_
  _atom_site_type_symbol
  _atom_site_label
  _atom_site_symmetry_multiplicity
  _atom_site_fract_x
  _atom_site_fract_y
  _atom_site_fract_z
  _atom_site_occupancy
  Ca  Ca1       1.0  0.30936  0.18806  0.43175  1.0000
  Ca  Ca2       1.0  0.80937  0.31194  0.56825  1.0000
  Ca  Ca3       1.0  0.69064  0.81194  0.56826  1.0000
  Ca  Ca4       1.0  0.19063  0.68806  0.43175  1.0000
  Hg  Hg1       1.0  0.45690  0.27826  0.13043  1.0000
  Hg  Hg2       1.0  0.95691  0.22175  0.86957  1.0000
  Hg  Hg3       1.0  0.54310  0.72174  0.86957  1.0000
  Hg  Hg4       1.0  0.04309  0.77825  0.13043  1.0000
  H   H1        1.0  0.36766  0.35164  0.37961  1.0000
  H   H2        1.0  0.86766  0.14836  0.62039  1.0000
  H   H3        1.0  0.63234  0.64836  0.62039  1.0000
  H   H4        1.0  0.13234  0.85164  0.37961  1.0000
  H   H5        1.0  0.33138  0.40545  0.48261  1.0000
  H   H6        1.0  0.83138  0.09456  0.51739  1.0000
  H   H7        1.0  0.66862  0.59455  0.51739  1.0000
  H   H8        1.0  0.16863  0.90545  0.48261  1.0000
  H   H9        1.0  0.36573  0.96504  0.28312  1.0000
  H   H10       1.0  0.86573  0.53496  0.71688  1.0000
  H   H11       1.0  0.63427  0.03496  0.71688  1.0000
  H   H12       1.0  0.13426  0.46504  0.28312  1.0000
  H   H13       1.0  0.38801  0.98843  0.38336  1.0000
  H   H14       1.0  0.88801  0.51158  0.61664  1.0000
  H   H15       1.0  0.61199  0.01158  0.61664  1.0000
  H   H16       1.0  0.11199  0.48843  0.38336  1.0000
  H   H17       1.0  0.30108  0.08141  0.55678  1.0000
  H   H18       1.0  0.80108  0.41858  0.44322  1.0000
  H   H19       1.0  0.69892  0.91858  0.44322  1.0000
  H   H20       1.0  0.19892  0.58142  0.55678  1.0000
  H   H21       1.0  0.51417  0.12310  0.55240  1.0000
  H   H22       1.0  0.01417  0.37690  0.44760  1.0000
  H   H23       1.0  0.48584  0.87690  0.44760  1.0000
  H   H24       1.0  0.98583  0.62310  0.55240  1.0000
  H   H25       1.0  0.75614  0.69553  0.25411  1.0000
  H   H26       1.0  0.25613  0.80447  0.74589  1.0000
  H   H27       1.0  0.24387  0.30447  0.74589  1.0000
  H   H28       1.0  0.74387  0.19553  0.25411  1.0000
  H   H29       1.0  0.68692  0.58724  0.09356  1.0000
  H   H30       1.0  0.18691  0.91276  0.90644  1.0000
  H   H31       1.0  0.31308  0.41276  0.90644  1.0000
  H   H32       1.0  0.81308  0.08724  0.09356  1.0000
  H   H33       1.0  0.55738  0.41696  0.04934  1.0000
  H   H34       1.0  0.05738  0.08305  0.95067  1.0000
  H   H35       1.0  0.44262  0.58305  0.95066  1.0000
  H   H36       1.0  0.94262  0.91695  0.04933  1.0000
  C   C1        1.0  0.59855  0.43785  0.32267  1.0000
  C   C2        1.0  0.09857  0.06215  0.67733  1.0000
  C   C3        1.0  0.40144  0.56215  0.67733  1.0000
  C   C4        1.0  0.90144  0.93785  0.32267  1.0000
  C   C5        1.0  0.68904  0.65314  0.38659  1.0000
  C   C6        1.0  0.18906  0.84686  0.61342  1.0000
  C   C7        1.0  0.31094  0.34685  0.61341  1.0000
  C   C8        1.0  0.81096  0.15314  0.38658  1.0000
  C   C9        1.0  0.61040  0.48590  0.26153  1.0000
  C   C10       1.0  0.11041  0.01410  0.73847  1.0000
  C   C11       1.0  0.38960  0.51410  0.73847  1.0000
  C   C12       1.0  0.88960  0.98590  0.26152  1.0000
  C   C13       1.0  0.67282  0.58320  0.29116  1.0000
  C   C14       1.0  0.17283  0.91681  0.70885  1.0000
  C   C15       1.0  0.32718  0.41680  0.70884  1.0000
  C   C16       1.0  0.82718  0.08319  0.29115  1.0000
  C   C17       1.0  0.70423  0.62018  0.23076  1.0000
  C   C18       1.0  0.20422  0.87983  0.76925  1.0000
  C   C19       1.0  0.29578  0.37983  0.76924  1.0000
  C   C20       1.0  0.79578  0.12017  0.23076  1.0000
  C   C21       1.0  0.66629  0.56058  0.14234  1.0000
  C   C22       1.0  0.16629  0.93943  0.85766  1.0000
  C   C23       1.0  0.33371  0.43942  0.85766  1.0000
  C   C24       1.0  0.83372  0.06058  0.14233  1.0000
  C   C25       1.0  0.59451  0.46652  0.11732  1.0000
  C   C26       1.0  0.09451  0.03349  0.88268  1.0000
  C   C27       1.0  0.40550  0.53348  0.88268  1.0000
  C   C28       1.0  0.90550  0.96652  0.11732  1.0000
  C   C29       1.0  0.30608  0.13637  0.19950  1.0000
  C   C30       1.0  0.80607  0.36364  0.80050  1.0000
  C   C31       1.0  0.69390  0.86363  0.80050  1.0000
  C   C32       1.0  0.19391  0.63636  0.19950  1.0000
  C   C33       1.0  0.97407  0.31202  0.11501  1.0000
  C   C34       1.0  0.47406  0.18798  0.88499  1.0000
  C   C35       1.0  0.02593  0.68797  0.88499  1.0000
  C   C36       1.0  0.52592  0.81202  0.11500  1.0000
  S   S1        1.0  0.33728  0.11393  0.09576  1.0000
  S   S2        1.0  0.83728  0.38607  0.90423  1.0000
  S   S3        1.0  0.66271  0.88608  0.90424  1.0000
  S   S4        1.0  0.16272  0.61393  0.09576  1.0000
  S   S5        1.0  0.83469  0.22916  0.03967  1.0000
  S   S6        1.0  0.33469  0.27084  0.96033  1.0000
  S   S7        1.0  0.16530  0.77084  0.96032  1.0000
  S   S8        1.0  0.66530  0.72916  0.03967  1.0000
  N   N1        1.0  0.56824  0.43142  0.17588  1.0000
  N   N2        1.0  0.06824  0.06859  0.82413  1.0000
  N   N3        1.0  0.43176  0.56858  0.82413  1.0000
  N   N4        1.0  0.93176  0.93141  0.17587  1.0000
  N   N5        1.0  0.28403  0.15199  0.27289  1.0000
  N   N6        1.0  0.78403  0.34801  0.72711  1.0000
  N   N7        1.0  0.71596  0.84802  0.72711  1.0000
  N   N8        1.0  0.21596  0.65199  0.27289  1.0000
  N   N9        1.0  0.07594  0.37116  0.16939  1.0000
  N   N10       1.0  0.57593  0.12884  0.83061  1.0000
  N   N11       1.0  0.92406  0.62884  0.83061  1.0000
  N   N12       1.0  0.42406  0.87116  0.16939  1.0000
  O   O1        1.0  0.51958  0.35332  0.29378  1.0000
  O   O2        1.0  0.01959  0.14668  0.70622  1.0000
  O   O3        1.0  0.48042  0.64668  0.70622  1.0000
  O   O4        1.0  0.98041  0.85332  0.29377  1.0000
  O   O5        1.0  0.67503  0.48441  0.39779  1.0000
  O   O6        1.0  0.17505  0.01559  0.60221  1.0000
  O   O7        1.0  0.32496  0.51560  0.60221  1.0000
  O   O8        1.0  0.82497  0.98440  0.39779  1.0000
  O   O9        1.0  0.53090  0.67879  0.42992  1.0000
  O   O10       1.0  0.03091  0.82121  0.57008  1.0000
  O   O11       1.0  0.46910  0.32121  0.57008  1.0000
  O   O12       1.0  0.96910  0.17879  0.42992  1.0000
  O   O13       1.0  0.85199  0.69095  0.41888  1.0000
  O   O14       1.0  0.35199  0.80905  0.58113  1.0000
  O   O15       1.0  0.14801  0.30905  0.58113  1.0000
  O   O16       1.0  0.64801  0.19095  0.41887  1.0000
  O   O17       1.0  0.28341  0.35199  0.42730  1.0000
  O   O18       1.0  0.78341  0.14802  0.57270  1.0000
  O   O19       1.0  0.71659  0.64801  0.57270  1.0000
  O   O20       1.0  0.21659  0.85199  0.42730  1.0000
  O   O21       1.0  0.33032  0.01181  0.34408  1.0000
  O   O22       1.0  0.83033  0.48818  0.65592  1.0000
  O   O23       1.0  0.66968  0.98819  0.65592  1.0000
  O   O24       1.0  0.16968  0.51181  0.34408  1.0000
  O   O25       1.0  0.38334  0.10893  0.52520  1.0000
  O   O26       1.0  0.88333  0.39106  0.47480  1.0000
  O   O27       1.0  0.61667  0.89106  0.47480  1.0000
  O   O28       1.0  0.11667  0.60893  0.52520  1.0000
