data_image0
_chemical_formula_structural       Ba4Hg4H36C36S8N12O28
_chemical_formula_sum              "Ba4 Hg4 H36 C36 S8 N12 O28"
_cell_length_a       6.90783
_cell_length_b       15.6983
_cell_length_c       15.9747
_cell_angle_alpha    100.059
_cell_angle_beta     90
_cell_angle_gamma    102.71

_space_group_name_H-M_alt    "P 1"
_space_group_IT_number       1

loop_
  _space_group_symop_operation_xyz
  'x, y, z'

loop_
  _atom_site_type_symbol
  _atom_site_label
  _atom_site_symmetry_multiplicity
  _atom_site_fract_x
  _atom_site_fract_y
  _atom_site_fract_z
  _atom_site_occupancy
  Ba  Ba1       1.0  0.48220  0.44188  0.66961  1.0000
  Ba  Ba2       1.0  0.04004  0.55796  0.83029  1.0000
  Ba  Ba3       1.0  0.51780  0.55812  0.33040  1.0000
  Ba  Ba4       1.0  0.95996  0.44204  0.16971  1.0000
  Hg  Hg1       1.0  0.03325  0.14500  0.37048  1.0000
  Hg  Hg2       1.0  0.88830  0.85487  0.12963  1.0000
  Hg  Hg3       1.0  0.96675  0.85500  0.62952  1.0000
  Hg  Hg4       1.0  0.11169  0.14513  0.87037  1.0000
  H   H1        1.0  0.86482  0.44847  0.55875  1.0000
  H   H2        1.0  0.41626  0.55167  0.94118  1.0000
  H   H3        1.0  0.13518  0.55153  0.44125  1.0000
  H   H4        1.0  0.58374  0.44833  0.05882  1.0000
  H   H5        1.0  0.79794  0.51653  0.50804  1.0000
  H   H6        1.0  0.28136  0.48377  0.99202  1.0000
  H   H7        1.0  0.20206  0.48347  0.49196  1.0000
  H   H8        1.0  0.71864  0.51623  0.00798  1.0000
  H   H9        1.0  0.40996  0.35740  0.85419  1.0000
  H   H10       1.0  0.05231  0.64257  0.64567  1.0000
  H   H11       1.0  0.59005  0.64260  0.14581  1.0000
  H   H12       1.0  0.94769  0.35743  0.35433  1.0000
  H   H13       1.0  0.64158  0.36861  0.84075  1.0000
  H   H14       1.0  0.27267  0.63130  0.65913  1.0000
  H   H15       1.0  0.35842  0.63139  0.15925  1.0000
  H   H16       1.0  0.72733  0.36870  0.34088  1.0000
  H   H17       1.0  0.62389  0.63714  0.60008  1.0000
  H   H18       1.0  0.98709  0.36295  0.89989  1.0000
  H   H19       1.0  0.37611  0.36286  0.39992  1.0000
  H   H20       1.0  0.01291  0.63705  0.10011  1.0000
  H   H21       1.0  0.41858  0.59454  0.54784  1.0000
  H   H22       1.0  0.82407  0.40534  0.95210  1.0000
  H   H23       1.0  0.58142  0.40546  0.45216  1.0000
  H   H24       1.0  0.17594  0.59466  0.04790  1.0000
  H   H25       1.0  0.75851  0.22170  0.74246  1.0000
  H   H26       1.0  0.53702  0.77813  0.75771  1.0000
  H   H27       1.0  0.24150  0.77829  0.25754  1.0000
  H   H28       1.0  0.46298  0.22187  0.24229  1.0000
  H   H29       1.0  0.66055  0.06849  0.65505  1.0000
  H   H30       1.0  0.59286  0.93132  0.84510  1.0000
  H   H31       1.0  0.33945  0.93151  0.34495  1.0000
  H   H32       1.0  0.40713  0.06868  0.15490  1.0000
  H   H33       1.0  0.77339  0.04341  0.50489  1.0000
  H   H34       1.0  0.73046  0.95630  0.99530  1.0000
  H   H35       1.0  0.22661  0.95659  0.49511  1.0000
  H   H36       1.0  0.26953  0.04370  0.00470  1.0000
  C   C1        1.0  0.07280  0.33032  0.50886  1.0000
  C   C2        1.0  0.74226  0.66929  0.99123  1.0000
  C   C3        1.0  0.92720  0.66968  0.49114  1.0000
  C   C4        1.0  0.25774  0.33071  0.00877  1.0000
  C   C5        1.0  0.96741  0.36860  0.69475  1.0000
  C   C6        1.0  0.59840  0.63109  0.80531  1.0000
  C   C7        1.0  0.03260  0.63139  0.30525  1.0000
  C   C8        1.0  0.40160  0.36891  0.19468  1.0000
  C   C9        1.0  0.96217  0.25860  0.55440  1.0000
  C   C10       1.0  0.70322  0.74102  0.94577  1.0000
  C   C11       1.0  0.03784  0.74140  0.44560  1.0000
  C   C12       1.0  0.29679  0.25898  0.05423  1.0000
  C   C13       1.0  0.91193  0.27765  0.63975  1.0000
  C   C14       1.0  0.63387  0.72201  0.86044  1.0000
  C   C15       1.0  0.08808  0.72235  0.36026  1.0000
  C   C16       1.0  0.36612  0.27799  0.13956  1.0000
  C   C17       1.0  0.80192  0.20843  0.67663  1.0000
  C   C18       1.0  0.59362  0.79134  0.82355  1.0000
  C   C19       1.0  0.19809  0.79157  0.32338  1.0000
  C   C20       1.0  0.40639  0.20867  0.17645  1.0000
  C   C21       1.0  0.74781  0.12356  0.62868  1.0000
  C   C22       1.0  0.62470  0.87621  0.87152  1.0000
  C   C23       1.0  0.25220  0.87644  0.37132  1.0000
  C   C24       1.0  0.37530  0.12379  0.12848  1.0000
  C   C25       1.0  0.80726  0.10907  0.54490  1.0000
  C   C26       1.0  0.69845  0.89064  0.95530  1.0000
  C   C27       1.0  0.19274  0.89093  0.45511  1.0000
  C   C28       1.0  0.30154  0.10936  0.04470  1.0000
  C   C29       1.0  0.42502  0.21546  0.48990  1.0000
  C   C30       1.0  0.20905  0.78466  0.00999  1.0000
  C   C31       1.0  0.57498  0.78454  0.51010  1.0000
  C   C32       1.0  0.79095  0.21534  0.99001  1.0000
  C   C33       1.0  0.79713  0.92317  0.32063  1.0000
  C   C34       1.0  0.87464  0.07692  0.17930  1.0000
  C   C35       1.0  0.20288  0.07683  0.67937  1.0000
  C   C36       1.0  0.12535  0.92308  0.82070  1.0000
  S   S1        1.0  0.39109  0.13671  0.40433  1.0000
  S   S2        1.0  0.25418  0.86340  0.09557  1.0000
  S   S3        1.0  0.60890  0.86328  0.59567  1.0000
  S   S4        1.0  0.74582  0.13660  0.90443  1.0000
  S   S5        1.0  0.70695  0.82566  0.26090  1.0000
  S   S6        1.0  0.88191  0.17441  0.23906  1.0000
  S   S7        1.0  0.29306  0.17434  0.73910  1.0000
  S   S8        1.0  0.11808  0.82560  0.76094  1.0000
  N   N1        1.0  0.91031  0.17526  0.50940  1.0000
  N   N2        1.0  0.73496  0.82438  0.99079  1.0000
  N   N3        1.0  0.08969  0.82474  0.49060  1.0000
  N   N4        1.0  0.26504  0.17563  0.00921  1.0000
  N   N5        1.0  0.45115  0.27214  0.55062  1.0000
  N   N6        1.0  0.17828  0.72792  0.94932  1.0000
  N   N7        1.0  0.54885  0.72786  0.44938  1.0000
  N   N8        1.0  0.82172  0.27208  0.05068  1.0000
  N   N9        1.0  0.85724  0.99107  0.36740  1.0000
  N   N10       1.0  0.86672  0.00899  0.13258  1.0000
  N   N11       1.0  0.14275  0.00892  0.63260  1.0000
  N   N12       1.0  0.13326  0.99102  0.86742  1.0000
  O   O1        1.0  0.09860  0.31255  0.42964  1.0000
  O   O2        1.0  0.78592  0.68705  0.07044  1.0000
  O   O3        1.0  0.90140  0.68745  0.57036  1.0000
  O   O4        1.0  0.21408  0.31295  0.92956  1.0000
  O   O5        1.0  0.13259  0.40765  0.55389  1.0000
  O   O6        1.0  0.72483  0.59200  0.94613  1.0000
  O   O7        1.0  0.86741  0.59235  0.44611  1.0000
  O   O8        1.0  0.27517  0.40800  0.05387  1.0000
  O   O9        1.0  0.12902  0.38926  0.73857  1.0000
  O   O10       1.0  0.73932  0.61057  0.76141  1.0000
  O   O11       1.0  0.87098  0.61074  0.26144  1.0000
  O   O12       1.0  0.26068  0.38943  0.23859  1.0000
  O   O13       1.0  0.84187  0.41707  0.69842  1.0000
  O   O14       1.0  0.42445  0.58256  0.80160  1.0000
  O   O15       1.0  0.15813  0.58293  0.30158  1.0000
  O   O16       1.0  0.57554  0.41744  0.19840  1.0000
  O   O17       1.0  0.74769  0.46418  0.53650  1.0000
  O   O18       1.0  0.28349  0.53612  0.96354  1.0000
  O   O19       1.0  0.25232  0.53582  0.46350  1.0000
  O   O20       1.0  0.71651  0.46389  0.03646  1.0000
  O   O21       1.0  0.51487  0.37170  0.81413  1.0000
  O   O22       1.0  0.14277  0.62809  0.68567  1.0000
  O   O23       1.0  0.48514  0.62830  0.18587  1.0000
  O   O24       1.0  0.85723  0.37191  0.31433  1.0000
  O   O25       1.0  0.48625  0.60472  0.60474  1.0000
  O   O26       1.0  0.88166  0.39525  0.89521  1.0000
  O   O27       1.0  0.51375  0.39528  0.39526  1.0000
  O   O28       1.0  0.11834  0.60475  0.10479  1.0000
