data_image0
_chemical_formula_structural       Sr4Hg4H36C36S8N12O28
_chemical_formula_sum              "Sr4 Hg4 H36 C36 S8 N12 O28"
_cell_length_a       6.7529
_cell_length_b       15.6453
_cell_length_c       15.746
_cell_angle_alpha    100.482
_cell_angle_beta     102.712
_cell_angle_gamma    89.9385

_space_group_name_H-M_alt    "P 1"
_space_group_IT_number       1

loop_
  _space_group_symop_operation_xyz
  'x, y, z'

loop_
  _atom_site_type_symbol
  _atom_site_label
  _atom_site_symmetry_multiplicity
  _atom_site_fract_x
  _atom_site_fract_y
  _atom_site_fract_z
  _atom_site_occupancy
  Sr  Sr1       1.0  0.51122  0.32768  0.55573  1.0000
  Sr  Sr2       1.0  0.95495  0.17218  0.44430  1.0000
  Sr  Sr3       1.0  0.48878  0.67232  0.44428  1.0000
  Sr  Sr4       1.0  0.04505  0.82782  0.55570  1.0000
  Hg  Hg1       1.0  0.95062  0.63031  0.85222  1.0000
  Hg  Hg2       1.0  0.09589  0.86927  0.14772  1.0000
  Hg  Hg3       1.0  0.04939  0.36969  0.14779  1.0000
  Hg  Hg4       1.0  0.90411  0.13073  0.85228  1.0000
  H   H1        1.0  0.14257  0.43651  0.55021  1.0000
  H   H2        1.0  0.59188  0.06355  0.44974  1.0000
  H   H3        1.0  0.85743  0.56349  0.44979  1.0000
  H   H4        1.0  0.40812  0.93646  0.55025  1.0000
  H   H5        1.0  0.21457  0.48859  0.48365  1.0000
  H   H6        1.0  0.73161  0.01133  0.51628  1.0000
  H   H7        1.0  0.78544  0.51141  0.51635  1.0000
  H   H8        1.0  0.26838  0.98867  0.48372  1.0000
  H   H9        1.0  0.59685  0.15404  0.64038  1.0000
  H   H10       1.0  0.95347  0.34556  0.35930  1.0000
  H   H11       1.0  0.40315  0.84596  0.35962  1.0000
  H   H12       1.0  0.04654  0.65443  0.64070  1.0000
  H   H13       1.0  0.35821  0.16549  0.62704  1.0000
  H   H14       1.0  0.72875  0.33453  0.37302  1.0000
  H   H15       1.0  0.64179  0.83451  0.37296  1.0000
  H   H16       1.0  0.27125  0.66547  0.62698  1.0000
  H   H17       1.0  0.37560  0.39489  0.36926  1.0000
  H   H18       1.0  0.00885  0.10526  0.63097  1.0000
  H   H19       1.0  0.62441  0.60510  0.63074  1.0000
  H   H20       1.0  0.99115  0.89474  0.36903  1.0000
  H   H21       1.0  0.58246  0.45006  0.41063  1.0000
  H   H22       1.0  0.17364  0.04997  0.58977  1.0000
  H   H23       1.0  0.41755  0.54994  0.58937  1.0000
  H   H24       1.0  0.82636  0.95003  0.41023  1.0000
  H   H25       1.0  0.24231  0.25274  0.76758  1.0000
  H   H26       1.0  0.47329  0.24683  0.23324  1.0000
  H   H27       1.0  0.75768  0.74726  0.23242  1.0000
  H   H28       1.0  0.52671  0.75317  0.76676  1.0000
  H   H29       1.0  0.33811  0.33940  0.92215  1.0000
  H   H30       1.0  0.41467  0.15992  0.07882  1.0000
  H   H31       1.0  0.66188  0.66060  0.07785  1.0000
  H   H32       1.0  0.58533  0.84008  0.92118  1.0000
  H   H33       1.0  0.21958  0.49240  0.95078  1.0000
  H   H34       1.0  0.26691  0.00697  0.04985  1.0000
  H   H35       1.0  0.78043  0.50760  0.04922  1.0000
  H   H36       1.0  0.73309  0.99303  0.95016  1.0000
  C   C1        1.0  0.91658  0.49216  0.66503  1.0000
  C   C2        1.0  0.24953  0.00772  0.33495  1.0000
  C   C3        1.0  0.08342  0.50784  0.33497  1.0000
  C   C4        1.0  0.75045  0.99228  0.66505  1.0000
  C   C5        1.0  0.02547  0.30408  0.62281  1.0000
  C   C6        1.0  0.40089  0.19582  0.37740  1.0000
  C   C7        1.0  0.97453  0.69592  0.37719  1.0000
  C   C8        1.0  0.59910  0.80418  0.62260  1.0000
  C   C9        1.0  0.02971  0.44496  0.73561  1.0000
  C   C10       1.0  0.29174  0.05483  0.26457  1.0000
  C   C11       1.0  0.97030  0.55504  0.26439  1.0000
  C   C12       1.0  0.70826  0.94517  0.73543  1.0000
  C   C13       1.0  0.08231  0.35820  0.71463  1.0000
  C   C14       1.0  0.36534  0.14161  0.28565  1.0000
  C   C15       1.0  0.91769  0.64180  0.28537  1.0000
  C   C16       1.0  0.63466  0.85839  0.71435  1.0000
  C   C17       1.0  0.19547  0.31954  0.78239  1.0000
  C   C18       1.0  0.41122  0.18008  0.21819  1.0000
  C   C19       1.0  0.80453  0.68047  0.21760  1.0000
  C   C20       1.0  0.58878  0.81992  0.78181  1.0000
  C   C21       1.0  0.24898  0.36728  0.86806  1.0000
  C   C22       1.0  0.37918  0.13222  0.13265  1.0000
  C   C23       1.0  0.75102  0.63272  0.13194  1.0000
  C   C24       1.0  0.62082  0.86778  0.86735  1.0000
  C   C25       1.0  0.18656  0.45250  0.88453  1.0000
  C   C26       1.0  0.30001  0.04702  0.11601  1.0000
  C   C27       1.0  0.81344  0.54750  0.11547  1.0000
  C   C28       1.0  0.69999  0.95298  0.88399  1.0000
  C   C29       1.0  0.56372  0.50172  0.77461  1.0000
  C   C30       1.0  0.78665  0.99815  0.22479  1.0000
  C   C31       1.0  0.43629  0.49828  0.22540  1.0000
  C   C32       1.0  0.21334  0.00185  0.77520  1.0000
  C   C33       1.0  0.19261  0.67680  0.07456  1.0000
  C   C34       1.0  0.11944  0.82269  0.92616  1.0000
  C   C35       1.0  0.80738  0.32320  0.92543  1.0000
  C   C36       1.0  0.88056  0.17731  0.07384  1.0000
  S   S1        1.0  0.58757  0.58804  0.85482  1.0000
  S   S2        1.0  0.72995  0.91229  0.14394  1.0000
  S   S3        1.0  0.41243  0.41195  0.14518  1.0000
  S   S4        1.0  0.27005  0.08771  0.85606  1.0000
  S   S5        1.0  0.28671  0.73615  0.17295  1.0000
  S   S6        1.0  0.11741  0.76342  0.82817  1.0000
  S   S7        1.0  0.71328  0.26385  0.82706  1.0000
  S   S8        1.0  0.88257  0.23658  0.17182  1.0000
  N   N1        1.0  0.08155  0.48978  0.81948  1.0000
  N   N2        1.0  0.25990  0.00989  0.18081  1.0000
  N   N3        1.0  0.91846  0.51022  0.18053  1.0000
  N   N4        1.0  0.74010  0.99011  0.81919  1.0000
  N   N5        1.0  0.54394  0.44058  0.71678  1.0000
  N   N6        1.0  0.82457  0.05899  0.28302  1.0000
  N   N7        1.0  0.45607  0.55942  0.28322  1.0000
  N   N8        1.0  0.17543  0.94101  0.71698  1.0000
  N   N9        1.0  0.12925  0.63038  0.00582  1.0000
  N   N10       1.0  0.12295  0.86888  0.99472  1.0000
  N   N11       1.0  0.87076  0.36963  0.99419  1.0000
  N   N12       1.0  0.87704  0.13112  0.00527  1.0000
  O   O1        1.0  0.89471  0.57352  0.68375  1.0000
  O   O2        1.0  0.20802  0.92642  0.31618  1.0000
  O   O3        1.0  0.10529  0.42648  0.31625  1.0000
  O   O4        1.0  0.79198  0.07358  0.68382  1.0000
  O   O5        1.0  0.85113  0.44635  0.58780  1.0000
  O   O6        1.0  0.26263  0.05354  0.41213  1.0000
  O   O7        1.0  0.14889  0.55365  0.41220  1.0000
  O   O8        1.0  0.73734  0.94646  0.58787  1.0000
  O   O9        1.0  0.85651  0.26179  0.59926  1.0000
  O   O10       1.0  0.25539  0.23790  0.40072  1.0000
  O   O11       1.0  0.14349  0.73821  0.40074  1.0000
  O   O12       1.0  0.74461  0.76211  0.59927  1.0000
  O   O13       1.0  0.15638  0.29859  0.57558  1.0000
  O   O14       1.0  0.58002  0.20158  0.42489  1.0000
  O   O15       1.0  0.84362  0.70141  0.42443  1.0000
  O   O16       1.0  0.41998  0.79842  0.57512  1.0000
  O   O17       1.0  0.26374  0.45889  0.53560  1.0000
  O   O18       1.0  0.72797  0.04098  0.46434  1.0000
  O   O19       1.0  0.73627  0.54110  0.46440  1.0000
  O   O20       1.0  0.27203  0.95902  0.53566  1.0000
  O   O21       1.0  0.48859  0.19489  0.62826  1.0000
  O   O22       1.0  0.85745  0.30478  0.37126  1.0000
  O   O23       1.0  0.51141  0.80511  0.37174  1.0000
  O   O24       1.0  0.14255  0.69521  0.62873  1.0000
  O   O25       1.0  0.51714  0.39119  0.40164  1.0000
  O   O26       1.0  0.11749  0.10890  0.59877  1.0000
  O   O27       1.0  0.48287  0.60881  0.59836  1.0000
  O   O28       1.0  0.88251  0.89110  0.40123  1.0000
