data_image0
_chemical_formula_structural       Hg8H24C56N8O32
_chemical_formula_sum              "Hg8 H24 C56 N8 O32"
_cell_length_a       8.98145
_cell_length_b       11.7371
_cell_length_c       14.749
_cell_angle_alpha    109.639
_cell_angle_beta     90
_cell_angle_gamma    90

_space_group_name_H-M_alt    "P 1"
_space_group_IT_number       1

loop_
  _space_group_symop_operation_xyz
  'x, y, z'

loop_
  _atom_site_type_symbol
  _atom_site_label
  _atom_site_symmetry_multiplicity
  _atom_site_fract_x
  _atom_site_fract_y
  _atom_site_fract_z
  _atom_site_occupancy
  Hg  Hg1       1.0  0.67616  0.67395  0.71493  1.0000
  Hg  Hg2       1.0  0.17616  0.82605  0.78507  1.0000
  Hg  Hg3       1.0  0.32383  0.32605  0.28507  1.0000
  Hg  Hg4       1.0  0.82384  0.17395  0.21493  1.0000
  Hg  Hg5       1.0  0.49609  0.09188  0.83337  1.0000
  Hg  Hg6       1.0  0.99608  0.40813  0.66663  1.0000
  Hg  Hg7       1.0  0.50392  0.90812  0.16663  1.0000
  Hg  Hg8       1.0  0.00392  0.59188  0.33337  1.0000
  H   H1        1.0  0.53213  0.58099  0.29227  1.0000
  H   H2        1.0  0.03214  0.91900  0.20773  1.0000
  H   H3        1.0  0.46786  0.41901  0.70773  1.0000
  H   H4        1.0  0.96786  0.08099  0.79226  1.0000
  H   H5        1.0  0.44726  0.77149  0.41820  1.0000
  H   H6        1.0  0.94726  0.72851  0.08180  1.0000
  H   H7        1.0  0.55274  0.22851  0.58180  1.0000
  H   H8        1.0  0.05274  0.27149  0.91820  1.0000
  H   H9        1.0  0.51353  0.80557  0.59128  1.0000
  H   H10       1.0  0.01353  0.69443  0.90872  1.0000
  H   H11       1.0  0.48647  0.19443  0.40872  1.0000
  H   H12       1.0  0.98647  0.30557  0.09128  1.0000
  H   H13       1.0  0.74690  0.60308  0.03826  1.0000
  H   H14       1.0  0.24690  0.89693  0.46174  1.0000
  H   H15       1.0  0.25310  0.39693  0.96174  1.0000
  H   H16       1.0  0.75310  0.10308  0.53826  1.0000
  H   H17       1.0  0.66693  0.48319  0.14014  1.0000
  H   H18       1.0  0.16693  0.01682  0.35986  1.0000
  H   H19       1.0  0.33307  0.51682  0.85986  1.0000
  H   H20       1.0  0.83307  0.98318  0.64014  1.0000
  H   H21       1.0  0.55495  0.27577  0.05856  1.0000
  H   H22       1.0  0.05495  0.22424  0.44144  1.0000
  H   H23       1.0  0.44505  0.72424  0.94144  1.0000
  H   H24       1.0  0.94505  0.77576  0.55856  1.0000
  C   C1        1.0  0.79901  0.46672  0.52255  1.0000
  C   C2        1.0  0.29901  0.03329  0.97745  1.0000
  C   C3        1.0  0.20099  0.53329  0.47745  1.0000
  C   C4        1.0  0.70100  0.96671  0.02255  1.0000
  C   C5        1.0  0.70985  0.40679  0.31730  1.0000
  C   C6        1.0  0.20985  0.09321  0.18270  1.0000
  C   C7        1.0  0.29015  0.59321  0.68270  1.0000
  C   C8        1.0  0.79015  0.90679  0.81730  1.0000
  C   C9        1.0  0.69512  0.54792  0.49023  1.0000
  C   C10       1.0  0.19512  0.95208  0.00977  1.0000
  C   C11       1.0  0.30488  0.45208  0.50977  1.0000
  C   C12       1.0  0.80488  0.04792  0.99023  1.0000
  C   C13       1.0  0.65621  0.52060  0.39300  1.0000
  C   C14       1.0  0.15621  0.97940  0.10700  1.0000
  C   C15       1.0  0.34379  0.47940  0.60700  1.0000
  C   C16       1.0  0.84379  0.02060  0.89300  1.0000
  C   C17       1.0  0.56556  0.60185  0.36709  1.0000
  C   C18       1.0  0.06556  0.89815  0.13291  1.0000
  C   C19       1.0  0.43444  0.39815  0.63291  1.0000
  C   C20       1.0  0.93444  0.10185  0.86709  1.0000
  C   C21       1.0  0.51662  0.70703  0.43734  1.0000
  C   C22       1.0  0.01663  0.79297  0.06266  1.0000
  C   C23       1.0  0.48337  0.29297  0.56266  1.0000
  C   C24       1.0  0.98337  0.20703  0.93734  1.0000
  C   C25       1.0  0.55459  0.72714  0.53302  1.0000
  C   C26       1.0  0.05459  0.77286  0.96698  1.0000
  C   C27       1.0  0.44541  0.27286  0.46698  1.0000
  C   C28       1.0  0.94541  0.22714  0.03302  1.0000
  C   C29       1.0  0.67578  0.26435  0.75829  1.0000
  C   C30       1.0  0.17579  0.23565  0.74171  1.0000
  C   C31       1.0  0.32421  0.73565  0.24171  1.0000
  C   C32       1.0  0.82421  0.76435  0.25829  1.0000
  C   C33       1.0  0.74322  0.53185  0.84225  1.0000
  C   C34       1.0  0.24322  0.96815  0.65774  1.0000
  C   C35       1.0  0.25678  0.46815  0.15775  1.0000
  C   C36       1.0  0.75678  0.03185  0.34226  1.0000
  C   C37       1.0  0.66080  0.33566  0.86506  1.0000
  C   C38       1.0  0.16080  0.16434  0.63494  1.0000
  C   C39       1.0  0.33920  0.66434  0.13494  1.0000
  C   C40       1.0  0.83920  0.83566  0.36506  1.0000
  C   C41       1.0  0.70614  0.45670  0.90433  1.0000
  C   C42       1.0  0.20615  0.04330  0.59567  1.0000
  C   C43       1.0  0.29385  0.54330  0.09567  1.0000
  C   C44       1.0  0.79386  0.95670  0.40433  1.0000
  C   C45       1.0  0.70983  0.50988  0.00479  1.0000
  C   C46       1.0  0.20983  0.99012  0.49521  1.0000
  C   C47       1.0  0.29017  0.49012  0.99521  1.0000
  C   C48       1.0  0.79017  0.00988  0.50479  1.0000
  C   C49       1.0  0.66246  0.44414  0.06213  1.0000
  C   C50       1.0  0.16246  0.05587  0.43787  1.0000
  C   C51       1.0  0.33753  0.55587  0.93787  1.0000
  C   C52       1.0  0.83754  0.94414  0.56213  1.0000
  C   C53       1.0  0.60502  0.32815  0.01793  1.0000
  C   C54       1.0  0.10502  0.17185  0.48207  1.0000
  C   C55       1.0  0.39498  0.67185  0.98207  1.0000
  C   C56       1.0  0.89498  0.82815  0.51793  1.0000
  N   N1        1.0  0.64133  0.64887  0.55731  1.0000
  N   N2        1.0  0.14133  0.85113  0.94269  1.0000
  N   N3        1.0  0.35867  0.35113  0.44269  1.0000
  N   N4        1.0  0.85867  0.14887  0.05731  1.0000
  N   N5        1.0  0.60734  0.27665  0.92207  1.0000
  N   N6        1.0  0.10734  0.22335  0.57792  1.0000
  N   N7        1.0  0.39266  0.72335  0.07792  1.0000
  N   N8        1.0  0.89266  0.77665  0.42207  1.0000
  O   O1        1.0  0.85141  0.51778  0.60932  1.0000
  O   O2        1.0  0.35141  0.98222  0.89068  1.0000
  O   O3        1.0  0.14859  0.48222  0.39068  1.0000
  O   O4        1.0  0.64859  0.01777  0.10932  1.0000
  O   O5        1.0  0.82904  0.36379  0.46770  1.0000
  O   O6        1.0  0.32904  0.13621  0.03230  1.0000
  O   O7        1.0  0.17096  0.63621  0.53230  1.0000
  O   O8        1.0  0.67097  0.86379  0.96770  1.0000
  O   O9        1.0  0.62177  0.31690  0.28998  1.0000
  O   O10       1.0  0.12178  0.18310  0.21002  1.0000
  O   O11       1.0  0.37822  0.68310  0.71002  1.0000
  O   O12       1.0  0.87823  0.81690  0.78998  1.0000
  O   O13       1.0  0.83938  0.40527  0.28207  1.0000
  O   O14       1.0  0.33938  0.09473  0.21794  1.0000
  O   O15       1.0  0.16061  0.59473  0.71793  1.0000
  O   O16       1.0  0.66062  0.90527  0.78207  1.0000
  O   O17       1.0  0.74317  0.31312  0.70643  1.0000
  O   O18       1.0  0.24318  0.18688  0.79357  1.0000
  O   O19       1.0  0.25682  0.68689  0.29357  1.0000
  O   O20       1.0  0.75682  0.81311  0.20643  1.0000
  O   O21       1.0  0.62071  0.15721  0.72598  1.0000
  O   O22       1.0  0.12071  0.34279  0.77402  1.0000
  O   O23       1.0  0.37929  0.84279  0.27402  1.0000
  O   O24       1.0  0.87929  0.65720  0.22598  1.0000
  O   O25       1.0  0.62495  0.57108  0.81185  1.0000
  O   O26       1.0  0.12495  0.92892  0.68815  1.0000
  O   O27       1.0  0.37505  0.42892  0.18815  1.0000
  O   O28       1.0  0.87505  0.07108  0.31185  1.0000
  O   O29       1.0  0.87479  0.55588  0.82892  1.0000
  O   O30       1.0  0.37479  0.94412  0.67109  1.0000
  O   O31       1.0  0.12521  0.44412  0.17109  1.0000
  O   O32       1.0  0.62521  0.05588  0.32892  1.0000
