data_image0
_chemical_formula_structural       Pr2H44C54N6O14
_chemical_formula_sum              "Pr2 H44 C54 N6 O14"
_cell_length_a       7.72808
_cell_length_b       10.1625
_cell_length_c       16.325
_cell_angle_alpha    82.0241
_cell_angle_beta     85.969
_cell_angle_gamma    69.5429

_space_group_name_H-M_alt    "P 1"
_space_group_IT_number       1

loop_
  _space_group_symop_operation_xyz
  'x, y, z'

loop_
  _atom_site_type_symbol
  _atom_site_label
  _atom_site_symmetry_multiplicity
  _atom_site_fract_x
  _atom_site_fract_y
  _atom_site_fract_z
  _atom_site_occupancy
  Pr  Pr1       1.0  0.22591  0.05303  0.46114  1.0000
  Pr  Pr2       1.0  0.77409  0.94697  0.53886  1.0000
  H   H1        1.0  0.38720  0.27922  0.15626  1.0000
  H   H2        1.0  0.61280  0.72078  0.84374  1.0000
  H   H3        1.0  0.53836  0.25108  0.01723  1.0000
  H   H4        1.0  0.46164  0.74892  0.98277  1.0000
  H   H5        1.0  0.76648  0.80307  0.09566  1.0000
  H   H6        1.0  0.23352  0.19693  0.90434  1.0000
  H   H7        1.0  0.60793  0.85051  0.23288  1.0000
  H   H8        1.0  0.39207  0.14949  0.76712  1.0000
  H   H9        1.0  0.66493  0.22205  0.91001  1.0000
  H   H10       1.0  0.33507  0.77795  0.08999  1.0000
  H   H11       1.0  0.09353  0.93631  0.77277  1.0000
  H   H12       1.0  0.90647  0.06369  0.22723  1.0000
  H   H13       1.0  0.49992  0.48544  0.78810  1.0000
  H   H14       1.0  0.50008  0.51456  0.21191  1.0000
  H   H15       1.0  0.27262  0.72902  0.77100  1.0000
  H   H16       1.0  0.72738  0.27098  0.22900  1.0000
  H   H17       1.0  0.02712  0.62863  0.00529  1.0000
  H   H18       1.0  0.97288  0.37137  0.99471  1.0000
  H   H19       1.0  0.25837  0.38470  0.01076  1.0000
  H   H20       1.0  0.74163  0.61530  0.98924  1.0000
  H   H21       1.0  0.87910  0.33048  0.88180  1.0000
  H   H22       1.0  0.12090  0.66952  0.11820  1.0000
  H   H23       1.0  0.89203  0.55120  0.79894  1.0000
  H   H24       1.0  0.10797  0.44880  0.20106  1.0000
  H   H25       1.0  0.90769  0.56905  0.64490  1.0000
  H   H26       1.0  0.09231  0.43096  0.35511  1.0000
  H   H27       1.0  0.92840  0.35940  0.57673  1.0000
  H   H28       1.0  0.07160  0.64060  0.42327  1.0000
  H   H29       1.0  0.55336  0.31263  0.58556  1.0000
  H   H30       1.0  0.44664  0.68736  0.41443  1.0000
  H   H31       1.0  0.37158  0.31629  0.65639  1.0000
  H   H32       1.0  0.62842  0.68371  0.34361  1.0000
  H   H33       1.0  0.34507  0.52290  0.49743  1.0000
  H   H34       1.0  0.65493  0.47710  0.50257  1.0000
  H   H35       1.0  0.15395  0.51902  0.56111  1.0000
  H   H36       1.0  0.84605  0.48098  0.43889  1.0000
  H   H37       1.0  0.48888  0.57958  0.61696  1.0000
  H   H38       1.0  0.51112  0.42041  0.38304  1.0000
  H   H39       1.0  0.30110  0.56007  0.68139  1.0000
  H   H40       1.0  0.69890  0.43993  0.31861  1.0000
  H   H41       1.0  0.42479  0.11857  0.29794  1.0000
  H   H42       1.0  0.57521  0.88143  0.70206  1.0000
  H   H43       1.0  0.49606  0.17338  0.37311  1.0000
  H   H44       1.0  0.50394  0.82662  0.62689  1.0000
  C   C1        1.0  0.47258  0.17466  0.14050  1.0000
  C   C2        1.0  0.52742  0.82534  0.85950  1.0000
  C   C3        1.0  0.55675  0.15861  0.06266  1.0000
  C   C4        1.0  0.44325  0.84139  0.93734  1.0000
  C   C5        1.0  0.66904  0.02375  0.04464  1.0000
  C   C6        1.0  0.33096  0.97625  0.95536  1.0000
  C   C7        1.0  0.68382  0.91032  0.10675  1.0000
  C   C8        1.0  0.31618  0.08968  0.89325  1.0000
  C   C9        1.0  0.59580  0.93666  0.18314  1.0000
  C   C10       1.0  0.40420  0.06334  0.81686  1.0000
  C   C11       1.0  0.77549  0.00279  0.96525  1.0000
  C   C12       1.0  0.22451  0.99721  0.03474  1.0000
  C   C13       1.0  0.76441  0.11673  0.90405  1.0000
  C   C14       1.0  0.23559  0.88327  0.09595  1.0000
  C   C15       1.0  0.88119  0.09563  0.83382  1.0000
  C   C16       1.0  0.11881  0.90437  0.16618  1.0000
  C   C17       1.0  0.99900  0.95727  0.82588  1.0000
  C   C18       1.0  0.00100  0.04272  0.17412  1.0000
  C   C19       1.0  0.99944  0.84826  0.88879  1.0000
  C   C20       1.0  0.00055  0.15174  0.11121  1.0000
  C   C21       1.0  0.39107  0.51961  0.83498  1.0000
  C   C22       1.0  0.60893  0.48039  0.16502  1.0000
  C   C23       1.0  0.26334  0.65703  0.82570  1.0000
  C   C24       1.0  0.73666  0.34297  0.17430  1.0000
  C   C25       1.0  0.12980  0.70119  0.88823  1.0000
  C   C26       1.0  0.87020  0.29881  0.11177  1.0000
  C   C27       1.0  0.12911  0.59947  0.95563  1.0000
  C   C28       1.0  0.87089  0.40053  0.04437  1.0000
  C   C29       1.0  0.25975  0.46441  0.95865  1.0000
  C   C30       1.0  0.74026  0.53559  0.04135  1.0000
  C   C31       1.0  0.88849  0.22111  0.77707  1.0000
  C   C32       1.0  0.11151  0.77889  0.22293  1.0000
  C   C33       1.0  0.88647  0.33831  0.81448  1.0000
  C   C34       1.0  0.11353  0.66169  0.18552  1.0000
  C   C35       1.0  0.89460  0.46198  0.76802  1.0000
  C   C36       1.0  0.10540  0.53802  0.23198  1.0000
  C   C37       1.0  0.90693  0.47137  0.68189  1.0000
  C   C38       1.0  0.09307  0.52863  0.31811  1.0000
  C   C39       1.0  0.91552  0.35456  0.64373  1.0000
  C   C40       1.0  0.08448  0.64544  0.35627  1.0000
  C   C41       1.0  0.90512  0.23004  0.68970  1.0000
  C   C42       1.0  0.09488  0.76996  0.31030  1.0000
  C   C43       1.0  0.88744  0.12010  0.64172  1.0000
  C   C44       1.0  0.11256  0.87990  0.35828  1.0000
  C   C45       1.0  0.34811  0.24283  0.54457  1.0000
  C   C46       1.0  0.65188  0.75717  0.45542  1.0000
  C   C47       1.0  0.40233  0.34140  0.59022  1.0000
  C   C48       1.0  0.59767  0.65860  0.40978  1.0000
  C   C49       1.0  0.30309  0.49754  0.56165  1.0000
  C   C50       1.0  0.69691  0.50246  0.43835  1.0000
  C   C51       1.0  0.34150  0.59239  0.61803  1.0000
  C   C52       1.0  0.65850  0.40761  0.38198  1.0000
  C   C53       1.0  0.22542  0.74698  0.59547  1.0000
  C   C54       1.0  0.77458  0.25302  0.40454  1.0000
  N   N1        1.0  0.49371  0.06705  0.20115  1.0000
  N   N2        1.0  0.50629  0.93295  0.79885  1.0000
  N   N3        1.0  0.89057  0.87130  0.95719  1.0000
  N   N4        1.0  0.10942  0.12870  0.04281  1.0000
  N   N5        1.0  0.39268  0.42333  0.90048  1.0000
  N   N6        1.0  0.60732  0.57667  0.09952  1.0000
  O   O1        1.0  0.97187  0.10204  0.57077  1.0000
  O   O2        1.0  0.02813  0.89796  0.42923  1.0000
  O   O3        1.0  0.77872  0.05430  0.66850  1.0000
  O   O4        1.0  0.22128  0.94571  0.33150  1.0000
  O   O5        1.0  0.44099  0.10841  0.55591  1.0000
  O   O6        1.0  0.55901  0.89159  0.44409  1.0000
  O   O7        1.0  0.21057  0.29009  0.49791  1.0000
  O   O8        1.0  0.78943  0.70992  0.50209  1.0000
  O   O9        1.0  0.05195  0.77917  0.60356  1.0000
  O   O10       1.0  0.94805  0.22083  0.39644  1.0000
  O   O11       1.0  0.30785  0.83518  0.56883  1.0000
  O   O12       1.0  0.69215  0.16482  0.43117  1.0000
  O   O13       1.0  0.38473  0.16669  0.34996  1.0000
  O   O14       1.0  0.61527  0.83331  0.65004  1.0000
