data_image0
_chemical_formula_structural       Er2H40C60N6O14
_chemical_formula_sum              "Er2 H40 C60 N6 O14"
_cell_length_a       8.40839
_cell_length_b       11.3609
_cell_length_c       14.602
_cell_angle_alpha    69.518
_cell_angle_beta     73.3794
_cell_angle_gamma    82.6889

_space_group_name_H-M_alt    "P 1"
_space_group_IT_number       1

loop_
  _space_group_symop_operation_xyz
  'x, y, z'

loop_
  _atom_site_type_symbol
  _atom_site_label
  _atom_site_symmetry_multiplicity
  _atom_site_fract_x
  _atom_site_fract_y
  _atom_site_fract_z
  _atom_site_occupancy
  Er  Er1       1.0  0.13981  0.50440  0.08137  1.0000
  Er  Er2       1.0  0.86019  0.49560  0.91864  1.0000
  H   H1        1.0  0.18909  0.29709  0.30606  1.0000
  H   H2        1.0  0.81091  0.70291  0.69395  1.0000
  H   H3        1.0  0.26012  0.30033  0.45857  1.0000
  H   H4        1.0  0.73987  0.69968  0.54143  1.0000
  H   H5        1.0  0.11633  0.69504  0.37650  1.0000
  H   H6        1.0  0.88367  0.30497  0.62350  1.0000
  H   H7        1.0  0.04126  0.67154  0.22925  1.0000
  H   H8        1.0  0.95874  0.32846  0.77075  1.0000
  H   H9        1.0  0.30049  0.31640  0.58432  1.0000
  H   H10       1.0  0.69951  0.68361  0.41568  1.0000
  H   H11       1.0  0.39748  0.57197  0.71917  1.0000
  H   H12       1.0  0.60252  0.42803  0.28083  1.0000
  H   H13       1.0  0.39226  0.98349  0.68692  1.0000
  H   H14       1.0  0.60773  0.01651  0.31309  1.0000
  H   H15       1.0  0.40594  0.76014  0.70683  1.0000
  H   H16       1.0  0.59405  0.23986  0.29317  1.0000
  H   H17       1.0  0.16629  0.85466  0.46339  1.0000
  H   H18       1.0  0.83371  0.14534  0.53661  1.0000
  H   H19       1.0  0.16522  0.07852  0.45231  1.0000
  H   H20       1.0  0.83479  0.92149  0.54769  1.0000
  H   H21       1.0  0.54031  0.23396  0.62521  1.0000
  H   H22       1.0  0.45969  0.76604  0.37479  1.0000
  H   H23       1.0  0.65560  0.05489  0.74346  1.0000
  H   H24       1.0  0.34440  0.94510  0.25654  1.0000
  H   H25       1.0  0.61823  0.04814  0.92117  1.0000
  H   H26       1.0  0.38177  0.95185  0.07883  1.0000
  H   H27       1.0  0.44181  0.21424  0.98196  1.0000
  H   H28       1.0  0.55819  0.78575  0.01804  1.0000
  H   H29       1.0  0.16234  0.06580  0.19374  1.0000
  H   H30       1.0  0.83765  0.93420  0.80626  1.0000
  H   H31       1.0  0.11421  0.84914  0.20297  1.0000
  H   H32       1.0  0.88579  0.15086  0.79703  1.0000
  H   H33       1.0  0.88514  0.81488  0.13777  1.0000
  H   H34       1.0  0.11487  0.18512  0.86222  1.0000
  H   H35       1.0  0.70085  0.99405  0.07335  1.0000
  H   H36       1.0  0.29915  0.00595  0.92665  1.0000
  H   H37       1.0  0.45701  0.36186  0.11272  1.0000
  H   H38       1.0  0.54298  0.63813  0.88728  1.0000
  H   H39       1.0  0.49183  0.50611  0.08628  1.0000
  H   H40       1.0  0.50816  0.49389  0.91372  1.0000
  C   C1        1.0  0.17315  0.38316  0.32519  1.0000
  C   C2        1.0  0.82685  0.61684  0.67481  1.0000
  C   C3        1.0  0.21400  0.38667  0.40993  1.0000
  C   C4        1.0  0.78600  0.61334  0.59007  1.0000
  C   C5        1.0  0.19802  0.50103  0.42925  1.0000
  C   C6        1.0  0.80198  0.49897  0.57075  1.0000
  C   C7        1.0  0.13358  0.60534  0.36318  1.0000
  C   C8        1.0  0.86642  0.39467  0.63682  1.0000
  C   C9        1.0  0.09296  0.59278  0.28149  1.0000
  C   C10       1.0  0.90704  0.40722  0.71851  1.0000
  C   C11       1.0  0.24893  0.51497  0.51398  1.0000
  C   C12       1.0  0.75108  0.48503  0.48601  1.0000
  C   C13       1.0  0.30219  0.41136  0.58594  1.0000
  C   C14       1.0  0.69781  0.58864  0.41406  1.0000
  C   C15       1.0  0.35472  0.43016  0.66227  1.0000
  C   C16       1.0  0.64529  0.56984  0.33773  1.0000
  C   C17       1.0  0.35224  0.55364  0.66274  1.0000
  C   C18       1.0  0.64777  0.44636  0.33726  1.0000
  C   C19       1.0  0.29378  0.65253  0.58955  1.0000
  C   C20       1.0  0.70622  0.34748  0.41045  1.0000
  C   C21       1.0  0.34407  0.95312  0.63707  1.0000
  C   C22       1.0  0.65593  0.04688  0.36294  1.0000
  C   C23       1.0  0.35110  0.82545  0.64836  1.0000
  C   C24       1.0  0.64890  0.17455  0.35164  1.0000
  C   C25       1.0  0.28808  0.78594  0.58504  1.0000
  C   C26       1.0  0.71192  0.21407  0.41496  1.0000
  C   C27       1.0  0.21889  0.88018  0.51368  1.0000
  C   C28       1.0  0.78111  0.11982  0.48632  1.0000
  C   C29       1.0  0.21850  0.00513  0.50807  1.0000
  C   C30       1.0  0.78151  0.99488  0.49193  1.0000
  C   C31       1.0  0.41713  0.32274  0.73656  1.0000
  C   C32       1.0  0.58287  0.67726  0.26344  1.0000
  C   C33       1.0  0.51435  0.22786  0.70412  1.0000
  C   C34       1.0  0.48565  0.77214  0.29588  1.0000
  C   C35       1.0  0.58342  0.12858  0.77036  1.0000
  C   C36       1.0  0.41658  0.87142  0.22963  1.0000
  C   C37       1.0  0.56120  0.12443  0.86987  1.0000
  C   C38       1.0  0.43880  0.87556  0.13013  1.0000
  C   C39       1.0  0.46385  0.21723  0.90387  1.0000
  C   C40       1.0  0.53615  0.78277  0.09613  1.0000
  C   C41       1.0  0.38751  0.31405  0.83882  1.0000
  C   C42       1.0  0.61249  0.68595  0.16118  1.0000
  C   C43       1.0  0.25833  0.39406  0.88613  1.0000
  C   C44       1.0  0.74167  0.60595  0.11387  1.0000
  C   C45       1.0  0.00785  0.27539  0.12048  1.0000
  C   C46       1.0  0.99215  0.72461  0.87952  1.0000
  C   C47       1.0  0.96266  0.15041  0.12722  1.0000
  C   C48       1.0  0.03734  0.84958  0.87277  1.0000
  C   C49       1.0  0.06186  0.04733  0.16773  1.0000
  C   C50       1.0  0.93814  0.95267  0.83226  1.0000
  C   C51       1.0  0.03362  0.92715  0.17299  1.0000
  C   C52       1.0  0.96639  0.07285  0.82701  1.0000
  C   C53       1.0  0.90552  0.90818  0.13684  1.0000
  C   C54       1.0  0.09449  0.09182  0.86316  1.0000
  C   C55       1.0  0.80339  0.00929  0.09899  1.0000
  C   C56       1.0  0.19661  0.99070  0.90100  1.0000
  C   C57       1.0  0.82919  0.13064  0.09433  1.0000
  C   C58       1.0  0.17081  0.86936  0.90567  1.0000
  C   C59       1.0  0.70398  0.23199  0.06073  1.0000
  C   C60       1.0  0.29602  0.76801  0.93928  1.0000
  N   N1        1.0  0.11526  0.48469  0.26049  1.0000
  N   N2        1.0  0.88474  0.51531  0.73951  1.0000
  N   N3        1.0  0.24260  0.63220  0.51718  1.0000
  N   N4        1.0  0.75741  0.36780  0.48282  1.0000
  N   N5        1.0  0.28027  0.04360  0.56797  1.0000
  N   N6        1.0  0.71973  0.95641  0.43204  1.0000
  O   O1        1.0  0.11962  0.41020  0.86430  1.0000
  O   O2        1.0  0.88038  0.58979  0.13570  1.0000
  O   O3        1.0  0.29378  0.43308  0.94999  1.0000
  O   O4        1.0  0.70622  0.56691  0.05001  1.0000
  O   O5        1.0  0.11349  0.28481  0.16469  1.0000
  O   O6        1.0  0.88651  0.71518  0.83531  1.0000
  O   O7        1.0  0.94576  0.37732  0.06653  1.0000
  O   O8        1.0  0.05424  0.62268  0.93347  1.0000
  O   O9        1.0  0.56479  0.22951  0.12310  1.0000
  O   O10       1.0  0.43522  0.77049  0.87691  1.0000
  O   O11       1.0  0.74431  0.31104  0.97040  1.0000
  O   O12       1.0  0.25568  0.68896  0.02960  1.0000
  O   O13       1.0  0.40147  0.44594  0.11296  1.0000
  O   O14       1.0  0.59852  0.55406  0.88704  1.0000
