data_image0
_chemical_formula_structural       Mn4H48C32S8N8O16
_chemical_formula_sum              "Mn4 H48 C32 S8 N8 O16"
_cell_length_a       5.95666
_cell_length_b       8.97973
_cell_length_c       21.527
_cell_angle_alpha    90
_cell_angle_beta     90
_cell_angle_gamma    90

_space_group_name_H-M_alt    "P 1"
_space_group_IT_number       1

loop_
  _space_group_symop_operation_xyz
  'x, y, z'

loop_
  _atom_site_type_symbol
  _atom_site_label
  _atom_site_symmetry_multiplicity
  _atom_site_fract_x
  _atom_site_fract_y
  _atom_site_fract_z
  _atom_site_occupancy
  Mn  Mn1       1.0  0.93609  0.56735  0.80100  1.0000
  Mn  Mn2       1.0  0.56390  0.43264  0.30100  1.0000
  Mn  Mn3       1.0  0.06392  0.06735  0.69900  1.0000
  Mn  Mn4       1.0  0.43607  0.93264  0.19900  1.0000
  H   H1        1.0  0.86029  0.67892  0.93463  1.0000
  H   H2        1.0  0.63971  0.32108  0.43462  1.0000
  H   H3        1.0  0.13972  0.17891  0.56537  1.0000
  H   H4        1.0  0.36027  0.82110  0.06538  1.0000
  H   H5        1.0  0.91818  0.26649  0.83066  1.0000
  H   H6        1.0  0.58182  0.73351  0.33067  1.0000
  H   H7        1.0  0.08183  0.76648  0.66934  1.0000
  H   H8        1.0  0.41816  0.23351  0.16934  1.0000
  H   H9        1.0  0.89679  0.98527  0.97143  1.0000
  H   H10       1.0  0.60321  0.01474  0.47143  1.0000
  H   H11       1.0  0.10322  0.48527  0.52857  1.0000
  H   H12       1.0  0.39679  0.51475  0.02857  1.0000
  H   H13       1.0  0.05566  0.07703  0.91311  1.0000
  H   H14       1.0  0.44435  0.92297  0.41311  1.0000
  H   H15       1.0  0.94434  0.57702  0.58690  1.0000
  H   H16       1.0  0.55566  0.42298  0.08689  1.0000
  H   H17       1.0  0.30417  0.69442  0.87614  1.0000
  H   H18       1.0  0.19583  0.30558  0.37614  1.0000
  H   H19       1.0  0.69584  0.19441  0.62386  1.0000
  H   H20       1.0  0.80416  0.80560  0.12386  1.0000
  H   H21       1.0  0.22083  0.60406  0.94665  1.0000
  H   H22       1.0  0.27918  0.39594  0.44665  1.0000
  H   H23       1.0  0.77919  0.10406  0.55335  1.0000
  H   H24       1.0  0.72081  0.89595  0.05335  1.0000
  H   H25       1.0  0.72396  0.88043  0.88334  1.0000
  H   H26       1.0  0.77603  0.11957  0.38334  1.0000
  H   H27       1.0  0.27605  0.38042  0.61666  1.0000
  H   H28       1.0  0.22397  0.61957  0.11667  1.0000
  H   H29       1.0  0.72968  0.46160  0.92710  1.0000
  H   H30       1.0  0.77032  0.53840  0.42710  1.0000
  H   H31       1.0  0.27031  0.96159  0.57290  1.0000
  H   H32       1.0  0.22969  0.03842  0.07290  1.0000
  H   H33       1.0  0.94070  0.32191  0.93473  1.0000
  H   H34       1.0  0.55930  0.67810  0.43473  1.0000
  H   H35       1.0  0.05930  0.82190  0.56527  1.0000
  H   H36       1.0  0.44071  0.17811  0.06528  1.0000
  H   H37       1.0  0.53298  0.08589  0.83436  1.0000
  H   H38       1.0  0.96703  0.91411  0.33437  1.0000
  H   H39       1.0  0.46705  0.58588  0.66563  1.0000
  H   H40       1.0  0.03295  0.41413  0.16564  1.0000
  H   H41       1.0  0.29331  0.20039  0.84686  1.0000
  H   H42       1.0  0.20669  0.79961  0.34687  1.0000
  H   H43       1.0  0.70670  0.70038  0.65313  1.0000
  H   H44       1.0  0.79329  0.29962  0.15313  1.0000
  H   H45       1.0  0.61627  0.28554  0.76745  1.0000
  H   H46       1.0  0.88373  0.71446  0.26745  1.0000
  H   H47       1.0  0.38376  0.78553  0.73255  1.0000
  H   H48       1.0  0.11624  0.21447  0.23255  1.0000
  C   C1        1.0  0.01237  0.96819  0.93254  1.0000
  C   C2        1.0  0.48763  0.03181  0.43254  1.0000
  C   C3        1.0  0.98764  0.46818  0.56746  1.0000
  C   C4        1.0  0.51237  0.53182  0.06746  1.0000
  C   C5        1.0  0.19405  0.70125  0.91675  1.0000
  C   C6        1.0  0.30595  0.29875  0.41675  1.0000
  C   C7        1.0  0.80596  0.20124  0.58324  1.0000
  C   C8        1.0  0.69404  0.79876  0.08325  1.0000
  C   C9        1.0  0.90789  0.86645  0.88277  1.0000
  C   C10       1.0  0.59211  0.13355  0.38276  1.0000
  C   C11       1.0  0.09212  0.36644  0.61723  1.0000
  C   C12       1.0  0.40789  0.63356  0.11723  1.0000
  C   C13       1.0  0.98629  0.90141  0.81626  1.0000
  C   C14       1.0  0.51372  0.09858  0.31625  1.0000
  C   C15       1.0  0.01370  0.40139  0.68374  1.0000
  C   C16       1.0  0.48629  0.59861  0.18374  1.0000
  C   C17       1.0  0.78339  0.35113  0.91134  1.0000
  C   C18       1.0  0.71661  0.64888  0.41134  1.0000
  C   C19       1.0  0.21661  0.85112  0.58866  1.0000
  C   C20       1.0  0.28340  0.14889  0.08866  1.0000
  C   C21       1.0  0.47576  0.19425  0.85174  1.0000
  C   C22       1.0  0.02424  0.80574  0.35175  1.0000
  C   C23       1.0  0.52425  0.69424  0.64825  1.0000
  C   C24       1.0  0.97575  0.30576  0.14825  1.0000
  C   C25       1.0  0.58980  0.32041  0.81596  1.0000
  C   C26       1.0  0.91019  0.67959  0.31596  1.0000
  C   C27       1.0  0.41021  0.82041  0.68404  1.0000
  C   C28       1.0  0.08978  0.17960  0.18404  1.0000
  C   C29       1.0  0.45745  0.46747  0.81352  1.0000
  C   C30       1.0  0.04254  0.53252  0.31352  1.0000
  C   C31       1.0  0.54255  0.96747  0.68648  1.0000
  C   C32       1.0  0.95744  0.03253  0.18648  1.0000
  S   S1        1.0  0.26685  0.87488  0.95881  1.0000
  S   S2        1.0  0.23315  0.12512  0.45881  1.0000
  S   S3        1.0  0.73316  0.37487  0.54119  1.0000
  S   S4        1.0  0.76685  0.62513  0.04119  1.0000
  S   S5        1.0  0.55878  0.21701  0.93258  1.0000
  S   S6        1.0  0.94123  0.78300  0.43259  1.0000
  S   S7        1.0  0.44123  0.71700  0.56741  1.0000
  S   S8        1.0  0.05877  0.28300  0.06742  1.0000
  N   N1        1.0  0.96003  0.71038  0.89783  1.0000
  N   N2        1.0  0.53997  0.28961  0.39783  1.0000
  N   N3        1.0  0.03998  0.21038  0.60217  1.0000
  N   N4        1.0  0.46002  0.78962  0.10217  1.0000
  N   N5        1.0  0.81011  0.34919  0.84420  1.0000
  N   N6        1.0  0.68989  0.65081  0.34421  1.0000
  N   N7        1.0  0.18990  0.84918  0.65580  1.0000
  N   N8        1.0  0.31009  0.15082  0.15580  1.0000
  O   O1        1.0  0.02025  0.79170  0.78034  1.0000
  O   O2        1.0  0.47975  0.20829  0.28034  1.0000
  O   O3        1.0  0.97974  0.29169  0.71966  1.0000
  O   O4        1.0  0.52027  0.70829  0.21966  1.0000
  O   O5        1.0  0.00686  0.03660  0.79988  1.0000
  O   O6        1.0  0.49317  0.96339  0.29987  1.0000
  O   O7        1.0  0.99312  0.53659  0.70012  1.0000
  O   O8        1.0  0.50685  0.46340  0.20012  1.0000
  O   O9        1.0  0.57009  0.58626  0.80383  1.0000
  O   O10       1.0  0.92990  0.41373  0.30384  1.0000
  O   O11       1.0  0.42990  0.08626  0.69617  1.0000
  O   O12       1.0  0.07007  0.91375  0.19617  1.0000
  O   O13       1.0  0.24707  0.46046  0.81992  1.0000
  O   O14       1.0  0.25292  0.53954  0.31992  1.0000
  O   O15       1.0  0.75293  0.96047  0.68008  1.0000
  O   O16       1.0  0.74705  0.03954  0.18008  1.0000
