data_image0
_chemical_formula_structural       K4H16C16Br4N8O12
_chemical_formula_sum              "K4 H16 C16 Br4 N8 O12"
_cell_length_a       7.26879
_cell_length_b       8.04759
_cell_length_c       13.283
_cell_angle_alpha    97.566
_cell_angle_beta     89.9996
_cell_angle_gamma    89.9999

_space_group_name_H-M_alt    "P 1"
_space_group_IT_number       1

loop_
  _space_group_symop_operation_xyz
  'x, y, z'

loop_
  _atom_site_type_symbol
  _atom_site_label
  _atom_site_symmetry_multiplicity
  _atom_site_fract_x
  _atom_site_fract_y
  _atom_site_fract_z
  _atom_site_occupancy
  K   K1        1.0  0.05375  0.30329  0.80506  1.0000
  K   K2        1.0  0.55374  0.19669  0.69492  1.0000
  K   K3        1.0  0.94625  0.69672  0.19494  1.0000
  K   K4        1.0  0.44625  0.80327  0.30505  1.0000
  H   H1        1.0  0.79525  0.93588  0.48478  1.0000
  H   H2        1.0  0.29525  0.56412  0.01522  1.0000
  H   H3        1.0  0.20474  0.06412  0.51522  1.0000
  H   H4        1.0  0.70475  0.43589  0.98477  1.0000
  H   H5        1.0  0.01477  0.84073  0.48356  1.0000
  H   H6        1.0  0.51478  0.65927  0.01644  1.0000
  H   H7        1.0  0.98522  0.15927  0.51644  1.0000
  H   H8        1.0  0.48523  0.34073  0.98357  1.0000
  H   H9        1.0  0.73157  0.42815  0.49159  1.0000
  H   H10       1.0  0.23157  0.07185  0.00842  1.0000
  H   H11       1.0  0.26843  0.57185  0.50841  1.0000
  H   H12       1.0  0.76843  0.92816  0.99159  1.0000
  H   H13       1.0  0.88169  0.72920  0.75260  1.0000
  H   H14       1.0  0.38168  0.77080  0.74740  1.0000
  H   H15       1.0  0.11831  0.27079  0.24740  1.0000
  H   H16       1.0  0.61831  0.22921  0.25260  1.0000
  C   C1        1.0  0.88240  0.86036  0.62618  1.0000
  C   C2        1.0  0.38242  0.63963  0.87381  1.0000
  C   C3        1.0  0.11759  0.13963  0.37382  1.0000
  C   C4        1.0  0.61760  0.36037  0.12619  1.0000
  C   C5        1.0  0.79621  0.66953  0.46407  1.0000
  C   C6        1.0  0.29620  0.83047  0.03593  1.0000
  C   C7        1.0  0.20378  0.33047  0.53593  1.0000
  C   C8        1.0  0.70380  0.16953  0.96408  1.0000
  C   C9        1.0  0.82102  0.56058  0.62713  1.0000
  C   C10       1.0  0.32102  0.93941  0.87288  1.0000
  C   C11       1.0  0.17900  0.43942  0.37287  1.0000
  C   C12       1.0  0.67900  0.06058  0.12712  1.0000
  C   C13       1.0  0.87265  0.83295  0.51239  1.0000
  C   C14       1.0  0.37266  0.66704  0.98762  1.0000
  C   C15       1.0  0.12734  0.16705  0.48761  1.0000
  C   C16       1.0  0.62735  0.33296  0.01239  1.0000
  Br  Br1       1.0  0.10823  0.31674  0.07512  1.0000
  Br  Br2       1.0  0.60827  0.18323  0.42488  1.0000
  Br  Br3       1.0  0.89173  0.68323  0.92488  1.0000
  Br  Br4       1.0  0.39172  0.81678  0.57512  1.0000
  N   N1        1.0  0.78440  0.54375  0.52423  1.0000
  N   N2        1.0  0.28440  0.95625  0.97578  1.0000
  N   N3        1.0  0.21560  0.45625  0.47578  1.0000
  N   N4        1.0  0.71560  0.04375  0.02422  1.0000
  N   N5        1.0  0.86947  0.71825  0.67398  1.0000
  N   N6        1.0  0.36947  0.78175  0.82602  1.0000
  N   N7        1.0  0.13052  0.28175  0.32602  1.0000
  N   N8        1.0  0.63053  0.21825  0.17398  1.0000
  O   O1        1.0  0.80956  0.43903  0.67487  1.0000
  O   O2        1.0  0.30956  0.06097  0.82513  1.0000
  O   O3        1.0  0.19044  0.56097  0.32513  1.0000
  O   O4        1.0  0.69043  0.93902  0.17488  1.0000
  O   O5        1.0  0.75292  0.64480  0.37335  1.0000
  O   O6        1.0  0.25293  0.85520  0.12664  1.0000
  O   O7        1.0  0.24707  0.35520  0.62665  1.0000
  O   O8        1.0  0.74708  0.14480  0.87336  1.0000
  O   O9        1.0  0.90490  0.00056  0.67431  1.0000
  O   O10       1.0  0.40491  0.49945  0.82568  1.0000
  O   O11       1.0  0.09510  0.99943  0.32569  1.0000
  O   O12       1.0  0.59512  0.50057  0.17431  1.0000
