data_image0
_chemical_formula_structural       Na4H16C16Br4N8O12
_chemical_formula_sum              "Na4 H16 C16 Br4 N8 O12"
_cell_length_a       7.41557
_cell_length_b       7.92395
_cell_length_c       13.8978
_cell_angle_alpha    101.468
_cell_angle_beta     90.0281
_cell_angle_gamma    117.895

_space_group_name_H-M_alt    "P 1"
_space_group_IT_number       1

loop_
  _space_group_symop_operation_xyz
  'x, y, z'

loop_
  _atom_site_type_symbol
  _atom_site_label
  _atom_site_symmetry_multiplicity
  _atom_site_fract_x
  _atom_site_fract_y
  _atom_site_fract_z
  _atom_site_occupancy
  Na  Na1       1.0  0.62112  0.00009  0.24997  1.0000
  Na  Na2       1.0  0.37886  0.99990  0.75003  1.0000
  Na  Na3       1.0  0.86059  0.99994  0.75004  1.0000
  Na  Na4       1.0  0.13939  0.00008  0.24992  1.0000
  H   H1        1.0  0.64397  0.42157  0.72509  1.0000
  H   H2        1.0  0.22219  0.57822  0.77479  1.0000
  H   H3        1.0  0.35601  0.57843  0.27491  1.0000
  H   H4        1.0  0.77783  0.42178  0.22521  1.0000
  H   H5        1.0  0.90389  0.52250  0.70651  1.0000
  H   H6        1.0  0.38137  0.47756  0.79360  1.0000
  H   H7        1.0  0.09610  0.47752  0.29350  1.0000
  H   H8        1.0  0.61865  0.52244  0.20641  1.0000
  H   H9        1.0  0.75002  0.08966  0.48106  1.0000
  H   H10       1.0  0.66030  0.91034  0.01898  1.0000
  H   H11       1.0  0.24999  0.91035  0.51895  1.0000
  H   H12       1.0  0.33968  0.08965  0.98103  1.0000
  H   H13       1.0  0.75066  0.60075  0.45911  1.0000
  H   H14       1.0  0.14988  0.39919  0.04084  1.0000
  H   H15       1.0  0.24938  0.39928  0.54090  1.0000
  H   H16       1.0  0.85010  0.60078  0.95915  1.0000
  C   C1        1.0  0.75636  0.34176  0.45808  1.0000
  C   C2        1.0  0.41453  0.65828  0.04195  1.0000
  C   C3        1.0  0.24364  0.65824  0.54192  1.0000
  C   C4        1.0  0.58542  0.34171  0.95806  1.0000
  C   C5        1.0  0.72842  0.56022  0.60271  1.0000
  C   C6        1.0  0.16797  0.43979  0.89727  1.0000
  C   C7        1.0  0.27160  0.43979  0.39730  1.0000
  C   C8        1.0  0.83202  0.56022  0.10272  1.0000
  C   C9        1.0  0.74690  0.43715  0.66724  1.0000
  C   C10       1.0  0.30952  0.56277  0.83275  1.0000
  C   C11       1.0  0.25309  0.56285  0.33277  1.0000
  C   C12       1.0  0.69049  0.43723  0.16725  1.0000
  C   C13       1.0  0.71788  0.24020  0.61557  1.0000
  C   C14       1.0  0.47748  0.75977  0.88444  1.0000
  C   C15       1.0  0.28209  0.75981  0.38442  1.0000
  C   C16       1.0  0.52250  0.24023  0.11557  1.0000
  Br  Br1       1.0  0.94852  0.15774  0.12438  1.0000
  Br  Br2       1.0  0.79049  0.84234  0.37548  1.0000
  Br  Br3       1.0  0.05154  0.84218  0.87559  1.0000
  Br  Br4       1.0  0.20949  0.15768  0.62452  1.0000
  N   N1        1.0  0.74442  0.21555  0.51695  1.0000
  N   N2        1.0  0.52874  0.78445  0.98308  1.0000
  N   N3        1.0  0.25561  0.78448  0.48306  1.0000
  N   N4        1.0  0.47125  0.21555  0.01693  1.0000
  N   N5        1.0  0.74735  0.50848  0.50372  1.0000
  N   N6        1.0  0.23887  0.49144  0.99625  1.0000
  N   N7        1.0  0.25269  0.49156  0.49628  1.0000
  N   N8        1.0  0.76111  0.50853  0.00375  1.0000
  O   O1        1.0  0.77366  0.30558  0.36896  1.0000
  O   O2        1.0  0.46802  0.69446  0.13108  1.0000
  O   O3        1.0  0.22642  0.69446  0.63105  1.0000
  O   O4        1.0  0.53198  0.30547  0.86891  1.0000
  O   O5        1.0  0.70340  0.70312  0.63461  1.0000
  O   O6        1.0  0.00008  0.29687  0.86532  1.0000
  O   O7        1.0  0.29658  0.29689  0.36538  1.0000
  O   O8        1.0  0.99994  0.70310  0.13467  1.0000
  O   O9        1.0  0.67744  0.10624  0.65860  1.0000
  O   O10       1.0  0.57086  0.89382  0.84146  1.0000
  O   O11       1.0  0.32253  0.89376  0.34140  1.0000
  O   O12       1.0  0.42917  0.10617  0.15855  1.0000
