data_image0
_chemical_formula_structural       Rb4H32C32Br4N16O24
_chemical_formula_sum              "Rb4 H32 C32 Br4 N16 O24"
_cell_length_a       7.23474
_cell_length_b       8.10957
_cell_length_c       21.885
_cell_angle_alpha    90
_cell_angle_beta     90
_cell_angle_gamma    90

_space_group_name_H-M_alt    "P 1"
_space_group_IT_number       1

loop_
  _space_group_symop_operation_xyz
  'x, y, z'

loop_
  _atom_site_type_symbol
  _atom_site_label
  _atom_site_symmetry_multiplicity
  _atom_site_fract_x
  _atom_site_fract_y
  _atom_site_fract_z
  _atom_site_occupancy
  Rb  Rb1       1.0  0.60450  0.56531  0.75000  1.0000
  Rb  Rb2       1.0  0.10450  0.93469  0.25000  1.0000
  Rb  Rb3       1.0  0.89550  0.06531  0.75000  1.0000
  Rb  Rb4       1.0  0.39550  0.43469  0.25000  1.0000
  H   H1        1.0  0.77077  0.54426  0.57164  1.0000
  H   H2        1.0  0.27077  0.95574  0.42836  1.0000
  H   H3        1.0  0.72923  0.04426  0.92836  1.0000
  H   H4        1.0  0.22923  0.45574  0.07164  1.0000
  H   H5        1.0  0.22923  0.45574  0.42836  1.0000
  H   H6        1.0  0.72923  0.04426  0.57164  1.0000
  H   H7        1.0  0.27077  0.95574  0.07164  1.0000
  H   H8        1.0  0.77077  0.54426  0.92836  1.0000
  H   H9        1.0  0.86543  0.68939  0.62222  1.0000
  H   H10       1.0  0.36543  0.81061  0.37778  1.0000
  H   H11       1.0  0.63457  0.18939  0.87779  1.0000
  H   H12       1.0  0.13457  0.31061  0.12222  1.0000
  H   H13       1.0  0.13457  0.31061  0.37778  1.0000
  H   H14       1.0  0.63458  0.18939  0.62222  1.0000
  H   H15       1.0  0.36542  0.81061  0.12221  1.0000
  H   H16       1.0  0.86543  0.68939  0.87779  1.0000
  H   H17       1.0  0.31894  0.66676  0.53162  1.0000
  H   H18       1.0  0.81894  0.83324  0.46838  1.0000
  H   H19       1.0  0.18106  0.16676  0.96838  1.0000
  H   H20       1.0  0.68106  0.33324  0.03162  1.0000
  H   H21       1.0  0.68106  0.33324  0.46838  1.0000
  H   H22       1.0  0.18106  0.16676  0.53162  1.0000
  H   H23       1.0  0.81894  0.83324  0.03162  1.0000
  H   H24       1.0  0.31894  0.66676  0.96838  1.0000
  H   H25       1.0  0.20823  0.35067  0.67396  1.0000
  H   H26       1.0  0.70823  0.14933  0.32604  1.0000
  H   H27       1.0  0.29177  0.85067  0.82604  1.0000
  H   H28       1.0  0.79177  0.64933  0.17396  1.0000
  H   H29       1.0  0.79177  0.64933  0.32604  1.0000
  H   H30       1.0  0.29177  0.85067  0.67396  1.0000
  H   H31       1.0  0.70823  0.14933  0.17396  1.0000
  H   H32       1.0  0.20823  0.35067  0.82604  1.0000
  C   C1        1.0  0.28683  0.50774  0.60512  1.0000
  C   C2        1.0  0.78683  0.99226  0.39488  1.0000
  C   C3        1.0  0.21318  0.00774  0.89488  1.0000
  C   C4        1.0  0.71317  0.49226  0.10512  1.0000
  C   C5        1.0  0.71318  0.49226  0.39488  1.0000
  C   C6        1.0  0.21317  0.00774  0.60512  1.0000
  C   C7        1.0  0.78683  0.99226  0.10512  1.0000
  C   C8        1.0  0.28683  0.50774  0.89488  1.0000
  C   C9        1.0  0.96787  0.44772  0.63607  1.0000
  C   C10       1.0  0.46787  0.05229  0.36393  1.0000
  C   C11       1.0  0.53213  0.94772  0.86393  1.0000
  C   C12       1.0  0.03213  0.55228  0.13607  1.0000
  C   C13       1.0  0.03214  0.55228  0.36393  1.0000
  C   C14       1.0  0.53214  0.94772  0.63607  1.0000
  C   C15       1.0  0.46786  0.05228  0.13607  1.0000
  C   C16       1.0  0.96786  0.44771  0.86393  1.0000
  C   C17       1.0  0.90084  0.58121  0.59348  1.0000
  C   C18       1.0  0.40084  0.91879  0.40652  1.0000
  C   C19       1.0  0.59917  0.08122  0.90652  1.0000
  C   C20       1.0  0.09917  0.41878  0.09348  1.0000
  C   C21       1.0  0.09917  0.41878  0.40652  1.0000
  C   C22       1.0  0.59917  0.08122  0.59348  1.0000
  C   C23       1.0  0.40083  0.91878  0.09348  1.0000
  C   C24       1.0  0.90083  0.58122  0.90652  1.0000
  C   C25       1.0  0.03848  0.64194  0.54735  1.0000
  C   C26       1.0  0.53848  0.85806  0.45266  1.0000
  C   C27       1.0  0.46152  0.14193  0.95265  1.0000
  C   C28       1.0  0.96152  0.35806  0.04734  1.0000
  C   C29       1.0  0.96152  0.35806  0.45265  1.0000
  C   C30       1.0  0.46152  0.14194  0.54735  1.0000
  C   C31       1.0  0.53847  0.85806  0.04735  1.0000
  C   C32       1.0  0.03847  0.64194  0.95266  1.0000
  Br  Br1       1.0  0.35336  0.21182  0.75000  1.0000
  Br  Br2       1.0  0.85336  0.28818  0.25000  1.0000
  Br  Br3       1.0  0.14664  0.71182  0.75000  1.0000
  Br  Br4       1.0  0.64664  0.78818  0.25000  1.0000
  N   N1        1.0  0.22053  0.60861  0.55882  1.0000
  N   N2        1.0  0.72053  0.89139  0.44118  1.0000
  N   N3        1.0  0.27947  0.10861  0.94118  1.0000
  N   N4        1.0  0.77947  0.39139  0.05882  1.0000
  N   N5        1.0  0.77947  0.39139  0.44118  1.0000
  N   N6        1.0  0.27947  0.10861  0.55882  1.0000
  N   N7        1.0  0.72053  0.89139  0.05882  1.0000
  N   N8        1.0  0.22053  0.60861  0.94118  1.0000
  N   N9        1.0  0.15532  0.42339  0.63864  1.0000
  N   N10       1.0  0.65532  0.07661  0.36136  1.0000
  N   N11       1.0  0.34468  0.92339  0.86136  1.0000
  N   N12       1.0  0.84468  0.57661  0.13863  1.0000
  N   N13       1.0  0.84468  0.57661  0.36136  1.0000
  N   N14       1.0  0.34468  0.92339  0.63864  1.0000
  N   N15       1.0  0.65532  0.07661  0.13863  1.0000
  N   N16       1.0  0.15532  0.42339  0.86137  1.0000
  O   O1        1.0  0.45346  0.49112  0.61457  1.0000
  O   O2        1.0  0.95345  0.00888  0.38543  1.0000
  O   O3        1.0  0.04653  0.99112  0.88543  1.0000
  O   O4        1.0  0.54654  0.50888  0.11457  1.0000
  O   O5        1.0  0.54654  0.50888  0.38543  1.0000
  O   O6        1.0  0.04654  0.99112  0.61457  1.0000
  O   O7        1.0  0.95346  0.00888  0.11457  1.0000
  O   O8        1.0  0.45346  0.49112  0.88543  1.0000
  O   O9        1.0  0.86187  0.36718  0.66880  1.0000
  O   O10       1.0  0.36187  0.13282  0.33120  1.0000
  O   O11       1.0  0.63813  0.86718  0.83120  1.0000
  O   O12       1.0  0.13813  0.63282  0.16880  1.0000
  O   O13       1.0  0.13813  0.63282  0.33120  1.0000
  O   O14       1.0  0.63813  0.86718  0.66880  1.0000
  O   O15       1.0  0.36187  0.13282  0.16880  1.0000
  O   O16       1.0  0.86188  0.36718  0.83120  1.0000
  O   O17       1.0  0.99630  0.72247  0.50127  1.0000
  O   O18       1.0  0.49630  0.77753  0.49873  1.0000
  O   O19       1.0  0.50370  0.22248  0.99873  1.0000
  O   O20       1.0  0.00370  0.27753  0.00127  1.0000
  O   O21       1.0  0.00371  0.27753  0.49873  1.0000
  O   O22       1.0  0.50370  0.22248  0.50127  1.0000
  O   O23       1.0  0.49630  0.77752  0.00127  1.0000
  O   O24       1.0  0.99630  0.72247  0.99873  1.0000
