data_image0
_chemical_formula_structural       Co2H28C40N4Cl4O8
_chemical_formula_sum              "Co2 H28 C40 N4 Cl4 O8"
_cell_length_a       7.55829
_cell_length_b       9.77915
_cell_length_c       13.0759
_cell_angle_alpha    79.7886
_cell_angle_beta     74.6082
_cell_angle_gamma    76.3993

_space_group_name_H-M_alt    "P 1"
_space_group_IT_number       1

loop_
  _space_group_symop_operation_xyz
  'x, y, z'

loop_
  _atom_site_type_symbol
  _atom_site_label
  _atom_site_symmetry_multiplicity
  _atom_site_fract_x
  _atom_site_fract_y
  _atom_site_fract_z
  _atom_site_occupancy
  Co  Co1       1.0  0.28840  0.66887  0.55354  1.0000
  Co  Co2       1.0  0.72409  0.30686  0.45174  1.0000
  H   H1        1.0  0.03477  0.44303  0.86208  1.0000
  H   H2        1.0  0.94799  0.54726  0.15975  1.0000
  H   H3        1.0  0.01734  0.75234  0.76573  1.0000
  H   H4        1.0  0.97201  0.25037  0.23640  1.0000
  H   H5        1.0  0.42176  0.42039  0.80236  1.0000
  H   H6        1.0  0.57403  0.59476  0.18435  1.0000
  H   H7        1.0  0.09711  0.20512  0.54494  1.0000
  H   H8        1.0  0.90624  0.79079  0.45179  1.0000
  H   H9        1.0  0.53629  0.14405  0.23523  1.0000
  H   H10       1.0  0.46055  0.86370  0.76791  1.0000
  H   H11       1.0  0.65390  0.84462  0.11316  1.0000
  H   H12       1.0  0.34130  0.16478  0.87974  1.0000
  H   H13       1.0  0.83693  0.80289  0.18107  1.0000
  H   H14       1.0  0.16279  0.21171  0.80853  1.0000
  H   H15       1.0  0.76538  0.98018  0.12403  1.0000
  H   H16       1.0  0.22322  0.03371  0.86818  1.0000
  H   H17       1.0  0.88300  0.20920  0.72396  1.0000
  H   H18       1.0  0.11910  0.79310  0.27023  1.0000
  H   H19       1.0  0.30302  0.18635  0.40441  1.0000
  H   H20       1.0  0.70186  0.81175  0.60116  1.0000
  H   H21       1.0  0.58300  0.69453  0.33710  1.0000
  H   H22       1.0  0.41511  0.30961  0.65161  1.0000
  H   H23       1.0  0.79993  0.87348  0.91110  1.0000
  H   H24       1.0  0.17733  0.13615  0.08664  1.0000
  H   H25       1.0  0.67146  0.04311  0.87131  1.0000
  H   H26       1.0  0.32353  0.97387  0.12442  1.0000
  H   H27       1.0  0.86805  0.02983  0.92396  1.0000
  H   H28       1.0  0.12764  0.97181  0.07540  1.0000
  C   C1        1.0  0.69063  0.47776  0.73072  1.0000
  C   C2        1.0  0.31929  0.52239  0.26824  1.0000
  C   C3        1.0  0.01059  0.54817  0.66358  1.0000
  C   C4        1.0  0.02154  0.43229  0.35286  1.0000
  C   C5        1.0  0.90159  0.43503  0.84876  1.0000
  C   C6        1.0  0.08324  0.56146  0.16599  1.0000
  C   C7        1.0  0.17656  0.97570  0.56145  1.0000
  C   C8        1.0  0.82546  0.01877  0.43883  1.0000
  C   C9        1.0  0.03346  0.85539  0.72026  1.0000
  C   C10       1.0  0.96073  0.14615  0.28041  1.0000
  C   C11       1.0  0.55796  0.42291  0.81488  1.0000
  C   C12       1.0  0.43447  0.58749  0.18034  1.0000
  C   C13       1.0  0.08066  0.10624  0.59646  1.0000
  C   C14       1.0  0.92214  0.89042  0.40119  1.0000
  C   C15       1.0  0.31202  0.96240  0.45827  1.0000
  C   C16       1.0  0.69132  0.03287  0.54047  1.0000
  C   C17       1.0  0.49470  0.05406  0.29128  1.0000
  C   C18       1.0  0.50424  0.95036  0.70864  1.0000
  C   C19       1.0  0.93637  0.98082  0.76252  1.0000
  C   C20       1.0  0.05831  0.02216  0.23650  1.0000
  C   C21       1.0  0.63590  0.51609  0.62437  1.0000
  C   C22       1.0  0.39742  0.46960  0.36649  1.0000
  C   C23       1.0  0.77130  0.37792  0.93170  1.0000
  C   C24       1.0  0.19781  0.62736  0.07889  1.0000
  C   C25       1.0  0.71561  0.88420  0.16664  1.0000
  C   C26       1.0  0.27925  0.12717  0.82538  1.0000
  C   C27       1.0  0.95988  0.10805  0.69676  1.0000
  C   C28       1.0  0.04055  0.89231  0.30007  1.0000
  C   C29       1.0  0.36367  0.07831  0.38660  1.0000
  C   C30       1.0  0.63858  0.92077  0.61550  1.0000
  C   C31       1.0  0.51996  0.80532  0.34684  1.0000
  C   C32       1.0  0.47936  0.19846  0.64517  1.0000
  C   C33       1.0  0.57576  0.91517  0.26910  1.0000
  C   C34       1.0  0.42205  0.09124  0.72498  1.0000
  C   C35       1.0  0.81229  0.98094  0.87282  1.0000
  C   C36       1.0  0.17811  0.02710  0.12499  1.0000
  C   C37       1.0  0.59829  0.37095  0.91432  1.0000
  C   C38       1.0  0.37423  0.64176  0.08657  1.0000
  C   C39       1.0  0.86462  0.48417  0.74765  1.0000
  C   C40       1.0  0.14112  0.51004  0.26124  1.0000
  N   N1        1.0  0.38992  0.82760  0.43767  1.0000
  N   N2        1.0  0.61360  0.17080  0.55612  1.0000
  N   N3        1.0  0.14946  0.85182  0.62256  1.0000
  N   N4        1.0  0.84872  0.14619  0.37984  1.0000
  Cl  Cl1       1.0  0.43567  0.29842  0.01525  1.0000
  Cl  Cl2       1.0  0.51911  0.72312  0.98021  1.0000
  Cl  Cl3       1.0  0.82173  0.31876  0.05515  1.0000
  Cl  Cl4       1.0  0.12598  0.68513  0.96114  1.0000
  O   O1        1.0  0.17721  0.52258  0.67913  1.0000
  O   O2        1.0  0.85361  0.43422  0.34397  1.0000
  O   O3        1.0  0.51979  0.63098  0.61237  1.0000
  O   O4        1.0  0.52301  0.35771  0.36053  1.0000
  O   O5        1.0  0.96596  0.63096  0.58477  1.0000
  O   O6        1.0  0.09153  0.36616  0.42795  1.0000
  O   O7        1.0  0.69996  0.42050  0.56289  1.0000
  O   O8        1.0  0.34660  0.54707  0.44090  1.0000
