data_image0
_chemical_formula_structural       Cd2H28C36N4Cl4O12
_chemical_formula_sum              "Cd2 H28 C36 N4 Cl4 O12"
_cell_length_a       7.64034
_cell_length_b       10.8122
_cell_length_c       11.7382
_cell_angle_alpha    89.9991
_cell_angle_beta     90.0005
_cell_angle_gamma    92.1455

_space_group_name_H-M_alt    "P 1"
_space_group_IT_number       1

loop_
  _space_group_symop_operation_xyz
  'x, y, z'

loop_
  _atom_site_type_symbol
  _atom_site_label
  _atom_site_symmetry_multiplicity
  _atom_site_fract_x
  _atom_site_fract_y
  _atom_site_fract_z
  _atom_site_occupancy
  Cd  Cd1       1.0  0.74999  0.75000  0.22026  1.0000
  Cd  Cd2       1.0  0.25001  0.25000  0.77975  1.0000
  H   H1        1.0  0.87431  0.98577  0.16678  1.0000
  H   H2        1.0  0.62570  0.51424  0.16679  1.0000
  H   H3        1.0  0.12570  0.01423  0.83322  1.0000
  H   H4        1.0  0.37431  0.48577  0.83322  1.0000
  H   H5        1.0  0.05751  0.91914  0.18579  1.0000
  H   H6        1.0  0.44248  0.58085  0.18580  1.0000
  H   H7        1.0  0.94249  0.08085  0.81421  1.0000
  H   H8        1.0  0.55752  0.41915  0.81421  1.0000
  H   H9        1.0  0.08396  0.54869  0.42023  1.0000
  H   H10       1.0  0.41603  0.95131  0.42022  1.0000
  H   H11       1.0  0.91603  0.45131  0.57976  1.0000
  H   H12       1.0  0.58397  0.04869  0.57976  1.0000
  H   H13       1.0  0.91389  0.91713  0.63967  1.0000
  H   H14       1.0  0.58610  0.58285  0.63967  1.0000
  H   H15       1.0  0.08612  0.08287  0.36033  1.0000
  H   H16       1.0  0.41390  0.41715  0.36033  1.0000
  H   H17       1.0  0.90591  0.91001  0.42532  1.0000
  H   H18       1.0  0.59408  0.58999  0.42532  1.0000
  H   H19       1.0  0.09408  0.09000  0.57469  1.0000
  H   H20       1.0  0.40592  0.41001  0.57469  1.0000
  H   H21       1.0  0.48309  0.70697  0.01280  1.0000
  H   H22       1.0  0.01690  0.79302  0.01281  1.0000
  H   H23       1.0  0.51692  0.29303  0.98720  1.0000
  H   H24       1.0  0.98312  0.20697  0.98720  1.0000
  H   H25       1.0  0.47351  0.70203  0.80018  1.0000
  H   H26       1.0  0.02647  0.79796  0.80018  1.0000
  H   H27       1.0  0.52649  0.29798  0.19982  1.0000
  H   H28       1.0  0.97354  0.20203  0.19983  1.0000
  C   C1        1.0  0.14256  0.62983  0.20684  1.0000
  C   C2        1.0  0.35742  0.87017  0.20683  1.0000
  C   C3        1.0  0.85743  0.37017  0.79316  1.0000
  C   C4        1.0  0.64257  0.12983  0.79316  1.0000
  C   C5        1.0  0.74999  0.74999  0.65691  1.0000
  C   C6        1.0  0.25001  0.25001  0.34309  1.0000
  C   C7        1.0  0.15778  0.63680  0.41997  1.0000
  C   C8        1.0  0.34220  0.86320  0.41997  1.0000
  C   C9        1.0  0.84220  0.36320  0.58002  1.0000
  C   C10       1.0  0.65779  0.13680  0.58002  1.0000
  C   C11       1.0  0.20639  0.69175  0.52326  1.0000
  C   C12       1.0  0.29360  0.80825  0.52326  1.0000
  C   C13       1.0  0.79360  0.30825  0.47673  1.0000
  C   C14       1.0  0.70640  0.19175  0.47674  1.0000
  C   C15       1.0  0.20082  0.69366  0.31620  1.0000
  C   C16       1.0  0.29916  0.80634  0.31620  1.0000
  C   C17       1.0  0.79917  0.30634  0.68380  1.0000
  C   C18       1.0  0.70083  0.19366  0.68379  1.0000
  C   C19       1.0  0.84183  0.84266  0.59526  1.0000
  C   C20       1.0  0.65816  0.65733  0.59526  1.0000
  C   C21       1.0  0.15817  0.15734  0.40475  1.0000
  C   C22       1.0  0.34184  0.34267  0.40475  1.0000
  C   C23       1.0  0.83742  0.83974  0.47690  1.0000
  C   C24       1.0  0.66257  0.66026  0.47690  1.0000
  C   C25       1.0  0.16259  0.16027  0.52310  1.0000
  C   C26       1.0  0.33743  0.33975  0.52310  1.0000
  C   C27       1.0  0.60146  0.72503  0.96256  1.0000
  C   C28       1.0  0.89851  0.77496  0.96255  1.0000
  C   C29       1.0  0.39854  0.27496  0.03745  1.0000
  C   C30       1.0  0.10149  0.22504  0.03745  1.0000
  C   C31       1.0  0.59660  0.72229  0.84425  1.0000
  C   C32       1.0  0.90338  0.77770  0.84425  1.0000
  C   C33       1.0  0.40341  0.27772  0.15576  1.0000
  C   C34       1.0  0.09663  0.22229  0.15575  1.0000
  C   C35       1.0  0.75000  0.74999  0.78261  1.0000
  C   C36       1.0  0.25002  0.25001  0.21740  1.0000
  N   N1        1.0  0.74999  0.75000  0.02075  1.0000
  N   N2        1.0  0.25002  0.25000  0.97925  1.0000
  N   N3        1.0  0.74999  0.75000  0.41836  1.0000
  N   N4        1.0  0.25001  0.25001  0.58165  1.0000
  Cl  Cl1       1.0  0.15817  0.61506  0.64885  1.0000
  Cl  Cl2       1.0  0.34183  0.88494  0.64884  1.0000
  Cl  Cl3       1.0  0.84184  0.38494  0.35115  1.0000
  Cl  Cl4       1.0  0.65817  0.11506  0.35115  1.0000
  O   O1        1.0  0.97899  0.61422  0.19057  1.0000
  O   O2        1.0  0.52100  0.88578  0.19057  1.0000
  O   O3        1.0  0.02100  0.38577  0.80943  1.0000
  O   O4        1.0  0.47900  0.11422  0.80943  1.0000
  O   O5        1.0  0.26032  0.59363  0.13965  1.0000
  O   O6        1.0  0.23967  0.90635  0.13964  1.0000
  O   O7        1.0  0.73968  0.40636  0.86035  1.0000
  O   O8        1.0  0.76033  0.09364  0.86035  1.0000
  O   O9        1.0  0.93305  0.93086  0.21882  1.0000
  O   O10       1.0  0.56695  0.56914  0.21882  1.0000
  O   O11       1.0  0.06696  0.06914  0.78119  1.0000
  O   O12       1.0  0.43305  0.43086  0.78118  1.0000
