data_image0
_chemical_formula_structural       Co2H32C44N8Cl4O8
_chemical_formula_sum              "Co2 H32 C44 N8 Cl4 O8"
_cell_length_a       9.05316
_cell_length_b       9.39412
_cell_length_c       13.8075
_cell_angle_alpha    85.8219
_cell_angle_beta     83.6665
_cell_angle_gamma    65.1986

_space_group_name_H-M_alt    "P 1"
_space_group_IT_number       1

loop_
  _space_group_symop_operation_xyz
  'x, y, z'

loop_
  _atom_site_type_symbol
  _atom_site_label
  _atom_site_symmetry_multiplicity
  _atom_site_fract_x
  _atom_site_fract_y
  _atom_site_fract_z
  _atom_site_occupancy
  Co  Co1       1.0  0.26856  0.23457  0.09135  1.0000
  Co  Co2       1.0  0.73144  0.76543  0.90865  1.0000
  H   H1        1.0  0.96966  0.31729  0.81618  1.0000
  H   H2        1.0  0.03034  0.68271  0.18382  1.0000
  H   H3        1.0  0.44287  0.97429  0.60042  1.0000
  H   H4        1.0  0.55712  0.02571  0.39958  1.0000
  H   H5        1.0  0.41603  0.44278  0.19960  1.0000
  H   H6        1.0  0.58397  0.55722  0.80041  1.0000
  H   H7        1.0  0.31127  0.85439  0.46449  1.0000
  H   H8        1.0  0.68873  0.14561  0.53551  1.0000
  H   H9        1.0  0.07104  0.41017  0.27527  1.0000
  H   H10       1.0  0.92897  0.58983  0.72472  1.0000
  H   H11       1.0  0.99845  0.07666  0.12046  1.0000
  H   H12       1.0  0.00155  0.92334  0.87954  1.0000
  H   H13       1.0  0.21768  0.79204  0.98029  1.0000
  H   H14       1.0  0.78232  0.20796  0.01971  1.0000
  H   H15       1.0  0.32173  0.86787  0.12004  1.0000
  H   H16       1.0  0.67827  0.13213  0.87996  1.0000
  H   H17       1.0  0.52034  0.72892  0.08416  1.0000
  H   H18       1.0  0.47966  0.27108  0.91584  1.0000
  H   H19       1.0  0.13898  0.53745  0.95785  1.0000
  H   H20       1.0  0.86102  0.46254  0.04215  1.0000
  H   H21       1.0  0.23630  0.91069  0.29355  1.0000
  H   H22       1.0  0.76370  0.08931  0.70645  1.0000
  H   H23       1.0  0.67527  0.51488  0.19996  1.0000
  H   H24       1.0  0.32473  0.48512  0.80004  1.0000
  H   H25       1.0  0.56338  0.62345  0.50455  1.0000
  H   H26       1.0  0.43662  0.37655  0.49545  1.0000
  H   H27       1.0  0.75868  0.17777  0.27671  1.0000
  H   H28       1.0  0.24132  0.82223  0.72329  1.0000
  H   H29       1.0  0.86628  0.45154  0.41816  1.0000
  H   H30       1.0  0.13372  0.54846  0.58184  1.0000
  H   H31       1.0  0.75611  0.33462  0.43558  1.0000
  H   H32       1.0  0.24389  0.66538  0.56441  1.0000
  C   C1        1.0  0.06642  0.25683  0.66830  1.0000
  C   C2        1.0  0.93357  0.74317  0.33171  1.0000
  C   C3        1.0  0.21346  0.12504  0.91948  1.0000
  C   C4        1.0  0.78654  0.87497  0.08052  1.0000
  C   C5        1.0  0.20035  0.16172  0.60634  1.0000
  C   C6        1.0  0.79964  0.83828  0.39366  1.0000
  C   C7        1.0  0.34634  0.03479  0.74805  1.0000
  C   C8        1.0  0.65366  0.96521  0.25195  1.0000
  C   C9        1.0  0.07387  0.24194  0.76910  1.0000
  C   C10       1.0  0.92612  0.75806  0.23091  1.0000
  C   C11       1.0  0.21371  0.13301  0.80978  1.0000
  C   C12       1.0  0.78629  0.86700  0.19022  1.0000
  C   C13       1.0  0.33785  0.04996  0.64700  1.0000
  C   C14       1.0  0.66215  0.95005  0.35300  1.0000
  C   C15       1.0  0.49952  0.91217  0.78580  1.0000
  C   C16       1.0  0.50048  0.08783  0.21420  1.0000
  C   C17       1.0  0.35299  0.50168  0.13627  1.0000
  C   C18       1.0  0.64701  0.49832  0.86373  1.0000
  C   C19       1.0  0.38945  0.77701  0.40700  1.0000
  C   C20       1.0  0.61055  0.22299  0.59300  1.0000
  C   C21       1.0  0.01862  0.33487  0.25247  1.0000
  C   C22       1.0  0.98138  0.66513  0.74753  1.0000
  C   C23       1.0  0.97805  0.16015  0.17619  1.0000
  C   C24       1.0  0.02195  0.83985  0.82381  1.0000
  C   C25       1.0  0.44986  0.71415  0.23627  1.0000
  C   C26       1.0  0.55014  0.28585  0.76373  1.0000
  C   C27       1.0  0.24681  0.68090  0.02001  1.0000
  C   C28       1.0  0.75319  0.31910  0.97999  1.0000
  C   C29       1.0  0.40926  0.74644  0.13197  1.0000
  C   C30       1.0  0.59074  0.25356  0.86803  1.0000
  C   C31       1.0  0.63494  0.55121  0.35506  1.0000
  C   C32       1.0  0.36507  0.44879  0.64494  1.0000
  C   C33       1.0  0.20910  0.55583  0.01045  1.0000
  C   C34       1.0  0.79090  0.44416  0.98955  1.0000
  C   C35       1.0  0.34766  0.80970  0.31088  1.0000
  C   C36       1.0  0.65233  0.19030  0.68912  1.0000
  C   C37       1.0  0.59431  0.58654  0.25905  1.0000
  C   C38       1.0  0.40569  0.41346  0.74095  1.0000
  C   C39       1.0  0.53128  0.64803  0.42936  1.0000
  C   C40       1.0  0.46872  0.35197  0.57064  1.0000
  C   C41       1.0  0.85923  0.20940  0.25270  1.0000
  C   C42       1.0  0.14077  0.79060  0.74730  1.0000
  C   C43       1.0  0.78801  0.41229  0.38232  1.0000
  C   C44       1.0  0.21200  0.58771  0.61768  1.0000
  N   N1        1.0  0.07653  0.24001  0.17703  1.0000
  N   N2        1.0  0.92347  0.75999  0.82297  1.0000
  N   N3        1.0  0.88714  0.31940  0.30027  1.0000
  N   N4        1.0  0.11286  0.68060  0.69973  1.0000
  N   N5        1.0  0.27602  0.44446  0.08329  1.0000
  N   N6        1.0  0.72398  0.55554  0.91671  1.0000
  N   N7        1.0  0.33736  0.64483  0.09977  1.0000
  N   N8        1.0  0.66264  0.35517  0.90023  1.0000
  Cl  Cl1       1.0  0.89263  0.39659  0.62173  1.0000
  Cl  Cl2       1.0  0.10737  0.60341  0.37827  1.0000
  Cl  Cl3       1.0  0.20077  0.18543  0.48104  1.0000
  Cl  Cl4       1.0  0.79922  0.81457  0.51896  1.0000
  O   O1        1.0  0.52954  0.93466  0.87174  1.0000
  O   O2        1.0  0.47046  0.06534  0.12826  1.0000
  O   O3        1.0  0.58956  0.79699  0.73481  1.0000
  O   O4        1.0  0.41044  0.20301  0.26519  1.0000
  O   O5        1.0  0.18113  0.02374  0.96870  1.0000
  O   O6        1.0  0.81887  0.97627  0.03130  1.0000
  O   O7        1.0  0.23989  0.23635  0.95350  1.0000
  O   O8        1.0  0.76011  0.76365  0.04650  1.0000
