data_image0
_chemical_formula_structural       Cu4H64C46N16Cl4
_chemical_formula_sum              "Cu4 H64 C46 N16 Cl4"
_cell_length_a       10.2646
_cell_length_b       10.2873
_cell_length_c       15.037
_cell_angle_alpha    102.001
_cell_angle_beta     102.028
_cell_angle_gamma    99.064

_space_group_name_H-M_alt    "P 1"
_space_group_IT_number       1

loop_
  _space_group_symop_operation_xyz
  'x, y, z'

loop_
  _atom_site_type_symbol
  _atom_site_label
  _atom_site_symmetry_multiplicity
  _atom_site_fract_x
  _atom_site_fract_y
  _atom_site_fract_z
  _atom_site_occupancy
  Cu  Cu1       1.0  0.04068  0.63808  0.53110  1.0000
  Cu  Cu2       1.0  0.36212  0.95940  0.96919  1.0000
  Cu  Cu3       1.0  0.95932  0.36191  0.46890  1.0000
  Cu  Cu4       1.0  0.63787  0.04060  0.03081  1.0000
  H   H1        1.0  0.97354  0.22536  0.63944  1.0000
  H   H2        1.0  0.77365  0.02591  0.86013  1.0000
  H   H3        1.0  0.02645  0.77464  0.36056  1.0000
  H   H4        1.0  0.22635  0.97409  0.13987  1.0000
  H   H5        1.0  0.13273  0.18332  0.64015  1.0000
  H   H6        1.0  0.81589  0.86718  0.85965  1.0000
  H   H7        1.0  0.86726  0.81668  0.35986  1.0000
  H   H8        1.0  0.18411  0.13282  0.14036  1.0000
  H   H9        1.0  0.06584  0.18545  0.74057  1.0000
  H   H10       1.0  0.81363  0.93369  0.75909  1.0000
  H   H11       1.0  0.93415  0.81455  0.25943  1.0000
  H   H12       1.0  0.18636  0.06630  0.24091  1.0000
  H   H13       1.0  0.76017  0.00994  0.54545  1.0000
  H   H14       1.0  0.98931  0.23901  0.95393  1.0000
  H   H15       1.0  0.23982  0.99005  0.45454  1.0000
  H   H16       1.0  0.01068  0.76100  0.04606  1.0000
  H   H17       1.0  0.74013  0.61197  0.46463  1.0000
  H   H18       1.0  0.38821  0.25918  0.03508  1.0000
  H   H19       1.0  0.25988  0.38802  0.53537  1.0000
  H   H20       1.0  0.61179  0.74082  0.96492  1.0000
  H   H21       1.0  0.64091  0.73506  0.44352  1.0000
  H   H22       1.0  0.26480  0.35814  0.05611  1.0000
  H   H23       1.0  0.35908  0.26492  0.55648  1.0000
  H   H24       1.0  0.73520  0.64187  0.94389  1.0000
  H   H25       1.0  0.64483  0.67334  0.54531  1.0000
  H   H26       1.0  0.32670  0.35423  0.95434  1.0000
  H   H27       1.0  0.35518  0.32665  0.45469  1.0000
  H   H28       1.0  0.67330  0.64578  0.04566  1.0000
  H   H29       1.0  0.46365  0.08248  0.76501  1.0000
  H   H30       1.0  0.91765  0.53736  0.73488  1.0000
  H   H31       1.0  0.53635  0.91751  0.23499  1.0000
  H   H32       1.0  0.08234  0.46263  0.26513  1.0000
  H   H33       1.0  0.37946  0.16929  0.68647  1.0000
  H   H34       1.0  0.83032  0.62121  0.81320  1.0000
  H   H35       1.0  0.62055  0.83071  0.31354  1.0000
  H   H36       1.0  0.16968  0.37880  0.18680  1.0000
  H   H37       1.0  0.54169  0.13404  0.67960  1.0000
  H   H38       1.0  0.86546  0.45924  0.82005  1.0000
  H   H39       1.0  0.45832  0.86595  0.32041  1.0000
  H   H40       1.0  0.13454  0.54076  0.17996  1.0000
  H   H41       1.0  0.52504  0.90966  0.53932  1.0000
  H   H42       1.0  0.09041  0.47575  0.96071  1.0000
  H   H43       1.0  0.47496  0.09034  0.46068  1.0000
  H   H44       1.0  0.90959  0.52425  0.03929  1.0000
  H   H45       1.0  0.40231  0.59403  0.45133  1.0000
  H   H46       1.0  0.40633  0.59809  0.04886  1.0000
  H   H47       1.0  0.59769  0.40597  0.54867  1.0000
  H   H48       1.0  0.59368  0.40191  0.95113  1.0000
  H   H49       1.0  0.33085  0.68194  0.37031  1.0000
  H   H50       1.0  0.31843  0.66964  0.12991  1.0000
  H   H51       1.0  0.66916  0.31806  0.62969  1.0000
  H   H52       1.0  0.68157  0.33036  0.87009  1.0000
  H   H53       1.0  0.22173  0.57588  0.41660  1.0000
  H   H54       1.0  0.42489  0.77830  0.08356  1.0000
  H   H55       1.0  0.77826  0.42412  0.58339  1.0000
  H   H56       1.0  0.57511  0.22170  0.91644  1.0000
  H   H57       1.0  0.20885  0.02062  0.72619  1.0000
  H   H58       1.0  0.97892  0.79122  0.77388  1.0000
  H   H59       1.0  0.79115  0.97938  0.27381  1.0000
  H   H60       1.0  0.02108  0.20879  0.22613  1.0000
  H   H61       1.0  0.15661  0.71368  0.70839  1.0000
  H   H62       1.0  0.28651  0.84312  0.79161  1.0000
  H   H63       1.0  0.84339  0.28632  0.29161  1.0000
  H   H64       1.0  0.71349  0.15688  0.20839  1.0000
  C   C1        1.0  0.03902  0.15870  0.66326  1.0000
  C   C2        1.0  0.84050  0.96059  0.83640  1.0000
  C   C3        1.0  0.96097  0.84130  0.33674  1.0000
  C   C4        1.0  0.15950  0.03941  0.16360  1.0000
  C   C5        1.0  0.96910  0.01406  0.62292  1.0000
  C   C6        1.0  0.98539  0.03049  0.87674  1.0000
  C   C7        1.0  0.03090  0.98593  0.37708  1.0000
  C   C8        1.0  0.01461  0.96952  0.12326  1.0000
  C   C9        1.0  0.83760  0.95538  0.56896  1.0000
  C   C10       1.0  0.04406  0.16176  0.93057  1.0000
  C   C11       1.0  0.16240  0.04461  0.43104  1.0000
  C   C12       1.0  0.95594  0.83824  0.06942  1.0000
  C   C13       1.0  0.82654  0.81312  0.55083  1.0000
  C   C14       1.0  0.18666  0.17289  0.94883  1.0000
  C   C15       1.0  0.17346  0.18687  0.44918  1.0000
  C   C16       1.0  0.81333  0.82711  0.05116  1.0000
  C   C17       1.0  0.70680  0.70203  0.49807  1.0000
  C   C18       1.0  0.29793  0.29243  0.00159  1.0000
  C   C19       1.0  0.29321  0.29796  0.50193  1.0000
  C   C20       1.0  0.70207  0.70758  0.99841  1.0000
  C   C21       1.0  0.44382  0.09390  0.69253  1.0000
  C   C22       1.0  0.90586  0.55696  0.80728  1.0000
  C   C23       1.0  0.55618  0.90610  0.30748  1.0000
  C   C24       1.0  0.09414  0.44304  0.19272  1.0000
  C   C25       1.0  0.38036  0.96060  0.62421  1.0000
  C   C26       1.0  0.03930  0.62021  0.87584  1.0000
  C   C27       1.0  0.61964  0.03939  0.37579  1.0000
  C   C28       1.0  0.96070  0.37980  0.12417  1.0000
  C   C29       1.0  0.42790  0.88296  0.55560  1.0000
  C   C30       1.0  0.11708  0.57276  0.94448  1.0000
  C   C31       1.0  0.57209  0.11704  0.44440  1.0000
  C   C32       1.0  0.88293  0.42724  0.05552  1.0000
  C   C33       1.0  0.32519  0.76448  0.51255  1.0000
  C   C34       1.0  0.23574  0.67531  0.98763  1.0000
  C   C35       1.0  0.67480  0.23552  0.48745  1.0000
  C   C36       1.0  0.76426  0.32469  0.01236  1.0000
  C   C37       1.0  0.31986  0.64766  0.43346  1.0000
  C   C38       1.0  0.35279  0.68051  0.06674  1.0000
  C   C39       1.0  0.68014  0.35234  0.56654  1.0000
  C   C40       1.0  0.64721  0.31949  0.93325  1.0000
  C   C41       1.0  0.16910  0.91524  0.68498  1.0000
  C   C42       1.0  0.08456  0.83095  0.81506  1.0000
  C   C43       1.0  0.83090  0.08476  0.31502  1.0000
  C   C44       1.0  0.91544  0.16906  0.18494  1.0000
  C   C45       1.0  0.18032  0.81961  0.75001  1.0000
  C   C46       1.0  0.81968  0.18039  0.24999  1.0000
  N   N1        1.0  0.22019  0.76799  0.55302  1.0000
  N   N2        1.0  0.23217  0.78017  0.94722  1.0000
  N   N3        1.0  0.77981  0.23201  0.44698  1.0000
  N   N4        1.0  0.76783  0.21983  0.05278  1.0000
  N   N5        1.0  0.25465  0.88814  0.61983  1.0000
  N   N6        1.0  0.11179  0.74575  0.88033  1.0000
  N   N7        1.0  0.74535  0.11186  0.38017  1.0000
  N   N8        1.0  0.88822  0.25426  0.11967  1.0000
  N   N9        1.0  0.94535  0.78414  0.59065  1.0000
  N   N10       1.0  0.21584  0.05434  0.90922  1.0000
  N   N11       1.0  0.05465  0.21585  0.40935  1.0000
  N   N12       1.0  0.78416  0.94567  0.09078  1.0000
  N   N13       1.0  0.03010  0.90795  0.63537  1.0000
  N   N14       1.0  0.09181  0.96967  0.86450  1.0000
  N   N15       1.0  0.96990  0.09204  0.36463  1.0000
  N   N16       1.0  0.90819  0.03034  0.13550  1.0000
  Cl  Cl1       1.0  0.07194  0.47464  0.62106  1.0000
  Cl  Cl2       1.0  0.52527  0.92802  0.87873  1.0000
  Cl  Cl3       1.0  0.92806  0.52536  0.37894  1.0000
  Cl  Cl4       1.0  0.47473  0.07198  0.12127  1.0000
