data_image0
_chemical_formula_structural       Co2H30C38N14O8
_chemical_formula_sum              "Co2 H30 C38 N14 O8"
_cell_length_a       9.0134
_cell_length_b       10.0278
_cell_length_c       11.5315
_cell_angle_alpha    82.7087
_cell_angle_beta     76.0541
_cell_angle_gamma    75.805

_space_group_name_H-M_alt    "P 1"
_space_group_IT_number       1

loop_
  _space_group_symop_operation_xyz
  'x, y, z'

loop_
  _atom_site_type_symbol
  _atom_site_label
  _atom_site_symmetry_multiplicity
  _atom_site_fract_x
  _atom_site_fract_y
  _atom_site_fract_z
  _atom_site_occupancy
  Co  Co1       1.0  0.64495  0.64702  0.97896  1.0000
  Co  Co2       1.0  0.35505  0.35298  0.02104  1.0000
  H   H1        1.0  0.02046  0.30079  0.83596  1.0000
  H   H2        1.0  0.97954  0.69921  0.16404  1.0000
  H   H3        1.0  0.19667  0.06883  0.79752  1.0000
  H   H4        1.0  0.80334  0.93117  0.20248  1.0000
  H   H5        1.0  0.08396  0.85956  0.84042  1.0000
  H   H6        1.0  0.91604  0.14044  0.15958  1.0000
  H   H7        1.0  0.62193  0.11591  0.94318  1.0000
  H   H8        1.0  0.37807  0.88409  0.05682  1.0000
  H   H9        1.0  0.93158  0.41235  0.10115  1.0000
  H   H10       1.0  0.06842  0.58765  0.89885  1.0000
  H   H11       1.0  0.58470  0.75154  0.24173  1.0000
  H   H12       1.0  0.41530  0.24845  0.75827  1.0000
  H   H13       1.0  0.01690  0.47454  0.38784  1.0000
  H   H14       1.0  0.98309  0.52546  0.61217  1.0000
  H   H15       1.0  0.06929  0.35323  0.27598  1.0000
  H   H16       1.0  0.93071  0.64677  0.72402  1.0000
  H   H17       1.0  0.07492  0.23707  0.52093  1.0000
  H   H18       1.0  0.92508  0.76293  0.47907  1.0000
  H   H19       1.0  0.93522  0.06801  0.65400  1.0000
  H   H20       1.0  0.06478  0.93198  0.34600  1.0000
  H   H21       1.0  0.66715  0.05930  0.63122  1.0000
  H   H22       1.0  0.33285  0.94070  0.36878  1.0000
  H   H23       1.0  0.42449  0.32500  0.50700  1.0000
  H   H24       1.0  0.57551  0.67500  0.49300  1.0000
  H   H25       1.0  0.45604  0.14306  0.53157  1.0000
  H   H26       1.0  0.54396  0.85695  0.46843  1.0000
  H   H27       1.0  0.53225  0.04860  0.13092  1.0000
  H   H28       1.0  0.46775  0.95140  0.86908  1.0000
  H   H29       1.0  0.41095  0.42844  0.28789  1.0000
  H   H30       1.0  0.58905  0.57157  0.71211  1.0000
  C   C1        1.0  0.70372  0.36278  0.90816  1.0000
  C   C2        1.0  0.29628  0.63722  0.09184  1.0000
  C   C3        1.0  0.81046  0.22372  0.88995  1.0000
  C   C4        1.0  0.18954  0.77628  0.11005  1.0000
  C   C5        1.0  0.97294  0.20906  0.85094  1.0000
  C   C6        1.0  0.02706  0.79094  0.14906  1.0000
  C   C7        1.0  0.07091  0.07910  0.83078  1.0000
  C   C8        1.0  0.92909  0.92090  0.16922  1.0000
  C   C9        1.0  0.00826  0.96180  0.85428  1.0000
  C   C10       1.0  0.99175  0.03819  0.14571  1.0000
  C   C11       1.0  0.84649  0.97509  0.89911  1.0000
  C   C12       1.0  0.15351  0.02491  0.10089  1.0000
  C   C13       1.0  0.74799  0.10607  0.91343  1.0000
  C   C14       1.0  0.25201  0.89394  0.08657  1.0000
  C   C15       1.0  0.77693  0.85196  0.93381  1.0000
  C   C16       1.0  0.22307  0.14804  0.06619  1.0000
  C   C17       1.0  0.85481  0.49080  0.15833  1.0000
  C   C18       1.0  0.14519  0.50920  0.84167  1.0000
  C   C19       1.0  0.68128  0.66171  0.23364  1.0000
  C   C20       1.0  0.31872  0.33829  0.76636  1.0000
  C   C21       1.0  0.97089  0.41152  0.33969  1.0000
  C   C22       1.0  0.02911  0.58848  0.66031  1.0000
  C   C23       1.0  0.88626  0.31306  0.42613  1.0000
  C   C24       1.0  0.11374  0.68694  0.57387  1.0000
  C   C25       1.0  0.95935  0.22929  0.51246  1.0000
  C   C26       1.0  0.04065  0.77071  0.48754  1.0000
  C   C27       1.0  0.88117  0.13602  0.58695  1.0000
  C   C28       1.0  0.11883  0.86398  0.41305  1.0000
  C   C29       1.0  0.73228  0.13101  0.57478  1.0000
  C   C30       1.0  0.26772  0.86899  0.42522  1.0000
  C   C31       1.0  0.66753  0.22075  0.48803  1.0000
  C   C32       1.0  0.33247  0.77924  0.51196  1.0000
  C   C33       1.0  0.50236  0.22740  0.47607  1.0000
  C   C34       1.0  0.49764  0.77260  0.52393  1.0000
  C   C35       1.0  0.51041  0.12597  0.19475  1.0000
  C   C36       1.0  0.48960  0.87403  0.80524  1.0000
  C   C37       1.0  0.44706  0.31969  0.27207  1.0000
  C   C38       1.0  0.55294  0.68032  0.72793  1.0000
  N   N1        1.0  0.73677  0.59109  0.13256  1.0000
  N   N2        1.0  0.26323  0.40891  0.86744  1.0000
  N   N3        1.0  0.75854  0.61096  0.31988  1.0000
  N   N4        1.0  0.24145  0.38904  0.68012  1.0000
  N   N5        1.0  0.86939  0.50316  0.26982  1.0000
  N   N6        1.0  0.13061  0.49684  0.73018  1.0000
  N   N7        1.0  0.74340  0.30914  0.41429  1.0000
  N   N8        1.0  0.25660  0.69086  0.58571  1.0000
  N   N9        1.0  0.49204  0.21855  0.35354  1.0000
  N   N10       1.0  0.50795  0.78145  0.64646  1.0000
  N   N11       1.0  0.53421  0.09400  0.30523  1.0000
  N   N12       1.0  0.46579  0.90600  0.69477  1.0000
  N   N13       1.0  0.45547  0.26436  0.17045  1.0000
  N   N14       1.0  0.54453  0.73564  0.82955  1.0000
  O   O1        1.0  0.76471  0.46456  0.90990  1.0000
  O   O2        1.0  0.23529  0.53544  0.09009  1.0000
  O   O3        1.0  0.55723  0.37378  0.91832  1.0000
  O   O4        1.0  0.44277  0.62622  0.08168  1.0000
  O   O5        1.0  0.84674  0.73786  0.88742  1.0000
  O   O6        1.0  0.15327  0.26214  0.11259  1.0000
  O   O7        1.0  0.64555  0.86106  0.00914  1.0000
  O   O8        1.0  0.35445  0.13894  0.99085  1.0000
