data_image0
_chemical_formula_structural       FeHg2H16C26S6N10
_chemical_formula_sum              "Fe1 Hg2 H16 C26 S6 N10"
_cell_length_a       8.69873
_cell_length_b       8.8567
_cell_length_c       11.0632
_cell_angle_alpha    78.4135
_cell_angle_beta     71.2046
_cell_angle_gamma    88.1879

_space_group_name_H-M_alt    "P 1"
_space_group_IT_number       1

loop_
  _space_group_symop_operation_xyz
  'x, y, z'

loop_
  _atom_site_type_symbol
  _atom_site_label
  _atom_site_symmetry_multiplicity
  _atom_site_fract_x
  _atom_site_fract_y
  _atom_site_fract_z
  _atom_site_occupancy
  Fe  Fe1       1.0  0.50000  0.50000  0.50000  1.0000
  Hg  Hg1       1.0  0.02094  0.93292  0.34592  1.0000
  Hg  Hg2       1.0  0.97905  0.06708  0.65409  1.0000
  H   H1        1.0  0.12834  0.58856  0.29774  1.0000
  H   H2        1.0  0.87167  0.41144  0.70226  1.0000
  H   H3        1.0  0.13786  0.40772  0.15368  1.0000
  H   H4        1.0  0.86215  0.59228  0.84632  1.0000
  H   H5        1.0  0.60610  0.28440  0.31845  1.0000
  H   H6        1.0  0.39390  0.71560  0.68155  1.0000
  H   H7        1.0  0.43860  0.74062  0.06633  1.0000
  H   H8        1.0  0.56140  0.25938  0.93367  1.0000
  H   H9        1.0  0.45452  0.73536  0.28452  1.0000
  H   H10       1.0  0.54548  0.26465  0.71548  1.0000
  H   H11       1.0  0.60081  0.26992  0.10159  1.0000
  H   H12       1.0  0.39919  0.73008  0.89842  1.0000
  H   H13       1.0  0.85721  0.89631  0.12112  1.0000
  H   H14       1.0  0.14279  0.10368  0.87888  1.0000
  H   H15       1.0  0.85520  0.73006  0.96865  1.0000
  H   H16       1.0  0.14480  0.26994  0.03135  1.0000
  C   C1        1.0  0.16652  0.64229  0.53433  1.0000
  C   C2        1.0  0.83348  0.35771  0.46567  1.0000
  C   C3        1.0  0.29967  0.00015  0.07660  1.0000
  C   C4        1.0  0.70033  0.99985  0.92340  1.0000
  C   C5        1.0  0.64845  0.82584  0.43833  1.0000
  C   C6        1.0  0.35155  0.17416  0.56166  1.0000
  C   C7        1.0  0.99837  0.55197  0.04501  1.0000
  C   C8        1.0  0.00164  0.44803  0.95498  1.0000
  C   C9        1.0  0.07070  0.61626  0.22229  1.0000
  C   C10       1.0  0.92931  0.38374  0.77771  1.0000
  C   C11       1.0  0.07502  0.51490  0.14050  1.0000
  C   C12       1.0  0.92499  0.48510  0.85950  1.0000
  C   C13       1.0  0.50970  0.50262  0.06339  1.0000
  C   C14       1.0  0.49030  0.49738  0.93661  1.0000
  C   C15       1.0  0.56851  0.38295  0.25973  1.0000
  C   C16       1.0  0.43149  0.61705  0.74027  1.0000
  C   C17       1.0  0.47529  0.63526  0.11778  1.0000
  C   C18       1.0  0.52471  0.36474  0.88222  1.0000
  C   C19       1.0  0.48339  0.63384  0.24115  1.0000
  C   C20       1.0  0.51661  0.36616  0.75885  1.0000
  C   C21       1.0  0.56380  0.37618  0.13675  1.0000
  C   C22       1.0  0.43620  0.62382  0.86325  1.0000
  C   C23       1.0  0.91977  0.78752  0.12446  1.0000
  C   C24       1.0  0.08023  0.21248  0.87554  1.0000
  C   C25       1.0  0.91865  0.69237  0.03904  1.0000
  C   C26       1.0  0.08136  0.30763  0.96095  1.0000
  S   S1        1.0  0.98585  0.71411  0.55471  1.0000
  S   S2        1.0  0.01415  0.28588  0.44529  1.0000
  S   S3        1.0  0.72179  0.00201  0.41526  1.0000
  S   S4        1.0  0.27820  0.99800  0.58474  1.0000
  S   S5        1.0  0.29026  0.05939  0.21187  1.0000
  S   S6        1.0  0.70973  0.94060  0.78815  1.0000
  N   N1        1.0  0.29354  0.58607  0.52361  1.0000
  N   N2        1.0  0.70645  0.41393  0.47639  1.0000
  N   N3        1.0  0.30922  0.95822  0.97981  1.0000
  N   N4        1.0  0.69078  0.04179  0.02021  1.0000
  N   N5        1.0  0.59460  0.69995  0.45715  1.0000
  N   N6        1.0  0.40540  0.30005  0.54285  1.0000
  N   N7        1.0  0.52391  0.50766  0.31453  1.0000
  N   N8        1.0  0.47609  0.49234  0.68547  1.0000
  N   N9        1.0  0.99514  0.75035  0.21433  1.0000
  N   N10       1.0  0.00486  0.24965  0.78566  1.0000
