data_image0
_chemical_formula_structural       Cu2H28C32N4O12
_chemical_formula_sum              "Cu2 H28 C32 N4 O12"
_cell_length_a       7.24101
_cell_length_b       10.7051
_cell_length_c       10.8621
_cell_angle_alpha    96.1197
_cell_angle_beta     103.792
_cell_angle_gamma    109.119

_space_group_name_H-M_alt    "P 1"
_space_group_IT_number       1

loop_
  _space_group_symop_operation_xyz
  'x, y, z'

loop_
  _atom_site_type_symbol
  _atom_site_label
  _atom_site_symmetry_multiplicity
  _atom_site_fract_x
  _atom_site_fract_y
  _atom_site_fract_z
  _atom_site_occupancy
  Cu  Cu1       1.0  0.23827  0.59277  0.22986  1.0000
  Cu  Cu2       1.0  0.76173  0.40723  0.77014  1.0000
  H   H1        1.0  0.42842  0.49927  0.12079  1.0000
  H   H2        1.0  0.57158  0.50073  0.87922  1.0000
  H   H3        1.0  0.19131  0.39247  0.07094  1.0000
  H   H4        1.0  0.80869  0.60753  0.92906  1.0000
  H   H5        1.0  0.17022  0.20399  0.15995  1.0000
  H   H6        1.0  0.82978  0.79601  0.84005  1.0000
  H   H7        1.0  0.30129  0.92244  0.64843  1.0000
  H   H8        1.0  0.69870  0.07755  0.35157  1.0000
  H   H9        1.0  0.54681  0.05202  0.68735  1.0000
  H   H10       1.0  0.45319  0.94798  0.31264  1.0000
  H   H11       1.0  0.80634  0.18177  0.11807  1.0000
  H   H12       1.0  0.19366  0.81823  0.88193  1.0000
  H   H13       1.0  0.79303  0.01605  0.56683  1.0000
  H   H14       1.0  0.20696  0.98395  0.43317  1.0000
  H   H15       1.0  0.69431  0.86691  0.44098  1.0000
  H   H16       1.0  0.30568  0.13309  0.55901  1.0000
  H   H17       1.0  0.74889  0.58577  0.57508  1.0000
  H   H18       1.0  0.25110  0.41423  0.42492  1.0000
  H   H19       1.0  0.99992  0.71914  0.47089  1.0000
  H   H20       1.0  0.00008  0.28086  0.52910  1.0000
  H   H21       1.0  0.26265  0.00191  0.17329  1.0000
  H   H22       1.0  0.73735  0.99809  0.82671  1.0000
  H   H23       1.0  0.54288  0.95873  0.11174  1.0000
  H   H24       1.0  0.45712  0.04127  0.88826  1.0000
  H   H25       1.0  0.20157  0.50672  0.83404  1.0000
  H   H26       1.0  0.79842  0.49328  0.16596  1.0000
  H   H27       1.0  0.46854  0.63427  0.74025  1.0000
  H   H28       1.0  0.53146  0.36573  0.25975  1.0000
  C   C1        1.0  0.05309  0.10669  0.15348  1.0000
  C   C2        1.0  0.94691  0.89331  0.84652  1.0000
  C   C3        1.0  0.42177  0.97724  0.60842  1.0000
  C   C4        1.0  0.57823  0.02276  0.39157  1.0000
  C   C5        1.0  0.25561  0.68769  0.59744  1.0000
  C   C6        1.0  0.74439  0.31231  0.40256  1.0000
  C   C7        1.0  0.84923  0.09455  0.13179  1.0000
  C   C8        1.0  0.15077  0.90545  0.86821  1.0000
  C   C9        1.0  0.02728  0.74841  0.15553  1.0000
  C   C10       1.0  0.97273  0.25159  0.84448  1.0000
  C   C11       1.0  0.65770  0.94669  0.48972  1.0000
  C   C12       1.0  0.34230  0.05331  0.51027  1.0000
  C   C13       1.0  0.91035  0.60078  0.60982  1.0000
  C   C14       1.0  0.08965  0.39922  0.39018  1.0000
  C   C15       1.0  0.95717  0.86641  0.15305  1.0000
  C   C16       1.0  0.04284  0.13359  0.84696  1.0000
  C   C17       1.0  0.05128  0.67566  0.55263  1.0000
  C   C18       1.0  0.94872  0.32434  0.44737  1.0000
  C   C19       1.0  0.10520  0.99316  0.16236  1.0000
  C   C20       1.0  0.89480  0.00684  0.83764  1.0000
  C   C21       1.0  0.70215  0.97008  0.12635  1.0000
  C   C22       1.0  0.29785  0.02992  0.87365  1.0000
  C   C23       1.0  0.59575  0.72638  0.14494  1.0000
  C   C24       1.0  0.40425  0.27362  0.85507  1.0000
  C   C25       1.0  0.41634  0.74803  0.53227  1.0000
  C   C26       1.0  0.58366  0.25197  0.46773  1.0000
  C   C27       1.0  0.75417  0.85593  0.13972  1.0000
  C   C28       1.0  0.24584  0.14407  0.86029  1.0000
  C   C29       1.0  0.16337  0.55645  0.75464  1.0000
  C   C30       1.0  0.83663  0.44355  0.24535  1.0000
  C   C31       1.0  0.31197  0.62878  0.70199  1.0000
  C   C32       1.0  0.68803  0.37122  0.29800  1.0000
  N   N1        1.0  0.49833  0.88363  0.54873  1.0000
  N   N2        1.0  0.50167  0.11637  0.45126  1.0000
  N   N3        1.0  0.96547  0.54000  0.70728  1.0000
  N   N4        1.0  0.03453  0.46000  0.29272  1.0000
  O   O1        1.0  0.61375  0.61628  0.10797  1.0000
  O   O2        1.0  0.38626  0.38372  0.89205  1.0000
  O   O3        1.0  0.47361  0.66945  0.47085  1.0000
  O   O4        1.0  0.52638  0.33055  0.52915  1.0000
  O   O5        1.0  0.11880  0.73521  0.26788  1.0000
  O   O6        1.0  0.88120  0.26479  0.73212  1.0000
  O   O7        1.0  0.01071  0.67528  0.05171  1.0000
  O   O8        1.0  0.98929  0.32472  0.94829  1.0000
  O   O9        1.0  0.45290  0.73905  0.19081  1.0000
  O   O10       1.0  0.54710  0.26095  0.80920  1.0000
  O   O11       1.0  0.30857  0.44442  0.15105  1.0000
  O   O12       1.0  0.69143  0.55558  0.84896  1.0000
