data_image0
_chemical_formula_structural       Cu2H20C16O20
_chemical_formula_sum              "Cu2 H20 C16 O20"
_cell_length_a       7.513
_cell_length_b       8.26537
_cell_length_c       9.78272
_cell_angle_alpha    90.0003
_cell_angle_beta     89.9998
_cell_angle_gamma    83.1141

_space_group_name_H-M_alt    "P 1"
_space_group_IT_number       1

loop_
  _space_group_symop_operation_xyz
  'x, y, z'

loop_
  _atom_site_type_symbol
  _atom_site_label
  _atom_site_symmetry_multiplicity
  _atom_site_fract_x
  _atom_site_fract_y
  _atom_site_fract_z
  _atom_site_occupancy
  Cu  Cu1       1.0  0.23817  0.22472  0.25688  1.0000
  Cu  Cu2       1.0  0.76184  0.77527  0.75688  1.0000
  H   H1        1.0  0.44107  0.41145  0.21764  1.0000
  H   H2        1.0  0.55893  0.58855  0.71764  1.0000
  H   H3        1.0  0.92417  0.32179  0.89414  1.0000
  H   H4        1.0  0.07582  0.67821  0.39412  1.0000
  H   H5        1.0  0.97182  0.36784  0.38617  1.0000
  H   H6        1.0  0.02818  0.63216  0.88617  1.0000
  H   H7        1.0  0.55058  0.06128  0.63618  1.0000
  H   H8        1.0  0.44943  0.93871  0.13619  1.0000
  H   H9        1.0  0.40503  0.50293  0.00718  1.0000
  H   H10       1.0  0.59496  0.49708  0.50717  1.0000
  H   H11       1.0  0.52315  0.14541  0.94043  1.0000
  H   H12       1.0  0.47685  0.85460  0.44043  1.0000
  H   H13       1.0  0.42366  0.28057  0.81367  1.0000
  H   H14       1.0  0.57633  0.71944  0.31367  1.0000
  H   H15       1.0  0.06624  0.32357  0.59059  1.0000
  H   H16       1.0  0.93376  0.67643  0.09059  1.0000
  H   H17       1.0  0.00225  0.97112  0.52148  1.0000
  H   H18       1.0  0.99777  0.02888  0.02147  1.0000
  H   H19       1.0  0.04152  0.04257  0.68627  1.0000
  H   H20       1.0  0.95848  0.95743  0.18626  1.0000
  C   C1        1.0  0.18434  0.36833  0.00497  1.0000
  C   C2        1.0  0.81565  0.63167  0.50496  1.0000
  C   C3        1.0  0.38577  0.37392  0.01859  1.0000
  C   C4        1.0  0.61423  0.62609  0.51859  1.0000
  C   C5        1.0  0.49781  0.27388  0.91085  1.0000
  C   C6        1.0  0.50219  0.72613  0.41085  1.0000
  C   C7        1.0  0.66835  0.34893  0.88753  1.0000
  C   C8        1.0  0.33165  0.65107  0.38753  1.0000
  C   C9        1.0  0.28766  0.15182  0.52695  1.0000
  C   C10       1.0  0.71234  0.84817  0.02695  1.0000
  C   C11       1.0  0.08758  0.21267  0.52765  1.0000
  C   C12       1.0  0.91243  0.78733  0.02765  1.0000
  C   C13       1.0  0.98440  0.08067  0.58596  1.0000
  C   C14       1.0  0.01561  0.91933  0.08596  1.0000
  C   C15       1.0  0.78774  0.13791  0.60395  1.0000
  C   C16       1.0  0.21226  0.86208  0.10396  1.0000
  O   O1        1.0  0.09951  0.31567  0.10626  1.0000
  O   O2        1.0  0.90049  0.68432  0.60626  1.0000
  O   O3        1.0  0.10425  0.41847  0.89604  1.0000
  O   O4        1.0  0.89574  0.58154  0.39603  1.0000
  O   O5        1.0  0.44733  0.31767  0.15279  1.0000
  O   O6        1.0  0.55267  0.68233  0.65279  1.0000
  O   O7        1.0  0.66454  0.49531  0.85821  1.0000
  O   O8        1.0  0.33546  0.50469  0.35822  1.0000
  O   O9        1.0  0.82050  0.25230  0.90318  1.0000
  O   O10       1.0  0.17950  0.74770  0.40317  1.0000
  O   O11       1.0  0.37164  0.13989  0.41250  1.0000
  O   O12       1.0  0.62836  0.86010  0.91250  1.0000
  O   O13       1.0  0.35980  0.11150  0.63995  1.0000
  O   O14       1.0  0.64021  0.88849  0.13995  1.0000
  O   O15       1.0  0.02812  0.25213  0.38902  1.0000
  O   O16       1.0  0.97189  0.74787  0.88902  1.0000
  O   O17       1.0  0.72319  0.28110  0.59387  1.0000
  O   O18       1.0  0.27680  0.71890  0.09389  1.0000
  O   O19       1.0  0.69001  0.01755  0.63382  1.0000
  O   O20       1.0  0.30999  0.98244  0.13383  1.0000
