data_image0
_chemical_formula_structural       Zn2H40C54S4N8O16
_chemical_formula_sum              "Zn2 H40 C54 S4 N8 O16"
_cell_length_a       8.94252
_cell_length_b       12.5408
_cell_length_c       12.979
_cell_angle_alpha    100.743
_cell_angle_beta     108.968
_cell_angle_gamma    93.0388

_space_group_name_H-M_alt    "P 1"
_space_group_IT_number       1

loop_
  _space_group_symop_operation_xyz
  'x, y, z'

loop_
  _atom_site_type_symbol
  _atom_site_label
  _atom_site_symmetry_multiplicity
  _atom_site_fract_x
  _atom_site_fract_y
  _atom_site_fract_z
  _atom_site_occupancy
  Zn  Zn1       1.0  0.21718  0.24492  0.79593  1.0000
  Zn  Zn2       1.0  0.78282  0.75508  0.20407  1.0000
  H   H1        1.0  0.57261  0.01282  0.81393  1.0000
  H   H2        1.0  0.42739  0.98718  0.18607  1.0000
  H   H3        1.0  0.47101  0.77375  0.47819  1.0000
  H   H4        1.0  0.52899  0.22625  0.52181  1.0000
  H   H5        1.0  0.93663  0.26833  0.87729  1.0000
  H   H6        1.0  0.06337  0.73167  0.12271  1.0000
  H   H7        1.0  0.91648  0.91767  0.09242  1.0000
  H   H8        1.0  0.08352  0.08233  0.90759  1.0000
  H   H9        1.0  0.89186  0.36874  0.04597  1.0000
  H   H10       1.0  0.10814  0.63126  0.95403  1.0000
  H   H11       1.0  0.40990  0.40444  0.99154  1.0000
  H   H12       1.0  0.59010  0.59556  0.00846  1.0000
  H   H13       1.0  0.90000  0.08881  0.21683  1.0000
  H   H14       1.0  0.10000  0.91119  0.78317  1.0000
  H   H15       1.0  0.54463  0.87672  0.35224  1.0000
  H   H16       1.0  0.45537  0.12328  0.64776  1.0000
  H   H17       1.0  0.37949  0.52024  0.16106  1.0000
  H   H18       1.0  0.62052  0.47976  0.83894  1.0000
  H   H19       1.0  0.35240  0.48002  0.80290  1.0000
  H   H20       1.0  0.64759  0.51998  0.19710  1.0000
  H   H21       1.0  0.34040  0.58939  0.66112  1.0000
  H   H22       1.0  0.65960  0.41061  0.33889  1.0000
  H   H23       1.0  0.99290  0.51497  0.21673  1.0000
  H   H24       1.0  0.00710  0.48503  0.78327  1.0000
  H   H25       1.0  0.32778  0.45848  0.33367  1.0000
  H   H26       1.0  0.67222  0.54152  0.66634  1.0000
  H   H27       1.0  0.14661  0.37606  0.30296  1.0000
  H   H28       1.0  0.85339  0.62394  0.69704  1.0000
  H   H29       1.0  0.26336  0.60025  0.46537  1.0000
  H   H30       1.0  0.73664  0.39976  0.53463  1.0000
  H   H31       1.0  0.06284  0.54516  0.41383  1.0000
  H   H32       1.0  0.93715  0.45483  0.58616  1.0000
  H   H33       1.0  0.82449  0.99061  0.76133  1.0000
  H   H34       1.0  0.17552  0.00939  0.23867  1.0000
  H   H35       1.0  0.07701  0.30438  0.40910  1.0000
  H   H36       1.0  0.92298  0.69563  0.59090  1.0000
  H   H37       1.0  0.10660  0.20594  0.56000  1.0000
  H   H38       1.0  0.89340  0.79406  0.44000  1.0000
  H   H39       1.0  0.17172  0.59974  0.24373  1.0000
  H   H40       1.0  0.82828  0.40026  0.75627  1.0000
  C   C1        1.0  0.74876  0.95559  0.94401  1.0000
  C   C2        1.0  0.25124  0.04441  0.05600  1.0000
  C   C3        1.0  0.64825  0.03048  0.90133  1.0000
  C   C4        1.0  0.35175  0.96952  0.09867  1.0000
  C   C5        1.0  0.80137  0.02565  0.60166  1.0000
  C   C6        1.0  0.19863  0.97436  0.39835  1.0000
  C   C7        1.0  0.64094  0.12834  0.97041  1.0000
  C   C8        1.0  0.35905  0.87166  0.02959  1.0000
  C   C9        1.0  0.73541  0.14795  0.08374  1.0000
  C   C10       1.0  0.26459  0.85205  0.91626  1.0000
  C   C11       1.0  0.56445  0.84301  0.51309  1.0000
  C   C12       1.0  0.43555  0.15699  0.48691  1.0000
  C   C13       1.0  0.91029  0.13171  0.65727  1.0000
  C   C14       1.0  0.08971  0.86829  0.34274  1.0000
  C   C15       1.0  0.03319  0.32245  0.94410  1.0000
  C   C16       1.0  0.96682  0.67755  0.05590  1.0000
  C   C17       1.0  0.72204  0.99066  0.48639  1.0000
  C   C18       1.0  0.27796  0.00934  0.51361  1.0000
  C   C19       1.0  0.13494  0.45178  0.12040  1.0000
  C   C20       1.0  0.86507  0.54821  0.87959  1.0000
  C   C21       1.0  0.84219  0.97716  0.05769  1.0000
  C   C22       1.0  0.15780  0.02284  0.94231  1.0000
  C   C23       1.0  0.00974  0.37928  0.03901  1.0000
  C   C24       1.0  0.99027  0.62071  0.96099  1.0000
  C   C25       1.0  0.29690  0.40111  0.00688  1.0000
  C   C26       1.0  0.70311  0.59889  0.99312  1.0000
  C   C27       1.0  0.53941  0.20934  0.91651  1.0000
  C   C28       1.0  0.46059  0.79066  0.08349  1.0000
  C   C29       1.0  0.64663  0.87462  0.62876  1.0000
  C   C30       1.0  0.35337  0.12538  0.37124  1.0000
  C   C31       1.0  0.83513  0.07331  0.12762  1.0000
  C   C32       1.0  0.16487  0.92669  0.87238  1.0000
  C   C33       1.0  0.60349  0.90106  0.44224  1.0000
  C   C34       1.0  0.39651  0.09894  0.55776  1.0000
  C   C35       1.0  0.28037  0.46220  0.10215  1.0000
  C   C36       1.0  0.71964  0.53779  0.89785  1.0000
  C   C37       1.0  0.29650  0.44312  0.71439  1.0000
  C   C38       1.0  0.70349  0.55688  0.28561  1.0000
  C   C39       1.0  0.28908  0.50395  0.63412  1.0000
  C   C40       1.0  0.71091  0.49605  0.36588  1.0000
  C   C41       1.0  0.20947  0.45654  0.52093  1.0000
  C   C42       1.0  0.79053  0.54346  0.47907  1.0000
  C   C43       1.0  0.11932  0.51413  0.22570  1.0000
  C   C44       1.0  0.88069  0.48587  0.77430  1.0000
  C   C45       1.0  0.20107  0.46140  0.32377  1.0000
  C   C46       1.0  0.79893  0.53860  0.67623  1.0000
  C   C47       1.0  0.18477  0.52230  0.43245  1.0000
  C   C48       1.0  0.81523  0.47771  0.56755  1.0000
  C   C49       1.0  0.76362  0.96517  0.67158  1.0000
  C   C50       1.0  0.23638  0.03483  0.32842  1.0000
  C   C51       1.0  0.14401  0.34675  0.49445  1.0000
  C   C52       1.0  0.85598  0.65326  0.50555  1.0000
  C   C53       1.0  0.15831  0.29058  0.57876  1.0000
  C   C54       1.0  0.84168  0.70942  0.42123  1.0000
  S   S1        1.0  0.77404  0.83265  0.86238  1.0000
  S   S2        1.0  0.22595  0.16735  0.13762  1.0000
  S   S3        1.0  0.58867  0.80035  0.71571  1.0000
  S   S4        1.0  0.41133  0.19965  0.28429  1.0000
  N   N1        1.0  0.17456  0.33264  0.92815  1.0000
  N   N2        1.0  0.82544  0.66736  0.07185  1.0000
  N   N3        1.0  0.23234  0.33754  0.68751  1.0000
  N   N4        1.0  0.76766  0.66246  0.31248  1.0000
  N   N5        1.0  0.72699  0.24551  0.16096  1.0000
  N   N6        1.0  0.27301  0.75449  0.83904  1.0000
  N   N7        1.0  0.76445  0.04722  0.40956  1.0000
  N   N8        1.0  0.23555  0.95278  0.59044  1.0000
  O   O1        1.0  0.60096  0.30249  0.92117  1.0000
  O   O2        1.0  0.39904  0.69751  0.07883  1.0000
  O   O3        1.0  0.39340  0.16715  0.86415  1.0000
  O   O4        1.0  0.60660  0.83285  0.13585  1.0000
  O   O5        1.0  0.60014  0.28742  0.14019  1.0000
  O   O6        1.0  0.39986  0.71258  0.85981  1.0000
  O   O7        1.0  0.84703  0.28222  0.24514  1.0000
  O   O8        1.0  0.15298  0.71778  0.75486  1.0000
  O   O9        1.0  0.89648  0.10372  0.44347  1.0000
  O   O10       1.0  0.10352  0.89628  0.55653  1.0000
  O   O11       1.0  0.66735  0.03586  0.31369  1.0000
  O   O12       1.0  0.33265  0.96414  0.68632  1.0000
  O   O13       1.0  0.85193  0.21949  0.65492  1.0000
  O   O14       1.0  0.14806  0.78051  0.34508  1.0000
  O   O15       1.0  0.05547  0.11862  0.71115  1.0000
  O   O16       1.0  0.94453  0.88138  0.28885  1.0000
