data_image0
_chemical_formula_structural       Zn2H28C48S4N8O16
_chemical_formula_sum              "Zn2 H28 C48 S4 N8 O16"
_cell_length_a       9.9816
_cell_length_b       10.4832
_cell_length_c       14.765
_cell_angle_alpha    89.7306
_cell_angle_beta     89.4341
_cell_angle_gamma    61.5705

_space_group_name_H-M_alt    "P 1"
_space_group_IT_number       1

loop_
  _space_group_symop_operation_xyz
  'x, y, z'

loop_
  _atom_site_type_symbol
  _atom_site_label
  _atom_site_symmetry_multiplicity
  _atom_site_fract_x
  _atom_site_fract_y
  _atom_site_fract_z
  _atom_site_occupancy
  Zn  Zn1       1.0  0.06320  0.87360  0.75000  1.0000
  Zn  Zn2       1.0  0.93679  0.12640  0.25000  1.0000
  H   H1        1.0  0.58110  0.15102  0.72295  1.0000
  H   H2        1.0  0.26788  0.15103  0.77705  1.0000
  H   H3        1.0  0.41889  0.84898  0.27705  1.0000
  H   H4        1.0  0.73210  0.84898  0.22294  1.0000
  H   H5        1.0  0.40119  0.66211  0.75416  1.0000
  H   H6        1.0  0.93669  0.66212  0.74585  1.0000
  H   H7        1.0  0.59880  0.33788  0.24585  1.0000
  H   H8        1.0  0.06330  0.33788  0.25416  1.0000
  H   H9        1.0  0.25089  0.64982  0.44028  1.0000
  H   H10       1.0  0.09931  0.64981  0.05972  1.0000
  H   H11       1.0  0.74911  0.35020  0.55972  1.0000
  H   H12       1.0  0.90071  0.35018  0.94028  1.0000
  H   H13       1.0  0.26035  0.32962  0.50244  1.0000
  H   H14       1.0  0.41002  0.32963  0.99756  1.0000
  H   H15       1.0  0.73965  0.67037  0.49755  1.0000
  H   H16       1.0  0.58998  0.67037  0.00242  1.0000
  H   H17       1.0  0.46132  0.16593  0.39576  1.0000
  H   H18       1.0  0.37274  0.16594  0.10424  1.0000
  H   H19       1.0  0.53868  0.83406  0.60424  1.0000
  H   H20       1.0  0.62727  0.83406  0.89575  1.0000
  H   H21       1.0  0.07158  0.80848  0.55515  1.0000
  H   H22       1.0  0.11996  0.80847  0.94485  1.0000
  H   H23       1.0  0.92843  0.19154  0.44485  1.0000
  H   H24       1.0  0.88005  0.19153  0.05516  1.0000
  H   H25       1.0  0.59636  0.48595  0.64855  1.0000
  H   H26       1.0  0.91768  0.48596  0.85147  1.0000
  H   H27       1.0  0.40364  0.51404  0.35146  1.0000
  H   H28       1.0  0.08232  0.51403  0.14855  1.0000
  C   C1        1.0  0.55424  0.15602  0.65118  1.0000
  C   C2        1.0  0.28975  0.15602  0.84882  1.0000
  C   C3        1.0  0.44575  0.84398  0.34881  1.0000
  C   C4        1.0  0.71024  0.84398  0.15118  1.0000
  C   C5        1.0  0.63153  0.06954  0.49915  1.0000
  C   C6        1.0  0.29895  0.06953  0.00085  1.0000
  C   C7        1.0  0.36848  0.93046  0.50085  1.0000
  C   C8        1.0  0.70105  0.93047  0.99914  1.0000
  C   C9        1.0  0.66676  0.06044  0.59173  1.0000
  C   C10       1.0  0.27281  0.06044  0.90827  1.0000
  C   C11       1.0  0.33323  0.93956  0.40827  1.0000
  C   C12       1.0  0.72719  0.93957  0.09173  1.0000
  C   C13       1.0  0.44327  0.54971  0.53316  1.0000
  C   C14       1.0  0.00703  0.54970  0.96685  1.0000
  C   C15       1.0  0.55673  0.45030  0.46684  1.0000
  C   C16       1.0  0.99298  0.45028  0.03317  1.0000
  C   C17       1.0  0.40977  0.25387  0.61965  1.0000
  C   C18       1.0  0.33638  0.25386  0.88035  1.0000
  C   C19       1.0  0.59023  0.74614  0.38034  1.0000
  C   C20       1.0  0.66362  0.74614  0.11964  1.0000
  C   C21       1.0  0.37405  0.65159  0.68408  1.0000
  C   C22       1.0  0.97436  0.65159  0.81593  1.0000
  C   C23       1.0  0.62594  0.34841  0.31593  1.0000
  C   C24       1.0  0.02564  0.34840  0.18408  1.0000
  C   C25       1.0  0.29210  0.64384  0.50891  1.0000
  C   C26       1.0  0.06406  0.64384  0.99109  1.0000
  C   C27       1.0  0.70790  0.35616  0.49109  1.0000
  C   C28       1.0  0.93595  0.35615  0.00892  1.0000
  C   C29       1.0  0.37416  0.25689  0.52740  1.0000
  C   C30       1.0  0.36897  0.25689  0.97259  1.0000
  C   C31       1.0  0.62585  0.74311  0.47259  1.0000
  C   C32       1.0  0.63105  0.74310  0.02739  1.0000
  C   C33       1.0  0.48583  0.16507  0.46745  1.0000
  C   C34       1.0  0.34911  0.16507  0.03254  1.0000
  C   C35       1.0  0.51417  0.83493  0.53254  1.0000
  C   C36       1.0  0.65091  0.83493  0.96745  1.0000
  C   C37       1.0  0.18911  0.73566  0.57318  1.0000
  C   C38       1.0  0.07524  0.73566  0.92683  1.0000
  C   C39       1.0  0.81089  0.26435  0.42683  1.0000
  C   C40       1.0  0.92477  0.26433  0.07318  1.0000
  C   C41       1.0  0.48195  0.55554  0.62373  1.0000
  C   C42       1.0  0.96252  0.55554  0.87628  1.0000
  C   C43       1.0  0.51805  0.44446  0.37628  1.0000
  C   C44       1.0  0.03749  0.44445  0.12373  1.0000
  C   C45       1.0  0.81135  0.94679  0.63546  1.0000
  C   C46       1.0  0.24187  0.94678  0.86454  1.0000
  C   C47       1.0  0.18864  0.05322  0.36454  1.0000
  C   C48       1.0  0.75812  0.05322  0.13546  1.0000
  S   S1        1.0  0.26114  0.37830  0.69027  1.0000
  S   S2        1.0  0.36056  0.37831  0.80972  1.0000
  S   S3        1.0  0.73886  0.62170  0.30971  1.0000
  S   S4        1.0  0.63943  0.62170  0.19027  1.0000
  N   N1        1.0  0.22892  0.74053  0.65951  1.0000
  N   N2        1.0  0.03056  0.74053  0.84050  1.0000
  N   N3        1.0  0.77108  0.25947  0.34050  1.0000
  N   N4        1.0  0.96945  0.25947  0.15951  1.0000
  N   N5        1.0  0.74619  0.97982  0.43261  1.0000
  N   N6        1.0  0.27400  0.97982  0.06739  1.0000
  N   N7        1.0  0.25381  0.02018  0.56739  1.0000
  N   N8        1.0  0.72600  0.02019  0.93261  1.0000
  O   O1        1.0  0.83340  0.81940  0.63942  1.0000
  O   O2        1.0  0.34720  0.81940  0.86058  1.0000
  O   O3        1.0  0.16658  0.18060  0.36059  1.0000
  O   O4        1.0  0.65279  0.18061  0.13942  1.0000
  O   O5        1.0  0.88056  0.90798  0.45748  1.0000
  O   O6        1.0  0.21147  0.90798  0.04252  1.0000
  O   O7        1.0  0.11944  0.09202  0.54252  1.0000
  O   O8        1.0  0.78852  0.09203  0.95748  1.0000
  O   O9        1.0  0.70427  0.98083  0.35326  1.0000
  O   O10       1.0  0.31490  0.98084  0.14674  1.0000
  O   O11       1.0  0.29573  0.01917  0.64673  1.0000
  O   O12       1.0  0.68511  0.01917  0.85326  1.0000
  O   O13       1.0  0.89303  0.99844  0.67109  1.0000
  O   O14       1.0  0.10853  0.99843  0.82891  1.0000
  O   O15       1.0  0.10697  0.00156  0.32891  1.0000
  O   O16       1.0  0.89146  0.00158  0.17109  1.0000
