data_image0
_chemical_formula_structural       Mg4H64C32O28
_chemical_formula_sum              "Mg4 H64 C32 O28"
_cell_length_a       8.03981
_cell_length_b       9.02295
_cell_length_c       17.0609
_cell_angle_alpha    101.366
_cell_angle_beta     90
_cell_angle_gamma    90

_space_group_name_H-M_alt    "P 1"
_space_group_IT_number       1

loop_
  _space_group_symop_operation_xyz
  'x, y, z'

loop_
  _atom_site_type_symbol
  _atom_site_label
  _atom_site_symmetry_multiplicity
  _atom_site_fract_x
  _atom_site_fract_y
  _atom_site_fract_z
  _atom_site_occupancy
  Mg  Mg1       1.0  0.84940  0.98973  0.36676  1.0000
  Mg  Mg2       1.0  0.34940  0.51027  0.63324  1.0000
  Mg  Mg3       1.0  0.15060  0.01027  0.63324  1.0000
  Mg  Mg4       1.0  0.65060  0.48973  0.36676  1.0000
  H   H1        1.0  0.59617  0.15165  0.35722  1.0000
  H   H2        1.0  0.09617  0.34835  0.64278  1.0000
  H   H3        1.0  0.40383  0.84835  0.64278  1.0000
  H   H4        1.0  0.90383  0.65165  0.35722  1.0000
  H   H5        1.0  0.50249  0.01151  0.38657  1.0000
  H   H6        1.0  0.00249  0.48849  0.61343  1.0000
  H   H7        1.0  0.49751  0.98849  0.61343  1.0000
  H   H8        1.0  0.99751  0.51151  0.38657  1.0000
  H   H9        1.0  0.84034  0.26595  0.45869  1.0000
  H   H10       1.0  0.34034  0.23405  0.54131  1.0000
  H   H11       1.0  0.15966  0.73405  0.54131  1.0000
  H   H12       1.0  0.65966  0.76595  0.45869  1.0000
  H   H13       1.0  0.01840  0.26076  0.41946  1.0000
  H   H14       1.0  0.51840  0.23924  0.58054  1.0000
  H   H15       1.0  0.98160  0.73924  0.58054  1.0000
  H   H16       1.0  0.48160  0.76076  0.41946  1.0000
  H   H17       1.0  0.90860  0.87138  0.50089  1.0000
  H   H18       1.0  0.40860  0.62862  0.49911  1.0000
  H   H19       1.0  0.09140  0.12862  0.49911  1.0000
  H   H20       1.0  0.59140  0.37138  0.50089  1.0000
  H   H21       1.0  0.75592  0.98559  0.51938  1.0000
  H   H22       1.0  0.25592  0.51441  0.48062  1.0000
  H   H23       1.0  0.24408  0.01441  0.48062  1.0000
  H   H24       1.0  0.74408  0.48559  0.51938  1.0000
  H   H25       1.0  0.35478  0.65260  0.28831  1.0000
  H   H26       1.0  0.85478  0.84740  0.71169  1.0000
  H   H27       1.0  0.64522  0.34740  0.71169  1.0000
  H   H28       1.0  0.14522  0.15260  0.28831  1.0000
  H   H29       1.0  0.03928  0.77539  0.22162  1.0000
  H   H30       1.0  0.53928  0.72461  0.77838  1.0000
  H   H31       1.0  0.96072  0.22461  0.77838  1.0000
  H   H32       1.0  0.46072  0.27539  0.22162  1.0000
  H   H33       1.0  0.26585  0.49563  0.16141  1.0000
  H   H34       1.0  0.76585  0.00437  0.83860  1.0000
  H   H35       1.0  0.73415  0.50437  0.83860  1.0000
  H   H36       1.0  0.23415  0.99563  0.16140  1.0000
  H   H37       1.0  0.04735  0.50260  0.14394  1.0000
  H   H38       1.0  0.54734  0.99740  0.85606  1.0000
  H   H39       1.0  0.95266  0.49740  0.85606  1.0000
  H   H40       1.0  0.45265  0.00260  0.14394  1.0000
  H   H41       1.0  0.18255  0.61253  0.09730  1.0000
  H   H42       1.0  0.68255  0.88747  0.90270  1.0000
  H   H43       1.0  0.81745  0.38747  0.90270  1.0000
  H   H44       1.0  0.31745  0.11253  0.09730  1.0000
  H   H45       1.0  0.72301  0.86463  0.17628  1.0000
  H   H46       1.0  0.22301  0.63537  0.82372  1.0000
  H   H47       1.0  0.27699  0.13537  0.82372  1.0000
  H   H48       1.0  0.77699  0.36463  0.17628  1.0000
  H   H49       1.0  0.56678  0.55134  0.11521  1.0000
  H   H50       1.0  0.06678  0.94866  0.88479  1.0000
  H   H51       1.0  0.43322  0.44866  0.88480  1.0000
  H   H52       1.0  0.93322  0.05134  0.11521  1.0000
  H   H53       1.0  0.63660  0.82583  0.03356  1.0000
  H   H54       1.0  0.13660  0.67417  0.96644  1.0000
  H   H55       1.0  0.36340  0.17417  0.96644  1.0000
  H   H56       1.0  0.86340  0.32583  0.03356  1.0000
  H   H57       1.0  0.46105  0.70391  0.01190  1.0000
  H   H58       1.0  0.96105  0.79609  0.98810  1.0000
  H   H59       1.0  0.53895  0.29608  0.98810  1.0000
  H   H60       1.0  0.03895  0.20391  0.01190  1.0000
  H   H61       1.0  0.66123  0.63309  0.98467  1.0000
  H   H62       1.0  0.16123  0.86691  0.01533  1.0000
  H   H63       1.0  0.33877  0.36691  0.01533  1.0000
  H   H64       1.0  0.83877  0.13309  0.98467  1.0000
  C   C1        1.0  0.22258  0.85426  0.35275  1.0000
  C   C2        1.0  0.72258  0.64574  0.64725  1.0000
  C   C3        1.0  0.77742  0.14574  0.64725  1.0000
  C   C4        1.0  0.27742  0.35426  0.35275  1.0000
  C   C5        1.0  0.24714  0.72498  0.28545  1.0000
  C   C6        1.0  0.74715  0.77502  0.71455  1.0000
  C   C7        1.0  0.75285  0.27502  0.71455  1.0000
  C   C8        1.0  0.25286  0.22498  0.28545  1.0000
  C   C9        1.0  0.14420  0.69843  0.22226  1.0000
  C   C10       1.0  0.64420  0.80157  0.77774  1.0000
  C   C11       1.0  0.85580  0.30157  0.77774  1.0000
  C   C12       1.0  0.35580  0.19843  0.22226  1.0000
  C   C13       1.0  0.16236  0.57021  0.15293  1.0000
  C   C14       1.0  0.66236  0.92979  0.84707  1.0000
  C   C15       1.0  0.83764  0.42979  0.84707  1.0000
  C   C16       1.0  0.33764  0.07021  0.15293  1.0000
  C   C17       1.0  0.69823  0.69694  0.25235  1.0000
  C   C18       1.0  0.19823  0.80307  0.74765  1.0000
  C   C19       1.0  0.30177  0.30307  0.74765  1.0000
  C   C20       1.0  0.80177  0.19694  0.25235  1.0000
  C   C21       1.0  0.67578  0.75092  0.17614  1.0000
  C   C22       1.0  0.17578  0.74909  0.82386  1.0000
  C   C23       1.0  0.32422  0.24908  0.82386  1.0000
  C   C24       1.0  0.82422  0.25091  0.17614  1.0000
  C   C25       1.0  0.60995  0.66440  0.11052  1.0000
  C   C26       1.0  0.10995  0.83560  0.88948  1.0000
  C   C27       1.0  0.39005  0.33560  0.88948  1.0000
  C   C28       1.0  0.89005  0.16440  0.11051  1.0000
  C   C29       1.0  0.59185  0.71011  0.03156  1.0000
  C   C30       1.0  0.09185  0.78989  0.96844  1.0000
  C   C31       1.0  0.40815  0.28989  0.96844  1.0000
  C   C32       1.0  0.90815  0.21011  0.03156  1.0000
  O   O1        1.0  0.60735  0.06874  0.38687  1.0000
  O   O2        1.0  0.10735  0.43126  0.61313  1.0000
  O   O3        1.0  0.39265  0.93126  0.61313  1.0000
  O   O4        1.0  0.89265  0.56874  0.38687  1.0000
  O   O5        1.0  0.93416  0.19504  0.43993  1.0000
  O   O6        1.0  0.43417  0.30496  0.56007  1.0000
  O   O7        1.0  0.06583  0.80496  0.56007  1.0000
  O   O8        1.0  0.56584  0.69504  0.43993  1.0000
  O   O9        1.0  0.80884  0.90844  0.47599  1.0000
  O   O10       1.0  0.30884  0.59155  0.52401  1.0000
  O   O11       1.0  0.19116  0.09156  0.52401  1.0000
  O   O12       1.0  0.69116  0.40845  0.47599  1.0000
  O   O13       1.0  0.08925  0.92916  0.35980  1.0000
  O   O14       1.0  0.58925  0.57084  0.64021  1.0000
  O   O15       1.0  0.91075  0.07084  0.64021  1.0000
  O   O16       1.0  0.41075  0.42916  0.35979  1.0000
  O   O17       1.0  0.34208  0.88808  0.40410  1.0000
  O   O18       1.0  0.84208  0.61192  0.59590  1.0000
  O   O19       1.0  0.65792  0.11192  0.59590  1.0000
  O   O20       1.0  0.15792  0.38808  0.40410  1.0000
  O   O21       1.0  0.63611  0.57125  0.26049  1.0000
  O   O22       1.0  0.13611  0.92875  0.73952  1.0000
  O   O23       1.0  0.36390  0.42875  0.73952  1.0000
  O   O24       1.0  0.86389  0.07125  0.26048  1.0000
  O   O25       1.0  0.78598  0.77940  0.30664  1.0000
  O   O26       1.0  0.28598  0.72060  0.69336  1.0000
  O   O27       1.0  0.21402  0.22060  0.69336  1.0000
  O   O28       1.0  0.71402  0.27940  0.30664  1.0000
