data_image0
_chemical_formula_structural       K2H48C24I2Cl4O12
_chemical_formula_sum              "K2 H48 C24 I2 Cl4 O12"
_cell_length_a       8.02436
_cell_length_b       8.85861
_cell_length_c       13.8866
_cell_angle_alpha    101.885
_cell_angle_beta     90
_cell_angle_gamma    89.9999

_space_group_name_H-M_alt    "P 1"
_space_group_IT_number       1

loop_
  _space_group_symop_operation_xyz
  'x, y, z'

loop_
  _atom_site_type_symbol
  _atom_site_label
  _atom_site_symmetry_multiplicity
  _atom_site_fract_x
  _atom_site_fract_y
  _atom_site_fract_z
  _atom_site_occupancy
  K   K1        1.0  0.50000  1.00000  0.00000  1.0000
  K   K2        1.0  0.99999  0.50000  0.50000  1.0000
  H   H1        1.0  0.71495  0.49562  0.01809  1.0000
  H   H2        1.0  0.21495  0.00438  0.48191  1.0000
  H   H3        1.0  0.28505  0.50438  0.98191  1.0000
  H   H4        1.0  0.78505  0.99562  0.51809  1.0000
  H   H5        1.0  0.83281  0.32989  0.03317  1.0000
  H   H6        1.0  0.33281  0.17011  0.46683  1.0000
  H   H7        1.0  0.16719  0.67011  0.96683  1.0000
  H   H8        1.0  0.66719  0.82989  0.53317  1.0000
  H   H9        1.0  0.68714  0.46702  0.18774  1.0000
  H   H10       1.0  0.18715  0.03299  0.31226  1.0000
  H   H11       1.0  0.31285  0.53298  0.81226  1.0000
  H   H12       1.0  0.81286  0.96702  0.68774  1.0000
  H   H13       1.0  0.49067  0.42251  0.12657  1.0000
  H   H14       1.0  0.99067  0.07749  0.37343  1.0000
  H   H15       1.0  0.50933  0.57749  0.87343  1.0000
  H   H16       1.0  0.00933  0.92251  0.62657  1.0000
  H   H17       1.0  0.43193  0.27908  0.25602  1.0000
  H   H18       1.0  0.93193  0.22092  0.24398  1.0000
  H   H19       1.0  0.56807  0.72092  0.74398  1.0000
  H   H20       1.0  0.06807  0.77908  0.75602  1.0000
  H   H21       1.0  0.63745  0.30660  0.30528  1.0000
  H   H22       1.0  0.13746  0.19340  0.19472  1.0000
  H   H23       1.0  0.36254  0.69340  0.69472  1.0000
  H   H24       1.0  0.86255  0.80660  0.80528  1.0000
  H   H25       1.0  0.68803  0.01933  0.24601  1.0000
  H   H26       1.0  0.18803  0.48067  0.25399  1.0000
  H   H27       1.0  0.31197  0.98067  0.75399  1.0000
  H   H28       1.0  0.81197  0.51934  0.74601  1.0000
  H   H29       1.0  0.53661  0.06976  0.34217  1.0000
  H   H30       1.0  0.03661  0.43024  0.15783  1.0000
  H   H31       1.0  0.46339  0.93024  0.65783  1.0000
  H   H32       1.0  0.96339  0.56976  0.84217  1.0000
  H   H33       1.0  0.39876  0.81582  0.28759  1.0000
  H   H34       1.0  0.89876  0.68418  0.21241  1.0000
  H   H35       1.0  0.60125  0.18418  0.71241  1.0000
  H   H36       1.0  0.10124  0.31582  0.78759  1.0000
  H   H37       1.0  0.56480  0.77253  0.19979  1.0000
  H   H38       1.0  0.06480  0.72747  0.30021  1.0000
  H   H39       1.0  0.43520  0.22747  0.80021  1.0000
  H   H40       1.0  0.93520  0.27253  0.69979  1.0000
  H   H41       1.0  0.30065  0.61751  0.15475  1.0000
  H   H42       1.0  0.80064  0.88249  0.34525  1.0000
  H   H43       1.0  0.69936  0.38249  0.84526  1.0000
  H   H44       1.0  0.19936  0.11751  0.65475  1.0000
  H   H45       1.0  0.19775  0.79104  0.14092  1.0000
  H   H46       1.0  0.69775  0.70896  0.35908  1.0000
  H   H47       1.0  0.80225  0.20896  0.85908  1.0000
  H   H48       1.0  0.30225  0.29104  0.64092  1.0000
  C   C1        1.0  0.70565  0.37764  0.03237  1.0000
  C   C2        1.0  0.20565  0.12237  0.46763  1.0000
  C   C3        1.0  0.29435  0.62236  0.96763  1.0000
  C   C4        1.0  0.79436  0.87763  0.53237  1.0000
  C   C5        1.0  0.62128  0.38397  0.13003  1.0000
  C   C6        1.0  0.12128  0.11603  0.36997  1.0000
  C   C7        1.0  0.37871  0.61603  0.86997  1.0000
  C   C8        1.0  0.87872  0.88397  0.63003  1.0000
  C   C9        1.0  0.56032  0.23300  0.24839  1.0000
  C   C10       1.0  0.06032  0.26701  0.25161  1.0000
  C   C11       1.0  0.43968  0.76701  0.75161  1.0000
  C   C12       1.0  0.93968  0.73299  0.74839  1.0000
  C   C13       1.0  0.56290  0.06973  0.26405  1.0000
  C   C14       1.0  0.06290  0.43027  0.23595  1.0000
  C   C15       1.0  0.43710  0.93027  0.73595  1.0000
  C   C16       1.0  0.93710  0.56973  0.76405  1.0000
  C   C17       1.0  0.43865  0.82296  0.21241  1.0000
  C   C18       1.0  0.93865  0.67704  0.28759  1.0000
  C   C19       1.0  0.56135  0.17704  0.78759  1.0000
  C   C20       1.0  0.06135  0.32296  0.71241  1.0000
  C   C21       1.0  0.32026  0.73282  0.13784  1.0000
  C   C22       1.0  0.82026  0.76718  0.36216  1.0000
  C   C23       1.0  0.67974  0.26718  0.86217  1.0000
  C   C24       1.0  0.17974  0.23282  0.63784  1.0000
  I   I1        1.0  1.00000  1.00000  1.00000  1.0000
  I   I2        1.0  0.50000  0.50000  0.50000  1.0000
  Cl  Cl1       1.0  0.18500  0.22082  0.96936  1.0000
  Cl  Cl2       1.0  0.68500  0.27918  0.53064  1.0000
  Cl  Cl3       1.0  0.81500  0.77918  0.03064  1.0000
  Cl  Cl4       1.0  0.31500  0.72082  0.46936  1.0000
  O   O1        1.0  0.60822  0.28193  0.95752  1.0000
  O   O2        1.0  0.10822  0.21807  0.54248  1.0000
  O   O3        1.0  0.39178  0.71807  0.04248  1.0000
  O   O4        1.0  0.89178  0.78193  0.45752  1.0000
  O   O5        1.0  0.62489  0.23371  0.15259  1.0000
  O   O6        1.0  0.12489  0.26630  0.34741  1.0000
  O   O7        1.0  0.37511  0.76629  0.84741  1.0000
  O   O8        1.0  0.87511  0.73370  0.65259  1.0000
  O   O9        1.0  0.44173  0.98008  0.20134  1.0000
  O   O10       1.0  0.94173  0.51992  0.29866  1.0000
  O   O11       1.0  0.55827  0.01992  0.79866  1.0000
  O   O12       1.0  0.05827  0.48008  0.70134  1.0000
