data_image0
_chemical_formula_structural       Na8H36C24O34
_chemical_formula_sum              "Na8 H36 C24 O34"
_cell_length_a       8.71703
_cell_length_b       10.6223
_cell_length_c       10.9961
_cell_angle_alpha    68.4074
_cell_angle_beta     79.6721
_cell_angle_gamma    81.7746

_space_group_name_H-M_alt    "P 1"
_space_group_IT_number       1

loop_
  _space_group_symop_operation_xyz
  'x, y, z'

loop_
  _atom_site_type_symbol
  _atom_site_label
  _atom_site_symmetry_multiplicity
  _atom_site_fract_x
  _atom_site_fract_y
  _atom_site_fract_z
  _atom_site_occupancy
  Na  Na1       1.0  0.08242  0.07987  0.68560  1.0000
  Na  Na2       1.0  0.91758  0.92013  0.31440  1.0000
  Na  Na3       1.0  0.33827  0.86343  0.85914  1.0000
  Na  Na4       1.0  0.66173  0.13658  0.14086  1.0000
  Na  Na5       1.0  0.63021  0.67857  0.08938  1.0000
  Na  Na6       1.0  0.36979  0.32143  0.91062  1.0000
  Na  Na7       1.0  0.73154  0.20047  0.79725  1.0000
  Na  Na8       1.0  0.26846  0.79952  0.20275  1.0000
  H   H1        1.0  0.33902  0.06083  0.93189  1.0000
  H   H2        1.0  0.66098  0.93917  0.06811  1.0000
  H   H3        1.0  0.16121  0.05024  0.97153  1.0000
  H   H4        1.0  0.83879  0.94976  0.02847  1.0000
  H   H5        1.0  0.69181  0.89138  0.82370  1.0000
  H   H6        1.0  0.30820  0.10862  0.17630  1.0000
  H   H7        1.0  0.61783  0.77363  0.80419  1.0000
  H   H8        1.0  0.38217  0.22637  0.19581  1.0000
  H   H9        1.0  0.05763  0.79809  0.76927  1.0000
  H   H10       1.0  0.94237  0.20191  0.23073  1.0000
  H   H11       1.0  0.01166  0.80186  0.91102  1.0000
  H   H12       1.0  0.98834  0.19813  0.08898  1.0000
  H   H13       1.0  0.56443  0.38926  0.61499  1.0000
  H   H14       1.0  0.43557  0.61074  0.38501  1.0000
  H   H15       1.0  0.57559  0.08586  0.46351  1.0000
  H   H16       1.0  0.42441  0.91414  0.53649  1.0000
  H   H17       1.0  0.71173  0.20812  0.40545  1.0000
  H   H18       1.0  0.28827  0.79187  0.59455  1.0000
  H   H19       1.0  0.34161  0.39005  0.50974  1.0000
  H   H20       1.0  0.65839  0.60995  0.49026  1.0000
  H   H21       1.0  0.33459  0.24566  0.46550  1.0000
  H   H22       1.0  0.66541  0.75434  0.53450  1.0000
  H   H23       1.0  0.90632  0.87196  0.58369  1.0000
  H   H24       1.0  0.09369  0.12804  0.41631  1.0000
  H   H25       1.0  0.91577  0.38612  0.61448  1.0000
  H   H26       1.0  0.08423  0.61388  0.38552  1.0000
  H   H27       1.0  0.91891  0.53959  0.90704  1.0000
  H   H28       1.0  0.08109  0.46041  0.09297  1.0000
  H   H29       1.0  0.78594  0.60103  0.79171  1.0000
  H   H30       1.0  0.21406  0.39897  0.20829  1.0000
  H   H31       1.0  0.14958  0.48067  0.61029  1.0000
  H   H32       1.0  0.85042  0.51933  0.38971  1.0000
  H   H33       1.0  0.15760  0.53857  0.74201  1.0000
  H   H34       1.0  0.84240  0.46143  0.25798  1.0000
  H   H35       1.0  0.58854  0.41019  0.12988  1.0000
  H   H36       1.0  0.41146  0.58981  0.87012  1.0000
  C   C1        1.0  0.76176  0.04443  0.57584  1.0000
  C   C2        1.0  0.23824  0.95557  0.42416  1.0000
  C   C3        1.0  0.64385  0.14389  0.49591  1.0000
  C   C4        1.0  0.35615  0.85611  0.50410  1.0000
  C   C5        1.0  0.53624  0.23670  0.55966  1.0000
  C   C6        1.0  0.46376  0.76330  0.44034  1.0000
  C   C7        1.0  0.41140  0.31766  0.46763  1.0000
  C   C8        1.0  0.58860  0.68234  0.53237  1.0000
  C   C9        1.0  0.48452  0.39503  0.32907  1.0000
  C   C10       1.0  0.51548  0.60497  0.67093  1.0000
  C   C11       1.0  0.44330  0.14976  0.69265  1.0000
  C   C12       1.0  0.55670  0.85024  0.30735  1.0000
  C   C13       1.0  0.72184  0.42689  0.95241  1.0000
  C   C14       1.0  0.27816  0.57312  0.04759  1.0000
  C   C15       1.0  0.84667  0.50773  0.85333  1.0000
  C   C16       1.0  0.15333  0.49227  0.14667  1.0000
  C   C17       1.0  0.94808  0.43845  0.76293  1.0000
  C   C18       1.0  0.05192  0.56155  0.23707  1.0000
  C   C19       1.0  0.08103  0.52954  0.67718  1.0000
  C   C20       1.0  0.91898  0.47046  0.32282  1.0000
  C   C21       1.0  0.01622  0.66967  0.59590  1.0000
  C   C22       1.0  0.98378  0.33033  0.40410  1.0000
  C   C23       1.0  0.02532  0.29969  0.85096  1.0000
  C   C24       1.0  0.97468  0.70031  0.14904  1.0000
  O   O1        1.0  0.26124  0.99912  0.99534  1.0000
  O   O2        1.0  0.73876  0.00088  0.00466  1.0000
  O   O3        1.0  0.61728  0.82157  0.86565  1.0000
  O   O4        1.0  0.38272  0.17843  0.13435  1.0000
  O   O5        1.0  0.08571  0.83926  0.82922  1.0000
  O   O6        1.0  0.91429  0.16074  0.17078  1.0000
  O   O7        1.0  0.83019  0.95620  0.52111  1.0000
  O   O8        1.0  0.16981  0.04380  0.47889  1.0000
  O   O9        1.0  0.79283  0.04370  0.68263  1.0000
  O   O10       1.0  0.20717  0.95630  0.31737  1.0000
  O   O11       1.0  0.35917  0.06539  0.68622  1.0000
  O   O12       1.0  0.64083  0.93461  0.31378  1.0000
  O   O13       1.0  0.45750  0.16904  0.79795  1.0000
  O   O14       1.0  0.54251  0.83096  0.20205  1.0000
  O   O15       1.0  0.53027  0.51079  0.30030  1.0000
  O   O16       1.0  0.46973  0.48921  0.69970  1.0000
  O   O17       1.0  0.50148  0.33423  0.24308  1.0000
  O   O18       1.0  0.49852  0.66577  0.75692  1.0000
  O   O19       1.0  0.63151  0.32364  0.57774  1.0000
  O   O20       1.0  0.36849  0.67636  0.42226  1.0000
  O   O21       1.0  0.66947  0.47411  0.04846  1.0000
  O   O22       1.0  0.33053  0.52589  0.95154  1.0000
  O   O23       1.0  0.67080  0.32582  0.94632  1.0000
  O   O24       1.0  0.32920  0.67418  0.05368  1.0000
  O   O25       1.0  0.09894  0.30416  0.93910  1.0000
  O   O26       1.0  0.90106  0.69584  0.06090  1.0000
  O   O27       1.0  0.00677  0.19180  0.83319  1.0000
  O   O28       1.0  0.99324  0.80820  0.16681  1.0000
  O   O29       1.0  0.98557  0.69612  0.48126  1.0000
  O   O30       1.0  0.01443  0.30388  0.51874  1.0000
  O   O31       1.0  0.98907  0.76027  0.65269  1.0000
  O   O32       1.0  0.01093  0.23973  0.34731  1.0000
  O   O33       1.0  0.84988  0.42055  0.68216  1.0000
  O   O34       1.0  0.15012  0.57945  0.31784  1.0000
