data_image0
_chemical_formula_structural       Cu2H16C26S2N14
_chemical_formula_sum              "Cu2 H16 C26 S2 N14"
_cell_length_a       5.6417
_cell_length_b       5.75175
_cell_length_c       20.2888
_cell_angle_alpha    89.9882
_cell_angle_beta     90.006
_cell_angle_gamma    98.9865

_space_group_name_H-M_alt    "P 1"
_space_group_IT_number       1

loop_
  _space_group_symop_operation_xyz
  'x, y, z'

loop_
  _atom_site_type_symbol
  _atom_site_label
  _atom_site_symmetry_multiplicity
  _atom_site_fract_x
  _atom_site_fract_y
  _atom_site_fract_z
  _atom_site_occupancy
  Cu  Cu1       1.0  0.72611  0.15098  0.74995  1.0000
  Cu  Cu2       1.0  0.27390  0.84898  0.25001  1.0000
  H   H1        1.0  0.13964  0.43776  0.80829  1.0000
  H   H2        1.0  0.86037  0.56248  0.30830  1.0000
  H   H3        1.0  0.86046  0.56235  0.19167  1.0000
  H   H4        1.0  0.13965  0.43740  0.69170  1.0000
  H   H5        1.0  0.75385  0.78946  0.85979  1.0000
  H   H6        1.0  0.24650  0.21044  0.35988  1.0000
  H   H7        1.0  0.24618  0.21066  0.14018  1.0000
  H   H8        1.0  0.75347  0.78944  0.64010  1.0000
  H   H9        1.0  0.40950  0.04767  0.96447  1.0000
  H   H10       1.0  0.59013  0.95276  0.46431  1.0000
  H   H11       1.0  0.59041  0.95247  0.03554  1.0000
  H   H12       1.0  0.40999  0.04703  0.53572  1.0000
  H   H13       1.0  0.45848  0.40028  0.89200  1.0000
  H   H14       1.0  0.54123  0.60020  0.39190  1.0000
  H   H15       1.0  0.54147  0.59987  0.10800  1.0000
  H   H16       1.0  0.45883  0.39963  0.60813  1.0000
  C   C1        1.0  0.07369  0.89162  0.91904  1.0000
  C   C2        1.0  0.92628  0.10863  0.41900  1.0000
  C   C3        1.0  0.92620  0.10858  0.08098  1.0000
  C   C4        1.0  0.07370  0.89126  0.58100  1.0000
  C   C5        1.0  0.03414  0.68325  0.96192  1.0000
  C   C6        1.0  0.96575  0.31686  0.46189  1.0000
  C   C7        1.0  0.96573  0.31691  0.03810  1.0000
  C   C8        1.0  0.03424  0.68299  0.53813  1.0000
  C   C9        1.0  0.12830  0.28212  0.83956  1.0000
  C   C10       1.0  0.87166  0.71805  0.33957  1.0000
  C   C11       1.0  0.87171  0.71801  0.16043  1.0000
  C   C12       1.0  0.12832  0.28182  0.66043  1.0000
  C   C13       1.0  0.90995  0.92241  0.86899  1.0000
  C   C14       1.0  0.09019  0.07763  0.36902  1.0000
  C   C15       1.0  0.09003  0.07771  0.13100  1.0000
  C   C16       1.0  0.90979  0.92225  0.63096  1.0000
  C   C17       1.0  0.27585  0.06551  0.92713  1.0000
  C   C18       1.0  0.72404  0.93486  0.42704  1.0000
  C   C19       1.0  0.72408  0.93472  0.07289  1.0000
  C   C20       1.0  0.27603  0.06497  0.57298  1.0000
  C   C21       1.0  0.30311  0.26305  0.88677  1.0000
  C   C22       1.0  0.69677  0.73731  0.38672  1.0000
  C   C23       1.0  0.69690  0.73711  0.11322  1.0000
  C   C24       1.0  0.30327  0.26253  0.61330  1.0000
  C   C25       1.0  0.54591  0.62816  0.75001  1.0000
  C   C26       1.0  0.45421  0.37183  0.24998  1.0000
  S   S1        1.0  0.40286  0.85440  0.75005  1.0000
  S   S2        1.0  0.59720  0.14557  0.24996  1.0000
  N   N1        1.0  0.93643  0.11331  0.82988  1.0000
  N   N2        1.0  0.06367  0.88674  0.32992  1.0000
  N   N3        1.0  0.06359  0.88681  0.17010  1.0000
  N   N4        1.0  0.93632  0.11315  0.67007  1.0000
  N   N5        1.0  0.20234  0.66155  0.00820  1.0000
  N   N6        1.0  0.79758  0.33845  0.50819  1.0000
  N   N7        1.0  0.79755  0.33862  0.99180  1.0000
  N   N8        1.0  0.20241  0.66138  0.49182  1.0000
  N   N9        1.0  0.83236  0.52495  0.95314  1.0000
  N   N10       1.0  0.16755  0.47518  0.45314  1.0000
  N   N11       1.0  0.16754  0.47522  0.04687  1.0000
  N   N12       1.0  0.83244  0.52466  0.54688  1.0000
  N   N13       1.0  0.64227  0.45926  0.74998  1.0000
  N   N14       1.0  0.35786  0.54073  0.24999  1.0000
