data_image0
_chemical_formula_structural       Ba4H24C48O16
_chemical_formula_sum              "Ba4 H24 C48 O16"
_cell_length_a       8.19276
_cell_length_b       8.32736
_cell_length_c       15.4653
_cell_angle_alpha    90.0002
_cell_angle_beta     94.043
_cell_angle_gamma    89.9999

_space_group_name_H-M_alt    "P 1"
_space_group_IT_number       1

loop_
  _space_group_symop_operation_xyz
  'x, y, z'

loop_
  _atom_site_type_symbol
  _atom_site_label
  _atom_site_symmetry_multiplicity
  _atom_site_fract_x
  _atom_site_fract_y
  _atom_site_fract_z
  _atom_site_occupancy
  Ba  Ba1       1.0  0.75220  0.63264  0.96186  1.0000
  Ba  Ba2       1.0  0.74780  0.13264  0.03814  1.0000
  Ba  Ba3       1.0  0.24780  0.36736  0.03814  1.0000
  Ba  Ba4       1.0  0.25220  0.86736  0.96186  1.0000
  H   H1        1.0  0.00220  0.47972  0.20079  1.0000
  H   H2        1.0  0.49781  0.97972  0.79921  1.0000
  H   H3        1.0  0.99781  0.52028  0.79921  1.0000
  H   H4        1.0  0.50219  0.02028  0.20079  1.0000
  H   H5        1.0  0.02010  0.42421  0.35865  1.0000
  H   H6        1.0  0.47990  0.92421  0.64135  1.0000
  H   H7        1.0  0.97990  0.57579  0.64135  1.0000
  H   H8        1.0  0.52010  0.07579  0.35865  1.0000
  H   H9        1.0  0.08236  0.64574  0.46348  1.0000
  H   H10       1.0  0.41764  0.14574  0.53652  1.0000
  H   H11       1.0  0.91764  0.35426  0.53652  1.0000
  H   H12       1.0  0.58236  0.85426  0.46348  1.0000
  H   H13       1.0  0.14521  0.91953  0.49462  1.0000
  H   H14       1.0  0.35479  0.41953  0.50538  1.0000
  H   H15       1.0  0.85479  0.08047  0.50538  1.0000
  H   H16       1.0  0.64521  0.58047  0.49462  1.0000
  H   H17       1.0  0.18024  0.20200  0.44709  1.0000
  H   H18       1.0  0.31976  0.70200  0.55291  1.0000
  H   H19       1.0  0.81976  0.79800  0.55291  1.0000
  H   H20       1.0  0.68024  0.29800  0.44709  1.0000
  H   H21       1.0  0.16542  0.26466  0.28925  1.0000
  H   H22       1.0  0.33458  0.76465  0.71075  1.0000
  H   H23       1.0  0.83458  0.73534  0.71075  1.0000
  H   H24       1.0  0.66542  0.23534  0.28925  1.0000
  C   C1        1.0  0.01307  0.74920  0.11819  1.0000
  C   C2        1.0  0.48693  0.24920  0.88181  1.0000
  C   C3        1.0  0.98693  0.25080  0.88181  1.0000
  C   C4        1.0  0.51307  0.75080  0.11819  1.0000
  C   C5        1.0  0.05265  0.73064  0.21399  1.0000
  C   C6        1.0  0.44735  0.23063  0.78601  1.0000
  C   C7        1.0  0.94735  0.26936  0.78601  1.0000
  C   C8        1.0  0.55265  0.76936  0.21399  1.0000
  C   C9        1.0  0.03443  0.57659  0.24616  1.0000
  C   C10       1.0  0.46557  0.07658  0.75383  1.0000
  C   C11       1.0  0.96557  0.42342  0.75383  1.0000
  C   C12       1.0  0.53443  0.92342  0.24617  1.0000
  C   C13       1.0  0.04394  0.54503  0.33584  1.0000
  C   C14       1.0  0.45606  0.04502  0.66416  1.0000
  C   C15       1.0  0.95605  0.45497  0.66416  1.0000
  C   C16       1.0  0.54394  0.95497  0.33584  1.0000
  C   C17       1.0  0.07662  0.66781  0.39378  1.0000
  C   C18       1.0  0.42338  0.16781  0.60622  1.0000
  C   C19       1.0  0.92338  0.33219  0.60622  1.0000
  C   C20       1.0  0.57662  0.83219  0.39378  1.0000
  C   C21       1.0  0.10240  0.82638  0.36432  1.0000
  C   C22       1.0  0.39760  0.32638  0.63568  1.0000
  C   C23       1.0  0.89760  0.17362  0.63568  1.0000
  C   C24       1.0  0.60240  0.67362  0.36432  1.0000
  C   C25       1.0  0.13711  0.95014  0.42588  1.0000
  C   C26       1.0  0.36289  0.45013  0.57412  1.0000
  C   C27       1.0  0.86289  0.04986  0.57412  1.0000
  C   C28       1.0  0.63711  0.54987  0.42588  1.0000
  C   C29       1.0  0.15675  0.10639  0.39969  1.0000
  C   C30       1.0  0.34325  0.60639  0.60031  1.0000
  C   C31       1.0  0.84325  0.89360  0.60031  1.0000
  C   C32       1.0  0.65675  0.39361  0.39969  1.0000
  C   C33       1.0  0.14630  0.14200  0.31065  1.0000
  C   C34       1.0  0.35370  0.64199  0.68935  1.0000
  C   C35       1.0  0.85370  0.85800  0.68935  1.0000
  C   C36       1.0  0.64630  0.35800  0.31065  1.0000
  C   C37       1.0  0.11638  0.02438  0.24799  1.0000
  C   C38       1.0  0.38363  0.52437  0.75201  1.0000
  C   C39       1.0  0.88363  0.97562  0.75201  1.0000
  C   C40       1.0  0.61637  0.47563  0.24799  1.0000
  C   C41       1.0  0.09027  0.86140  0.27260  1.0000
  C   C42       1.0  0.40973  0.36139  0.72740  1.0000
  C   C43       1.0  0.90973  0.13861  0.72740  1.0000
  C   C44       1.0  0.59027  0.63861  0.27260  1.0000
  C   C45       1.0  0.12466  0.08561  0.15709  1.0000
  C   C46       1.0  0.37534  0.58561  0.84290  1.0000
  C   C47       1.0  0.87535  0.91439  0.84291  1.0000
  C   C48       1.0  0.62466  0.41439  0.15709  1.0000
  O   O1        1.0  0.06370  0.64218  0.06659  1.0000
  O   O2        1.0  0.43630  0.14217  0.93341  1.0000
  O   O3        1.0  0.93630  0.35783  0.93341  1.0000
  O   O4        1.0  0.56370  0.85783  0.06659  1.0000
  O   O5        1.0  0.92284  0.86505  0.09042  1.0000
  O   O6        1.0  0.57717  0.36505  0.90958  1.0000
  O   O7        1.0  0.07717  0.13495  0.90958  1.0000
  O   O8        1.0  0.42283  0.63495  0.09042  1.0000
  O   O9        1.0  0.23296  0.03109  0.11010  1.0000
  O   O10       1.0  0.26704  0.53109  0.88990  1.0000
  O   O11       1.0  0.76704  0.96891  0.88990  1.0000
  O   O12       1.0  0.73296  0.46891  0.11010  1.0000
  O   O13       1.0  0.03176  0.20484  0.13479  1.0000
  O   O14       1.0  0.46824  0.70484  0.86521  1.0000
  O   O15       1.0  0.96824  0.79516  0.86521  1.0000
  O   O16       1.0  0.53175  0.29516  0.13479  1.0000
