data_image0
_chemical_formula_structural       Cd4H36C48N16O16
_chemical_formula_sum              "Cd4 H36 C48 N16 O16"
_cell_length_a       10.5781
_cell_length_b       11.581
_cell_length_c       11.9871
_cell_angle_alpha    110.194
_cell_angle_beta     90
_cell_angle_gamma    90

_space_group_name_H-M_alt    "P 1"
_space_group_IT_number       1

loop_
  _space_group_symop_operation_xyz
  'x, y, z'

loop_
  _atom_site_type_symbol
  _atom_site_label
  _atom_site_symmetry_multiplicity
  _atom_site_fract_x
  _atom_site_fract_y
  _atom_site_fract_z
  _atom_site_occupancy
  Cd  Cd1       1.0  0.03113  0.81987  0.93704  1.0000
  Cd  Cd2       1.0  0.53113  0.68013  0.56296  1.0000
  Cd  Cd3       1.0  0.96887  0.18013  0.06296  1.0000
  Cd  Cd4       1.0  0.46887  0.31987  0.43704  1.0000
  H   H1        1.0  0.25066  0.60401  0.70838  1.0000
  H   H2        1.0  0.75066  0.89599  0.79162  1.0000
  H   H3        1.0  0.74934  0.39599  0.29162  1.0000
  H   H4        1.0  0.24934  0.10401  0.20838  1.0000
  H   H5        1.0  0.44040  0.88284  0.23129  1.0000
  H   H6        1.0  0.94040  0.61716  0.26871  1.0000
  H   H7        1.0  0.55960  0.11716  0.76871  1.0000
  H   H8        1.0  0.05960  0.38284  0.73129  1.0000
  H   H9        1.0  0.32070  0.97110  0.42989  1.0000
  H   H10       1.0  0.82070  0.52890  0.07011  1.0000
  H   H11       1.0  0.67930  0.02890  0.57011  1.0000
  H   H12       1.0  0.17930  0.47110  0.92989  1.0000
  H   H13       1.0  0.26925  0.81909  0.41227  1.0000
  H   H14       1.0  0.76924  0.68091  0.08773  1.0000
  H   H15       1.0  0.73075  0.18091  0.58774  1.0000
  H   H16       1.0  0.23075  0.31909  0.91226  1.0000
  H   H17       1.0  0.04165  0.85106  0.22720  1.0000
  H   H18       1.0  0.54165  0.64894  0.27280  1.0000
  H   H19       1.0  0.95835  0.14894  0.77280  1.0000
  H   H20       1.0  0.45835  0.35106  0.72720  1.0000
  H   H21       1.0  0.12934  0.11608  0.40209  1.0000
  H   H22       1.0  0.62934  0.38392  0.09791  1.0000
  H   H23       1.0  0.87066  0.88392  0.59791  1.0000
  H   H24       1.0  0.37066  0.61608  0.90209  1.0000
  H   H25       1.0  0.07910  0.80204  0.51063  1.0000
  H   H26       1.0  0.57910  0.69796  0.98937  1.0000
  H   H27       1.0  0.92090  0.19796  0.48937  1.0000
  H   H28       1.0  0.42090  0.30204  0.01063  1.0000
  H   H29       1.0  0.35037  0.83843  0.00086  1.0000
  H   H30       1.0  0.85037  0.66157  0.49914  1.0000
  H   H31       1.0  0.64963  0.16157  0.99914  1.0000
  H   H32       1.0  0.14963  0.33843  0.50086  1.0000
  H   H33       1.0  0.29537  0.08507  0.73517  1.0000
  H   H34       1.0  0.79537  0.41493  0.76483  1.0000
  H   H35       1.0  0.70463  0.91493  0.26483  1.0000
  H   H36       1.0  0.20463  0.58507  0.23517  1.0000
  C   C1        1.0  0.25961  0.70056  0.71837  1.0000
  C   C2        1.0  0.75961  0.79944  0.78163  1.0000
  C   C3        1.0  0.74039  0.29944  0.28163  1.0000
  C   C4        1.0  0.24039  0.20056  0.21837  1.0000
  C   C5        1.0  0.34558  0.87086  0.19495  1.0000
  C   C6        1.0  0.84558  0.62914  0.30505  1.0000
  C   C7        1.0  0.65442  0.12914  0.80505  1.0000
  C   C8        1.0  0.15442  0.37086  0.69495  1.0000
  C   C9        1.0  0.11877  0.95384  0.45090  1.0000
  C   C10       1.0  0.61877  0.54616  0.04910  1.0000
  C   C11       1.0  0.88123  0.04616  0.54910  1.0000
  C   C12       1.0  0.38123  0.45384  0.95090  1.0000
  C   C13       1.0  0.24426  0.90370  0.39545  1.0000
  C   C14       1.0  0.74426  0.59630  0.10455  1.0000
  C   C15       1.0  0.75574  0.09630  0.60455  1.0000
  C   C16       1.0  0.25574  0.40370  0.89545  1.0000
  C   C17       1.0  0.13725  0.85316  0.19552  1.0000
  C   C18       1.0  0.63725  0.64684  0.30448  1.0000
  C   C19       1.0  0.86275  0.14684  0.80448  1.0000
  C   C20       1.0  0.36275  0.35316  0.69552  1.0000
  C   C21       1.0  0.22207  0.89622  0.77279  1.0000
  C   C22       1.0  0.72207  0.60378  0.72721  1.0000
  C   C23       1.0  0.77793  0.10378  0.22721  1.0000
  C   C24       1.0  0.27793  0.39622  0.27279  1.0000
  C   C25       1.0  0.16014  0.01490  0.83693  1.0000
  C   C26       1.0  0.66014  0.48509  0.66307  1.0000
  C   C27       1.0  0.83986  0.98510  0.16307  1.0000
  C   C28       1.0  0.33986  0.51490  0.33693  1.0000
  C   C29       1.0  0.07251  0.06492  0.44508  1.0000
  C   C30       1.0  0.57251  0.43508  0.05492  1.0000
  C   C31       1.0  0.92749  0.93508  0.55492  1.0000
  C   C32       1.0  0.42749  0.56492  0.94508  1.0000
  C   C33       1.0  0.04469  0.88929  0.50636  1.0000
  C   C34       1.0  0.54469  0.61071  0.99364  1.0000
  C   C35       1.0  0.95531  0.11071  0.49364  1.0000
  C   C36       1.0  0.45531  0.38929  0.00636  1.0000
  C   C37       1.0  0.29969  0.84708  0.08196  1.0000
  C   C38       1.0  0.79969  0.65292  0.41804  1.0000
  C   C39       1.0  0.70031  0.15292  0.91804  1.0000
  C   C40       1.0  0.20031  0.34708  0.58196  1.0000
  C   C41       1.0  0.40784  0.94522  0.65136  1.0000
  C   C42       1.0  0.90784  0.55478  0.84864  1.0000
  C   C43       1.0  0.59216  0.05478  0.34864  1.0000
  C   C44       1.0  0.09216  0.44522  0.15136  1.0000
  C   C45       1.0  0.32520  0.86801  0.69483  1.0000
  C   C46       1.0  0.82520  0.63199  0.80517  1.0000
  C   C47       1.0  0.67480  0.13199  0.30517  1.0000
  C   C48       1.0  0.17480  0.36801  0.19483  1.0000
  N   N1        1.0  0.18221  0.78933  0.78694  1.0000
  N   N2        1.0  0.68221  0.71067  0.71306  1.0000
  N   N3        1.0  0.81779  0.21067  0.21306  1.0000
  N   N4        1.0  0.31779  0.28933  0.28694  1.0000
  N   N5        1.0  0.16992  0.83609  0.08360  1.0000
  N   N6        1.0  0.66992  0.66391  0.41640  1.0000
  N   N7        1.0  0.83008  0.16391  0.91640  1.0000
  N   N8        1.0  0.33008  0.33608  0.58360  1.0000
  N   N9        1.0  0.24134  0.87562  0.26582  1.0000
  N   N10       1.0  0.74134  0.62438  0.23418  1.0000
  N   N11       1.0  0.75866  0.12438  0.73418  1.0000
  N   N12       1.0  0.25866  0.37562  0.76582  1.0000
  N   N13       1.0  0.34773  0.74391  0.66179  1.0000
  N   N14       1.0  0.84773  0.75609  0.83821  1.0000
  N   N15       1.0  0.65227  0.25609  0.33821  1.0000
  N   N16       1.0  0.15227  0.24391  0.16179  1.0000
  O   O1        1.0  0.19358  0.11099  0.81528  1.0000
  O   O2        1.0  0.69358  0.38901  0.68472  1.0000
  O   O3        1.0  0.80642  0.88901  0.18472  1.0000
  O   O4        1.0  0.30642  0.61099  0.31528  1.0000
  O   O5        1.0  0.07455  0.01448  0.91169  1.0000
  O   O6        1.0  0.57455  0.48552  0.58831  1.0000
  O   O7        1.0  0.92545  0.98552  0.08831  1.0000
  O   O8        1.0  0.42545  0.51448  0.41169  1.0000
  O   O9        1.0  0.37786  0.06239  0.67875  1.0000
  O   O10       1.0  0.87786  0.43761  0.82125  1.0000
  O   O11       1.0  0.62214  0.93761  0.32125  1.0000
  O   O12       1.0  0.12214  0.56239  0.17875  1.0000
  O   O13       1.0  0.50423  0.90142  0.59167  1.0000
  O   O14       1.0  0.00423  0.59858  0.90833  1.0000
  O   O15       1.0  0.49577  0.09858  0.40833  1.0000
  O   O16       1.0  0.99577  0.40142  0.09167  1.0000
