data_image0
_chemical_formula_structural       Zn4H24C16N16O16
_chemical_formula_sum              "Zn4 H24 C16 N16 O16"
_cell_length_a       6.34602
_cell_length_b       7.13728
_cell_length_c       18.5812
_cell_angle_alpha    90.0002
_cell_angle_beta     90.0001
_cell_angle_gamma    108.202

_space_group_name_H-M_alt    "P 1"
_space_group_IT_number       1

loop_
  _space_group_symop_operation_xyz
  'x, y, z'

loop_
  _atom_site_type_symbol
  _atom_site_label
  _atom_site_symmetry_multiplicity
  _atom_site_fract_x
  _atom_site_fract_y
  _atom_site_fract_z
  _atom_site_occupancy
  Zn  Zn1       1.0  0.51369  0.72910  0.29247  1.0000
  Zn  Zn2       1.0  0.98630  0.27090  0.79248  1.0000
  Zn  Zn3       1.0  0.48630  0.27091  0.70753  1.0000
  Zn  Zn4       1.0  0.01369  0.72908  0.20752  1.0000
  H   H1        1.0  0.82726  0.98539  0.24034  1.0000
  H   H2        1.0  0.67273  0.01461  0.74035  1.0000
  H   H3        1.0  0.17274  0.01461  0.75965  1.0000
  H   H4        1.0  0.32725  0.98539  0.25965  1.0000
  H   H5        1.0  0.90339  0.91061  0.35115  1.0000
  H   H6        1.0  0.59662  0.08940  0.85116  1.0000
  H   H7        1.0  0.09661  0.08939  0.64885  1.0000
  H   H8        1.0  0.40339  0.91061  0.14885  1.0000
  H   H9        1.0  0.03919  0.00035  0.43482  1.0000
  H   H10       1.0  0.46082  0.99965  0.93483  1.0000
  H   H11       1.0  0.96082  0.99965  0.56518  1.0000
  H   H12       1.0  0.53918  0.00034  0.06518  1.0000
  H   H13       1.0  0.52253  0.77632  0.60683  1.0000
  H   H14       1.0  0.97750  0.22368  0.10683  1.0000
  H   H15       1.0  0.47748  0.22368  0.39318  1.0000
  H   H16       1.0  0.02254  0.77632  0.89317  1.0000
  H   H17       1.0  0.17051  0.59694  0.54212  1.0000
  H   H18       1.0  0.32951  0.40308  0.04212  1.0000
  H   H19       1.0  0.82950  0.40307  0.45788  1.0000
  H   H20       1.0  0.67051  0.59693  0.95787  1.0000
  H   H21       1.0  0.18725  0.58959  0.40492  1.0000
  H   H22       1.0  0.31274  0.41043  0.90492  1.0000
  H   H23       1.0  0.81275  0.41042  0.59508  1.0000
  H   H24       1.0  0.68724  0.58957  0.09508  1.0000
  C   C1        1.0  0.51878  0.76614  0.54810  1.0000
  C   C2        1.0  0.98123  0.23388  0.04810  1.0000
  C   C3        1.0  0.48122  0.23388  0.45190  1.0000
  C   C4        1.0  0.01877  0.76611  0.95190  1.0000
  C   C5        1.0  0.32174  0.66623  0.51232  1.0000
  C   C6        1.0  0.17827  0.33377  0.01232  1.0000
  C   C7        1.0  0.67826  0.33376  0.48768  1.0000
  C   C8        1.0  0.82174  0.66623  0.98768  1.0000
  C   C9        1.0  0.33203  0.66202  0.43802  1.0000
  C   C10       1.0  0.16797  0.33798  0.93803  1.0000
  C   C11       1.0  0.66797  0.33798  0.56198  1.0000
  C   C12       1.0  0.83203  0.66202  0.06198  1.0000
  C   C13       1.0  0.70911  0.83999  0.44068  1.0000
  C   C14       1.0  0.79089  0.16001  0.94069  1.0000
  C   C15       1.0  0.29090  0.16001  0.55932  1.0000
  C   C16       1.0  0.20911  0.83998  0.05931  1.0000
  N   N1        1.0  0.52190  0.74734  0.40171  1.0000
  N   N2        1.0  0.97810  0.25268  0.90172  1.0000
  N   N3        1.0  0.47811  0.25268  0.59828  1.0000
  N   N4        1.0  0.02189  0.74732  0.09828  1.0000
  N   N5        1.0  0.70854  0.85261  0.51380  1.0000
  N   N6        1.0  0.79148  0.14738  0.01381  1.0000
  N   N7        1.0  0.29147  0.14738  0.48619  1.0000
  N   N8        1.0  0.20853  0.85261  0.98619  1.0000
  N   N9        1.0  0.89994  0.92022  0.40620  1.0000
  N   N10       1.0  0.60007  0.07978  0.90620  1.0000
  N   N11       1.0  0.10006  0.07978  0.59380  1.0000
  N   N12       1.0  0.39994  0.92021  0.09380  1.0000
  N   N13       1.0  0.32681  0.37284  0.21885  1.0000
  N   N14       1.0  0.17319  0.62716  0.71885  1.0000
  N   N15       1.0  0.67318  0.62716  0.78115  1.0000
  N   N16       1.0  0.82681  0.37284  0.28115  1.0000
  O   O1        1.0  0.81020  0.84840  0.25288  1.0000
  O   O2        1.0  0.68978  0.15160  0.75289  1.0000
  O   O3        1.0  0.18978  0.15160  0.74711  1.0000
  O   O4        1.0  0.31021  0.84840  0.24711  1.0000
  O   O5        1.0  0.37542  0.43235  0.28529  1.0000
  O   O6        1.0  0.12457  0.56766  0.78529  1.0000
  O   O7        1.0  0.62458  0.56766  0.71471  1.0000
  O   O8        1.0  0.87541  0.43233  0.21471  1.0000
  O   O9        1.0  0.22883  0.19399  0.20858  1.0000
  O   O10       1.0  0.27116  0.80602  0.70858  1.0000
  O   O11       1.0  0.77117  0.80602  0.79142  1.0000
  O   O12       1.0  0.72883  0.19399  0.29143  1.0000
  O   O13       1.0  0.37926  0.49711  0.16913  1.0000
  O   O14       1.0  0.12074  0.50290  0.66912  1.0000
  O   O15       1.0  0.62072  0.50290  0.83088  1.0000
  O   O16       1.0  0.87927  0.49711  0.33087  1.0000
