data_image0
_chemical_formula_structural       Cd2H24C30N6O14
_chemical_formula_sum              "Cd2 H24 C30 N6 O14"
_cell_length_a       8.18023
_cell_length_b       10.2602
_cell_length_c       11.3919
_cell_angle_alpha    69.816
_cell_angle_beta     69.6831
_cell_angle_gamma    68.4162

_space_group_name_H-M_alt    "P 1"
_space_group_IT_number       1

loop_
  _space_group_symop_operation_xyz
  'x, y, z'

loop_
  _atom_site_type_symbol
  _atom_site_label
  _atom_site_symmetry_multiplicity
  _atom_site_fract_x
  _atom_site_fract_y
  _atom_site_fract_z
  _atom_site_occupancy
  Cd  Cd1       1.0  0.15511  0.07996  0.06210  1.0000
  Cd  Cd2       1.0  0.84489  0.92004  0.93790  1.0000
  H   H1        1.0  0.46888  0.04908  0.13552  1.0000
  H   H2        1.0  0.53112  0.95092  0.86449  1.0000
  H   H3        1.0  0.40508  0.27565  0.61959  1.0000
  H   H4        1.0  0.59492  0.72434  0.38041  1.0000
  H   H5        1.0  0.40205  0.64688  0.22693  1.0000
  H   H6        1.0  0.59795  0.35312  0.77307  1.0000
  H   H7        1.0  0.43857  0.22165  0.21768  1.0000
  H   H8        1.0  0.56144  0.77835  0.78232  1.0000
  H   H9        1.0  0.86317  0.42181  0.97307  1.0000
  H   H10       1.0  0.13683  0.57819  0.02693  1.0000
  H   H11       1.0  0.90078  0.23817  0.53626  1.0000
  H   H12       1.0  0.09922  0.76183  0.46374  1.0000
  H   H13       1.0  0.72943  0.14920  0.63098  1.0000
  H   H14       1.0  0.27057  0.85079  0.36902  1.0000
  H   H15       1.0  0.00571  0.25130  0.28531  1.0000
  H   H16       1.0  0.99429  0.74870  0.71469  1.0000
  H   H17       1.0  0.66726  0.98697  0.53876  1.0000
  H   H18       1.0  0.33274  0.01303  0.46123  1.0000
  H   H19       1.0  0.82776  0.48819  0.41337  1.0000
  H   H20       1.0  0.17223  0.51180  0.58663  1.0000
  H   H21       1.0  0.83080  0.90296  0.30622  1.0000
  H   H22       1.0  0.16919  0.09705  0.69378  1.0000
  H   H23       1.0  0.47094  0.89286  0.15825  1.0000
  H   H24       1.0  0.52906  0.10714  0.84175  1.0000
  C   C1        1.0  0.44723  0.37366  0.56569  1.0000
  C   C2        1.0  0.55276  0.62634  0.43431  1.0000
  C   C3        1.0  0.66407  0.30641  0.08976  1.0000
  C   C4        1.0  0.33593  0.69359  0.91024  1.0000
  C   C5        1.0  0.72204  0.67212  0.04442  1.0000
  C   C6        1.0  0.27797  0.32788  0.95558  1.0000
  C   C7        1.0  0.47849  0.55140  0.18998  1.0000
  C   C8        1.0  0.52151  0.44860  0.81002  1.0000
  C   C9        1.0  0.64504  0.54552  0.09792  1.0000
  C   C10       1.0  0.35497  0.45448  0.90208  1.0000
  C   C11       1.0  0.49963  0.31003  0.18407  1.0000
  C   C12       1.0  0.50037  0.68998  0.81593  1.0000
  C   C13       1.0  0.73626  0.42367  0.04768  1.0000
  C   C14       1.0  0.26374  0.57633  0.95232  1.0000
  C   C15       1.0  0.40903  0.43326  0.23107  1.0000
  C   C16       1.0  0.59097  0.56675  0.76893  1.0000
  C   C17       1.0  0.77504  0.22153  0.53766  1.0000
  C   C18       1.0  0.22495  0.77847  0.46234  1.0000
  C   C19       1.0  0.93603  0.16822  0.32071  1.0000
  C   C20       1.0  0.06397  0.83178  0.67929  1.0000
  C   C21       1.0  0.75798  0.18273  0.02682  1.0000
  C   C22       1.0  0.24202  0.81727  0.97318  1.0000
  C   C23       1.0  0.63229  0.36533  0.51647  1.0000
  C   C24       1.0  0.36771  0.63467  0.48353  1.0000
  C   C25       1.0  0.75838  0.02971  0.45049  1.0000
  C   C26       1.0  0.24162  0.97029  0.54951  1.0000
  C   C27       1.0  0.68405  0.49288  0.45058  1.0000
  C   C28       1.0  0.31595  0.50711  0.54942  1.0000
  C   C29       1.0  0.84061  0.98908  0.33569  1.0000
  C   C30       1.0  0.15939  0.01092  0.66431  1.0000
  N   N1        1.0  0.22779  0.44222  0.31980  1.0000
  N   N2        1.0  0.77221  0.55778  0.68020  1.0000
  N   N3        1.0  0.95112  0.07636  0.25590  1.0000
  N   N4        1.0  0.04889  0.92364  0.74410  1.0000
  N   N5        1.0  0.82092  0.14287  0.43907  1.0000
  N   N6        1.0  0.17908  0.85713  0.56093  1.0000
  O   O1        1.0  0.91831  0.16980  0.95542  1.0000
  O   O2        1.0  0.08169  0.83020  0.04458  1.0000
  O   O3        1.0  0.38608  0.98627  0.17698  1.0000
  O   O4        1.0  0.61392  0.01374  0.82302  1.0000
  O   O5        1.0  0.83999  0.67981  0.93689  1.0000
  O   O6        1.0  0.16002  0.32019  0.06311  1.0000
  O   O7        1.0  0.66531  0.76874  0.10785  1.0000
  O   O8        1.0  0.33469  0.23126  0.89215  1.0000
  O   O9        1.0  0.66771  0.09492  0.04599  1.0000
  O   O10       1.0  0.33229  0.90508  0.95401  1.0000
  O   O11       1.0  0.12562  0.56383  0.33053  1.0000
  O   O12       1.0  0.87438  0.43617  0.66947  1.0000
  O   O13       1.0  0.18557  0.32720  0.37765  1.0000
  O   O14       1.0  0.81443  0.67280  0.62235  1.0000
