data_image0
_chemical_formula_structural       Cd2B2H42C38N18O8
_chemical_formula_sum              "Cd2 B2 H42 C38 N18 O8"
_cell_length_a       8.46124
_cell_length_b       8.86254
_cell_length_c       16.904
_cell_angle_alpha    82.2587
_cell_angle_beta     89.5871
_cell_angle_gamma    78.4221

_space_group_name_H-M_alt    "P 1"
_space_group_IT_number       1

loop_
  _space_group_symop_operation_xyz
  'x, y, z'

loop_
  _atom_site_type_symbol
  _atom_site_label
  _atom_site_symmetry_multiplicity
  _atom_site_fract_x
  _atom_site_fract_y
  _atom_site_fract_z
  _atom_site_occupancy
  Cd  Cd1       1.0  0.75408  0.32386  0.21124  1.0000
  Cd  Cd2       1.0  0.24592  0.67614  0.78876  1.0000
  B   B1        1.0  0.17258  0.76880  0.12361  1.0000
  B   B2        1.0  0.82742  0.23120  0.87639  1.0000
  H   H1        1.0  0.04802  0.51890  0.21626  1.0000
  H   H2        1.0  0.95198  0.48110  0.78374  1.0000
  H   H3        1.0  0.19853  0.70418  0.29756  1.0000
  H   H4        1.0  0.80147  0.29582  0.70244  1.0000
  H   H5        1.0  0.14947  0.61139  0.98655  1.0000
  H   H6        1.0  0.85053  0.38861  0.01345  1.0000
  H   H7        1.0  0.36813  0.94847  0.19869  1.0000
  H   H8        1.0  0.63187  0.05154  0.80131  1.0000
  H   H9        1.0  0.89587  0.85109  0.01303  1.0000
  H   H10       1.0  0.10413  0.14891  0.98697  1.0000
  H   H11       1.0  0.45359  0.46334  0.35191  1.0000
  H   H12       1.0  0.54641  0.53666  0.64809  1.0000
  H   H13       1.0  0.45466  0.53546  0.10087  1.0000
  H   H14       1.0  0.54534  0.46455  0.89913  1.0000
  H   H15       1.0  0.39928  0.94799  0.04766  1.0000
  H   H16       1.0  0.60072  0.05201  0.95234  1.0000
  H   H17       1.0  0.19289  0.22932  0.23583  1.0000
  H   H18       1.0  0.80711  0.77068  0.76417  1.0000
  H   H19       1.0  0.87771  0.99745  0.13170  1.0000
  H   H20       1.0  0.12229  0.00255  0.86830  1.0000
  H   H21       1.0  0.49426  0.86786  0.89750  1.0000
  H   H22       1.0  0.50574  0.13214  0.10250  1.0000
  H   H23       1.0  0.67166  0.66443  0.04471  1.0000
  H   H24       1.0  0.32834  0.33557  0.95529  1.0000
  H   H25       1.0  0.67268  0.38279  0.48318  1.0000
  H   H26       1.0  0.32732  0.61721  0.51682  1.0000
  H   H27       1.0  0.86507  0.55722  0.62666  1.0000
  H   H28       1.0  0.13494  0.44277  0.37334  1.0000
  H   H29       1.0  0.54437  0.11732  0.35195  1.0000
  H   H30       1.0  0.45563  0.88268  0.64805  1.0000
  H   H31       1.0  0.82031  0.71460  0.32475  1.0000
  H   H32       1.0  0.17969  0.28540  0.67525  1.0000
  H   H33       1.0  0.63349  0.66969  0.29817  1.0000
  H   H34       1.0  0.36650  0.33031  0.70183  1.0000
  H   H35       1.0  0.71535  0.81315  0.23506  1.0000
  H   H36       1.0  0.28464  0.18685  0.76494  1.0000
  H   H37       1.0  0.47254  0.93863  0.43887  1.0000
  H   H38       1.0  0.52746  0.06136  0.56113  1.0000
  H   H39       1.0  0.46210  0.75643  0.40749  1.0000
  H   H40       1.0  0.53790  0.24357  0.59251  1.0000
  H   H41       1.0  0.63780  0.77581  0.45963  1.0000
  H   H42       1.0  0.36220  0.22419  0.54037  1.0000
  C   C1        1.0  0.97676  0.58210  0.16480  1.0000
  C   C2        1.0  0.02324  0.41790  0.83520  1.0000
  C   C3        1.0  0.28873  0.63326  0.26503  1.0000
  C   C4        1.0  0.71127  0.36673  0.73497  1.0000
  C   C5        1.0  0.23246  0.69054  0.98241  1.0000
  C   C6        1.0  0.76754  0.30947  0.01759  1.0000
  C   C7        1.0  0.24193  0.00230  0.18826  1.0000
  C   C8        1.0  0.75807  0.99770  0.81174  1.0000
  C   C9        1.0  0.89376  0.75538  0.05997  1.0000
  C   C10       1.0  0.10624  0.24463  0.94003  1.0000
  C   C11       1.0  0.41461  0.51306  0.29143  1.0000
  C   C12       1.0  0.58539  0.48694  0.70857  1.0000
  C   C13       1.0  0.42023  0.54808  0.16183  1.0000
  C   C14       1.0  0.57977  0.45192  0.83817  1.0000
  C   C15       1.0  0.36279  0.86670  0.01267  1.0000
  C   C16       1.0  0.63722  0.13330  0.98733  1.0000
  C   C17       1.0  0.15373  0.14093  0.20669  1.0000
  C   C18       1.0  0.84627  0.85907  0.79331  1.0000
  C   C19       1.0  0.98749  0.02507  0.15318  1.0000
  C   C20       1.0  0.01251  0.97493  0.84682  1.0000
  C   C21       1.0  0.40997  0.82525  0.93914  1.0000
  C   C22       1.0  0.59003  0.17475  0.06086  1.0000
  C   C23       1.0  0.78379  0.66082  0.07623  1.0000
  C   C24       1.0  0.21621  0.33919  0.92377  1.0000
  C   C25       1.0  0.84072  0.36889  0.38252  1.0000
  C   C26       1.0  0.15928  0.63111  0.61748  1.0000
  C   C27       1.0  0.92451  0.43274  0.44394  1.0000
  C   C28       1.0  0.07550  0.56726  0.55606  1.0000
  C   C29       1.0  0.92337  0.53152  0.57106  1.0000
  C   C30       1.0  0.07663  0.46847  0.42894  1.0000
  C   C31       1.0  0.84647  0.46414  0.51629  1.0000
  C   C32       1.0  0.15354  0.53586  0.48371  1.0000
  C   C33       1.0  0.60619  0.03500  0.31258  1.0000
  C   C34       1.0  0.39380  0.96500  0.68742  1.0000
  C   C35       1.0  0.70069  0.76354  0.29688  1.0000
  C   C36       1.0  0.29931  0.23647  0.70312  1.0000
  C   C37       1.0  0.54267  0.83622  0.41585  1.0000
  C   C38       1.0  0.45733  0.16378  0.58415  1.0000
  N   N1        1.0  0.49635  0.46138  0.22597  1.0000
  N   N2        1.0  0.50365  0.53862  0.77403  1.0000
  N   N3        1.0  0.13462  0.92835  0.15421  1.0000
  N   N4        1.0  0.86538  0.07165  0.84579  1.0000
  N   N5        1.0  0.01727  0.70439  0.11685  1.0000
  N   N6        1.0  0.98273  0.29561  0.88315  1.0000
  N   N7        1.0  0.99459  0.15370  0.18416  1.0000
  N   N8        1.0  0.00541  0.84630  0.81584  1.0000
  N   N9        1.0  0.24841  0.78092  0.03984  1.0000
  N   N10       1.0  0.75159  0.21909  0.96016  1.0000
  N   N11       1.0  0.83731  0.55239  0.14203  1.0000
  N   N12       1.0  0.16269  0.44761  0.85797  1.0000
  N   N13       1.0  0.32739  0.71453  0.92088  1.0000
  N   N14       1.0  0.67261  0.28547  0.07912  1.0000
  N   N15       1.0  0.29336  0.65531  0.18222  1.0000
  N   N16       1.0  0.70664  0.34469  0.81778  1.0000
  N   N17       1.0  0.61268  0.88478  0.34006  1.0000
  N   N18       1.0  0.38732  0.11522  0.65994  1.0000
  O   O1        1.0  0.70682  0.32778  0.40039  1.0000
  O   O2        1.0  0.29318  0.67222  0.59961  1.0000
  O   O3        1.0  0.69846  0.43130  0.53228  1.0000
  O   O4        1.0  0.30154  0.56870  0.46771  1.0000
  O   O5        1.0  0.90551  0.36323  0.31419  1.0000
  O   O6        1.0  0.09449  0.63677  0.68581  1.0000
  O   O7        1.0  0.66500  0.08063  0.24764  1.0000
  O   O8        1.0  0.33499  0.91937  0.75236  1.0000
