data_image0
_chemical_formula_structural       NiAg2H16C12O10
_chemical_formula_sum              "Ni1 Ag2 H16 C12 O10"
_cell_length_a       6.52624
_cell_length_b       7.03169
_cell_length_c       8.83988
_cell_angle_alpha    92.984
_cell_angle_beta     102.146
_cell_angle_gamma    105.088

_space_group_name_H-M_alt    "P 1"
_space_group_IT_number       1

loop_
  _space_group_symop_operation_xyz
  'x, y, z'

loop_
  _atom_site_type_symbol
  _atom_site_label
  _atom_site_symmetry_multiplicity
  _atom_site_fract_x
  _atom_site_fract_y
  _atom_site_fract_z
  _atom_site_occupancy
  Ni  Ni1       1.0  0.50000  0.50000  0.50000  1.0000
  Ag  Ag1       1.0  0.98745  0.82405  0.56913  1.0000
  Ag  Ag2       1.0  0.01255  0.17594  0.43087  1.0000
  H   H1        1.0  0.73724  0.49245  0.29653  1.0000
  H   H2        1.0  0.26276  0.50755  0.70347  1.0000
  H   H3        1.0  0.60166  0.27082  0.30668  1.0000
  H   H4        1.0  0.39834  0.72918  0.69332  1.0000
  H   H5        1.0  0.69091  0.47437  0.92569  1.0000
  H   H6        1.0  0.30909  0.52563  0.07431  1.0000
  H   H7        1.0  0.48678  0.25254  0.93126  1.0000
  H   H8        1.0  0.51322  0.74746  0.06873  1.0000
  H   H9        1.0  0.77692  0.14381  0.10650  1.0000
  H   H10       1.0  0.22308  0.85619  0.89350  1.0000
  H   H11       1.0  0.98304  0.30872  0.03436  1.0000
  H   H12       1.0  0.01696  0.69128  0.96564  1.0000
  H   H13       1.0  0.65143  0.92795  0.85550  1.0000
  H   H14       1.0  0.34857  0.07205  0.14450  1.0000
  H   H15       1.0  0.91676  0.03597  0.82230  1.0000
  H   H16       1.0  0.08324  0.96403  0.17770  1.0000
  C   C1        1.0  0.84787  0.36077  0.69437  1.0000
  C   C2        1.0  0.15212  0.63923  0.30563  1.0000
  C   C3        1.0  0.67489  0.21106  0.75575  1.0000
  C   C4        1.0  0.32511  0.78894  0.24425  1.0000
  C   C5        1.0  0.45232  0.12307  0.64592  1.0000
  C   C6        1.0  0.54768  0.87693  0.35408  1.0000
  C   C7        1.0  0.65218  0.31246  0.91429  1.0000
  C   C8        1.0  0.34782  0.68754  0.08571  1.0000
  C   C9        1.0  0.81620  0.21061  0.00339  1.0000
  C   C10       1.0  0.18380  0.78939  0.99661  1.0000
  C   C11       1.0  0.77474  0.06693  0.85483  1.0000
  C   C12       1.0  0.22526  0.93308  0.14517  1.0000
  O   O1        1.0  0.79627  0.50646  0.62926  1.0000
  O   O2        1.0  0.20373  0.49355  0.37074  1.0000
  O   O3        1.0  0.03839  0.34082  0.71946  1.0000
  O   O4        1.0  0.96162  0.65918  0.28054  1.0000
  O   O5        1.0  0.37660  0.21795  0.53796  1.0000
  O   O6        1.0  0.62340  0.78206  0.46204  1.0000
  O   O7        1.0  0.33948  0.95662  0.67236  1.0000
  O   O8        1.0  0.66053  0.04339  0.32764  1.0000
  O   O9        1.0  0.58945  0.40754  0.30195  1.0000
  O   O10       1.0  0.41055  0.59246  0.69805  1.0000
