data_image0
_chemical_formula_structural       Cd6H40C40O38
_chemical_formula_sum              "Cd6 H40 C40 O38"
_cell_length_a       6.63124
_cell_length_b       11.6278
_cell_length_c       17.4396
_cell_angle_alpha    90
_cell_angle_beta     98.9704
_cell_angle_gamma    90

_space_group_name_H-M_alt    "P 1"
_space_group_IT_number       1

loop_
  _space_group_symop_operation_xyz
  'x, y, z'

loop_
  _atom_site_type_symbol
  _atom_site_label
  _atom_site_symmetry_multiplicity
  _atom_site_fract_x
  _atom_site_fract_y
  _atom_site_fract_z
  _atom_site_occupancy
  Cd  Cd1       1.0  0.25002  0.83077  0.25000  1.0000
  Cd  Cd2       1.0  0.75000  0.16923  0.75000  1.0000
  Cd  Cd3       1.0  0.80896  0.34689  0.52861  1.0000
  Cd  Cd4       1.0  0.69102  0.34689  0.97139  1.0000
  Cd  Cd5       1.0  0.19102  0.65311  0.47139  1.0000
  Cd  Cd6       1.0  0.30895  0.65311  0.02861  1.0000
  H   H1        1.0  0.52755  0.45593  0.26186  1.0000
  H   H2        1.0  0.97246  0.45595  0.23813  1.0000
  H   H3        1.0  0.47246  0.54406  0.73814  1.0000
  H   H4        1.0  0.02754  0.54407  0.76186  1.0000
  H   H5        1.0  0.37849  0.20310  0.08175  1.0000
  H   H6        1.0  0.12148  0.20312  0.41825  1.0000
  H   H7        1.0  0.62149  0.79689  0.91825  1.0000
  H   H8        1.0  0.87850  0.79689  0.58175  1.0000
  H   H9        1.0  0.52870  0.09752  0.32133  1.0000
  H   H10       1.0  0.97130  0.09754  0.17866  1.0000
  H   H11       1.0  0.47131  0.90247  0.67866  1.0000
  H   H12       1.0  0.02869  0.90248  0.82133  1.0000
  H   H13       1.0  0.68846  0.99281  0.13547  1.0000
  H   H14       1.0  0.81155  0.99282  0.36453  1.0000
  H   H15       1.0  0.31153  0.00718  0.86453  1.0000
  H   H16       1.0  0.18846  0.00718  0.63546  1.0000
  H   H17       1.0  0.47930  0.04035  0.06622  1.0000
  H   H18       1.0  0.02072  0.04036  0.43378  1.0000
  H   H19       1.0  0.52070  0.95964  0.93378  1.0000
  H   H20       1.0  0.97928  0.95965  0.56621  1.0000
  H   H21       1.0  0.30235  0.58655  0.21015  1.0000
  H   H22       1.0  0.19783  0.58654  0.28986  1.0000
  H   H23       1.0  0.69775  0.41345  0.78986  1.0000
  H   H24       1.0  0.80227  0.41346  0.71015  1.0000
  H   H25       1.0  0.96374  0.88023  0.12058  1.0000
  H   H26       1.0  0.53628  0.88025  0.37946  1.0000
  H   H27       1.0  0.03627  0.11976  0.87945  1.0000
  H   H28       1.0  0.46373  0.11976  0.62056  1.0000
  H   H29       1.0  0.93976  0.75095  0.13636  1.0000
  H   H30       1.0  0.56024  0.75098  0.36366  1.0000
  H   H31       1.0  0.06024  0.24904  0.86365  1.0000
  H   H32       1.0  0.43976  0.24904  0.63635  1.0000
  H   H33       1.0  0.34058  0.36124  0.53174  1.0000
  H   H34       1.0  0.15942  0.36124  0.96826  1.0000
  H   H35       1.0  0.65940  0.63876  0.46827  1.0000
  H   H36       1.0  0.84058  0.63876  0.03175  1.0000
  H   H37       1.0  0.44417  0.44161  0.59641  1.0000
  H   H38       1.0  0.05582  0.44162  0.90358  1.0000
  H   H39       1.0  0.55581  0.55840  0.40358  1.0000
  H   H40       1.0  0.94416  0.55837  0.09641  1.0000
  C   C1        1.0  0.53212  0.27992  0.29995  1.0000
  C   C2        1.0  0.96788  0.27993  0.20004  1.0000
  C   C3        1.0  0.46788  0.72007  0.70005  1.0000
  C   C4        1.0  0.03212  0.72008  0.79995  1.0000
  C   C5        1.0  0.50319  0.36672  0.24407  1.0000
  C   C6        1.0  0.99681  0.36674  0.25592  1.0000
  C   C7        1.0  0.49681  0.63327  0.75593  1.0000
  C   C8        1.0  0.00318  0.63328  0.74407  1.0000
  C   C9        1.0  0.44685  0.33824  0.16577  1.0000
  C   C10       1.0  0.05314  0.33825  0.33422  1.0000
  C   C11       1.0  0.55315  0.66175  0.83422  1.0000
  C   C12       1.0  0.94684  0.66175  0.66577  1.0000
  C   C13       1.0  0.42285  0.22302  0.14299  1.0000
  C   C14       1.0  0.07713  0.22303  0.35701  1.0000
  C   C15       1.0  0.57714  0.77697  0.85701  1.0000
  C   C16       1.0  0.92285  0.77698  0.64299  1.0000
  C   C17       1.0  0.45251  0.13710  0.19946  1.0000
  C   C18       1.0  0.04747  0.13712  0.30054  1.0000
  C   C19       1.0  0.54748  0.86289  0.80054  1.0000
  C   C20       1.0  0.95252  0.86290  0.69946  1.0000
  C   C21       1.0  0.50674  0.16477  0.27745  1.0000
  C   C22       1.0  0.99326  0.16479  0.22255  1.0000
  C   C23       1.0  0.49326  0.83521  0.72255  1.0000
  C   C24       1.0  0.00674  0.83522  0.77744  1.0000
  C   C25       1.0  0.60047  0.30765  0.38347  1.0000
  C   C26       1.0  0.89954  0.30767  0.11652  1.0000
  C   C27       1.0  0.39954  0.69233  0.61653  1.0000
  C   C28       1.0  0.10046  0.69235  0.88347  1.0000
  C   C29       1.0  0.40511  0.42985  0.10557  1.0000
  C   C30       1.0  0.09488  0.42986  0.39442  1.0000
  C   C31       1.0  0.59489  0.57014  0.89443  1.0000
  C   C32       1.0  0.90510  0.57014  0.60558  1.0000
  C   C33       1.0  0.52248  0.98571  0.11768  1.0000
  C   C34       1.0  0.97752  0.98573  0.38232  1.0000
  C   C35       1.0  0.47751  0.01428  0.88232  1.0000
  C   C36       1.0  0.02249  0.01428  0.61767  1.0000
  C   C37       1.0  0.47026  0.86328  0.09494  1.0000
  C   C38       1.0  0.02972  0.86329  0.40506  1.0000
  C   C39       1.0  0.52971  0.13671  0.90506  1.0000
  C   C40       1.0  0.97028  0.13672  0.59494  1.0000
  O   O1        1.0  0.63584  0.41277  0.40370  1.0000
  O   O2        1.0  0.86415  0.41278  0.09629  1.0000
  O   O3        1.0  0.36416  0.58722  0.59630  1.0000
  O   O4        1.0  0.13585  0.58724  0.90370  1.0000
  O   O5        1.0  0.25012  0.63409  0.25002  1.0000
  O   O6        1.0  0.75003  0.36591  0.75001  1.0000
  O   O7        1.0  0.63205  0.22562  0.43228  1.0000
  O   O8        1.0  0.86796  0.22564  0.06772  1.0000
  O   O9        1.0  0.36795  0.77436  0.56772  1.0000
  O   O10       1.0  0.13203  0.77438  0.93228  1.0000
  O   O11       1.0  0.94364  0.82849  0.16273  1.0000
  O   O12       1.0  0.55636  0.82852  0.33730  1.0000
  O   O13       1.0  0.05635  0.17150  0.83729  1.0000
  O   O14       1.0  0.44365  0.17150  0.66272  1.0000
  O   O15       1.0  0.38355  0.40448  0.03402  1.0000
  O   O16       1.0  0.11644  0.40449  0.46598  1.0000
  O   O17       1.0  0.61645  0.59551  0.96598  1.0000
  O   O18       1.0  0.88355  0.59551  0.53402  1.0000
  O   O19       1.0  0.45625  0.36289  0.57535  1.0000
  O   O20       1.0  0.04375  0.36290  0.92464  1.0000
  O   O21       1.0  0.54373  0.63711  0.42465  1.0000
  O   O22       1.0  0.95626  0.63710  0.07536  1.0000
  O   O23       1.0  0.38860  0.53379  0.12942  1.0000
  O   O24       1.0  0.11140  0.53380  0.37058  1.0000
  O   O25       1.0  0.61141  0.46620  0.87058  1.0000
  O   O26       1.0  0.88859  0.46621  0.62942  1.0000
  O   O27       1.0  0.42134  0.02150  0.18098  1.0000
  O   O28       1.0  0.07865  0.02152  0.31902  1.0000
  O   O29       1.0  0.57864  0.97848  0.81902  1.0000
  O   O30       1.0  0.92135  0.97849  0.68097  1.0000
  O   O31       1.0  0.35372  0.80396  0.13211  1.0000
  O   O32       1.0  0.14625  0.80396  0.36789  1.0000
  O   O33       1.0  0.64623  0.19605  0.86789  1.0000
  O   O34       1.0  0.85376  0.19605  0.63210  1.0000
  O   O35       1.0  0.53894  0.82404  0.03702  1.0000
  O   O36       1.0  0.96105  0.82405  0.46298  1.0000
  O   O37       1.0  0.46104  0.17594  0.96298  1.0000
  O   O38       1.0  0.03897  0.17596  0.53702  1.0000
