data_image0
_chemical_formula_structural       Mn2H50C64N6O8
_chemical_formula_sum              "Mn2 H50 C64 N6 O8"
_cell_length_a       9.23777
_cell_length_b       11.8854
_cell_length_c       13.158
_cell_angle_alpha    70.6921
_cell_angle_beta     85.3513
_cell_angle_gamma    80.3562

_space_group_name_H-M_alt    "P 1"
_space_group_IT_number       1

loop_
  _space_group_symop_operation_xyz
  'x, y, z'

loop_
  _atom_site_type_symbol
  _atom_site_label
  _atom_site_symmetry_multiplicity
  _atom_site_fract_x
  _atom_site_fract_y
  _atom_site_fract_z
  _atom_site_occupancy
  Mn  Mn1       1.0  0.33302  0.93470  0.10358  1.0000
  Mn  Mn2       1.0  0.66698  0.06530  0.89641  1.0000
  H   H1        1.0  0.22640  0.81293  0.47915  1.0000
  H   H2        1.0  0.77360  0.18706  0.52085  1.0000
  H   H3        1.0  0.08943  0.71150  0.64702  1.0000
  H   H4        1.0  0.91057  0.28849  0.35298  1.0000
  H   H5        1.0  0.87736  0.61015  0.63460  1.0000
  H   H6        1.0  0.12264  0.38985  0.36540  1.0000
  H   H7        1.0  0.80497  0.61176  0.45716  1.0000
  H   H8        1.0  0.19502  0.38824  0.54283  1.0000
  H   H9        1.0  0.94537  0.71560  0.28928  1.0000
  H   H10       1.0  0.05463  0.28440  0.71072  1.0000
  H   H11       1.0  0.28062  0.13808  0.20246  1.0000
  H   H12       1.0  0.71938  0.86192  0.79754  1.0000
  H   H13       1.0  0.10181  0.31848  0.20182  1.0000
  H   H14       1.0  0.89819  0.68152  0.79818  1.0000
  H   H15       1.0  0.88883  0.26959  0.94011  1.0000
  H   H16       1.0  0.11117  0.73041  0.05990  1.0000
  H   H17       1.0  0.07951  0.09555  0.94998  1.0000
  H   H18       1.0  0.92049  0.90445  0.05002  1.0000
  H   H19       1.0  0.78541  0.43604  0.99975  1.0000
  H   H20       1.0  0.21460  0.56396  0.00025  1.0000
  H   H21       1.0  0.91169  0.45330  0.20288  1.0000
  H   H22       1.0  0.08831  0.54670  0.79712  1.0000
  H   H23       1.0  0.77835  0.60096  0.27595  1.0000
  H   H24       1.0  0.22165  0.39904  0.72405  1.0000
  H   H25       1.0  0.57953  0.77574  0.26113  1.0000
  H   H26       1.0  0.42048  0.22426  0.73887  1.0000
  H   H27       1.0  0.42538  0.74732  0.98531  1.0000
  H   H28       1.0  0.57462  0.25268  0.01469  1.0000
  H   H29       1.0  0.62090  0.57990  0.98204  1.0000
  H   H30       1.0  0.37910  0.42010  0.01797  1.0000
  H   H31       1.0  0.89209  0.07774  0.18034  1.0000
  H   H32       1.0  0.10792  0.92225  0.81966  1.0000
  H   H33       1.0  0.49607  0.94354  0.32857  1.0000
  H   H34       1.0  0.50393  0.05646  0.67144  1.0000
  H   H35       1.0  0.59247  0.90891  0.51031  1.0000
  H   H36       1.0  0.40753  0.09110  0.48969  1.0000
  H   H37       1.0  0.83344  0.96649  0.52624  1.0000
  H   H38       1.0  0.16656  0.03351  0.47376  1.0000
  H   H39       1.0  0.98382  0.05270  0.36071  1.0000
  H   H40       1.0  0.01619  0.94729  0.63929  1.0000
  H   H41       1.0  0.48848  0.24757  0.24057  1.0000
  H   H42       1.0  0.51151  0.75243  0.75943  1.0000
  H   H43       1.0  0.58107  0.26093  0.40747  1.0000
  H   H44       1.0  0.41893  0.73907  0.59253  1.0000
  H   H45       1.0  0.31479  0.61220  0.33861  1.0000
  H   H46       1.0  0.68520  0.38780  0.66138  1.0000
  H   H47       1.0  0.23460  0.58491  0.17644  1.0000
  H   H48       1.0  0.76538  0.41508  0.82356  1.0000
  H   H49       1.0  0.58060  0.36898  0.53496  1.0000
  H   H50       1.0  0.41940  0.63102  0.46503  1.0000
  C   C1        1.0  0.17998  0.82852  0.27639  1.0000
  C   C2        1.0  0.82002  0.17148  0.72360  1.0000
  C   C3        1.0  0.09516  0.76768  0.37549  1.0000
  C   C4        1.0  0.90485  0.23232  0.62452  1.0000
  C   C5        1.0  0.13532  0.76667  0.47616  1.0000
  C   C6        1.0  0.86468  0.23332  0.52385  1.0000
  C   C7        1.0  0.05769  0.71028  0.56933  1.0000
  C   C8        1.0  0.94231  0.28972  0.43067  1.0000
  C   C9        1.0  0.93902  0.65437  0.56223  1.0000
  C   C10       1.0  0.06098  0.34563  0.43777  1.0000
  C   C11       1.0  0.89800  0.65542  0.46185  1.0000
  C   C12       1.0  0.10200  0.34458  0.53816  1.0000
  C   C13       1.0  0.97569  0.71202  0.36874  1.0000
  C   C14       1.0  0.02431  0.28798  0.63126  1.0000
  C   C15       1.0  0.19110  0.17128  0.14597  1.0000
  C   C16       1.0  0.80890  0.82873  0.85403  1.0000
  C   C17       1.0  0.08933  0.27116  0.14574  1.0000
  C   C18       1.0  0.91067  0.72884  0.85426  1.0000
  C   C19       1.0  0.97518  0.31086  0.07140  1.0000
  C   C20       1.0  0.02482  0.68914  0.92860  1.0000
  C   C21       1.0  0.97369  0.24607  0.99952  1.0000
  C   C22       1.0  0.02631  0.75393  0.00048  1.0000
  C   C23       1.0  0.08008  0.14703  0.00477  1.0000
  C   C24       1.0  0.91992  0.85297  0.99523  1.0000
  C   C25       1.0  0.86019  0.41193  0.06640  1.0000
  C   C26       1.0  0.13982  0.58807  0.93360  1.0000
  C   C27       1.0  0.83792  0.47575  0.13589  1.0000
  C   C28       1.0  0.16208  0.52425  0.86411  1.0000
  C   C29       1.0  0.71923  0.57461  0.12998  1.0000
  C   C30       1.0  0.28077  0.42539  0.87002  1.0000
  C   C31       1.0  0.70351  0.63216  0.20895  1.0000
  C   C32       1.0  0.29649  0.36784  0.79105  1.0000
  C   C33       1.0  0.59233  0.72865  0.20174  1.0000
  C   C34       1.0  0.40767  0.27136  0.79826  1.0000
  C   C35       1.0  0.50702  0.71278  0.04775  1.0000
  C   C36       1.0  0.49298  0.28722  0.95225  1.0000
  C   C37       1.0  0.61571  0.61730  0.04783  1.0000
  C   C38       1.0  0.38429  0.38270  0.95217  1.0000
  C   C39       1.0  0.68873  0.01326  0.24341  1.0000
  C   C40       1.0  0.31127  0.98673  0.75659  1.0000
  C   C41       1.0  0.63295  0.03151  0.13439  1.0000
  C   C42       1.0  0.36705  0.96849  0.86561  1.0000
  C   C43       1.0  0.82631  0.04321  0.25308  1.0000
  C   C44       1.0  0.17369  0.95678  0.74692  1.0000
  C   C45       1.0  0.60337  0.96628  0.33655  1.0000
  C   C46       1.0  0.39663  0.03372  0.66346  1.0000
  C   C47       1.0  0.65694  0.94800  0.43783  1.0000
  C   C48       1.0  0.34306  0.05200  0.56217  1.0000
  C   C49       1.0  0.79297  0.98004  0.44688  1.0000
  C   C50       1.0  0.20703  0.01996  0.55313  1.0000
  C   C51       1.0  0.87714  0.02832  0.35426  1.0000
  C   C52       1.0  0.12286  0.97167  0.64574  1.0000
  C   C53       1.0  0.45225  0.32787  0.26452  1.0000
  C   C54       1.0  0.54775  0.67213  0.73548  1.0000
  C   C55       1.0  0.50423  0.33529  0.35833  1.0000
  C   C56       1.0  0.49577  0.66472  0.64166  1.0000
  C   C57       1.0  0.45796  0.43922  0.38825  1.0000
  C   C58       1.0  0.54204  0.56079  0.61174  1.0000
  C   C59       1.0  0.35808  0.53003  0.32029  1.0000
  C   C60       1.0  0.64192  0.46997  0.67970  1.0000
  C   C61       1.0  0.31241  0.51412  0.22874  1.0000
  C   C62       1.0  0.68758  0.48588  0.77126  1.0000
  C   C63       1.0  0.51284  0.44985  0.48500  1.0000
  C   C64       1.0  0.48716  0.55016  0.51499  1.0000
  N   N1        1.0  0.18780  0.10917  0.07692  1.0000
  N   N2        1.0  0.81220  0.89083  0.92308  1.0000
  N   N3        1.0  0.49509  0.76981  0.12196  1.0000
  N   N4        1.0  0.50491  0.23020  0.87804  1.0000
  N   N5        1.0  0.35765  0.41532  0.19938  1.0000
  N   N6        1.0  0.64235  0.58468  0.80063  1.0000
  O   O1        1.0  0.28757  0.87910  0.28613  1.0000
  O   O2        1.0  0.71244  0.12090  0.71387  1.0000
  O   O3        1.0  0.14553  0.82742  0.18467  1.0000
  O   O4        1.0  0.85447  0.17258  0.81533  1.0000
  O   O5        1.0  0.49875  0.02363  0.12739  1.0000
  O   O6        1.0  0.50125  0.97637  0.87261  1.0000
  O   O7        1.0  0.72215  0.05738  0.05344  1.0000
  O   O8        1.0  0.27785  0.94262  0.94656  1.0000
