data_image0
_chemical_formula_structural       InH8C10N2F3
_chemical_formula_sum              "In1 H8 C10 N2 F3"
_cell_length_a       4.23665
_cell_length_b       8.15095
_cell_length_c       8.15095
_cell_angle_alpha    81.7555
_cell_angle_beta     74.9602
_cell_angle_gamma    74.9603

_space_group_name_H-M_alt    "P 1"
_space_group_IT_number       1

loop_
  _space_group_symop_operation_xyz
  'x, y, z'

loop_
  _atom_site_type_symbol
  _atom_site_label
  _atom_site_symmetry_multiplicity
  _atom_site_fract_x
  _atom_site_fract_y
  _atom_site_fract_z
  _atom_site_occupancy
  In  In1       1.0  0.00000  0.49977  0.50023  1.0000
  H   H1        1.0  0.98837  0.88000  0.52334  1.0000
  H   H2        1.0  0.60819  0.52344  0.87977  1.0000
  H   H3        1.0  0.01162  0.47666  0.11999  1.0000
  H   H4        1.0  0.39181  0.12023  0.47656  1.0000
  H   H5        1.0  0.78481  0.10607  0.73299  1.0000
  H   H6        1.0  0.37607  0.73286  0.10602  1.0000
  H   H7        1.0  0.21518  0.26701  0.89393  1.0000
  H   H8        1.0  0.62393  0.89398  0.26714  1.0000
  C   C1        1.0  0.85219  0.85505  0.65416  1.0000
  C   C2        1.0  0.63856  0.65416  0.85493  1.0000
  C   C3        1.0  0.14780  0.34584  0.14495  1.0000
  C   C4        1.0  0.36144  0.14507  0.34584  1.0000
  C   C5        1.0  0.73449  0.97921  0.76984  1.0000
  C   C6        1.0  0.51613  0.76986  0.97908  1.0000
  C   C7        1.0  0.26551  0.23016  0.02079  1.0000
  C   C8        1.0  0.48387  0.02092  0.23014  1.0000
  C   C9        1.0  0.56370  0.93621  0.93615  1.0000
  C   C10       1.0  0.43630  0.06385  0.06379  1.0000
  N   N1        1.0  0.80423  0.69579  0.69580  1.0000
  N   N2        1.0  0.19577  0.30420  0.30421  1.0000
  F   F1        1.0  0.00002  0.30607  0.69393  1.0000
  F   F2        1.0  0.00000  0.69327  0.30673  1.0000
  F   F3        1.0  0.50000  0.50032  0.49968  1.0000
