data_image0
_chemical_formula_structural       Ag2H16C12N2O4
_chemical_formula_sum              "Ag2 H16 C12 N2 O4"
_cell_length_a       4.964
_cell_length_b       8.57288
_cell_length_c       9.45744
_cell_angle_alpha    82.7532
_cell_angle_beta     77.6712
_cell_angle_gamma    84.5458

_space_group_name_H-M_alt    "P 1"
_space_group_IT_number       1

loop_
  _space_group_symop_operation_xyz
  'x, y, z'

loop_
  _atom_site_type_symbol
  _atom_site_label
  _atom_site_symmetry_multiplicity
  _atom_site_fract_x
  _atom_site_fract_y
  _atom_site_fract_z
  _atom_site_occupancy
  Ag  Ag1       1.0  0.27357  0.99690  0.12617  1.0000
  Ag  Ag2       1.0  0.72643  0.00310  0.87383  1.0000
  H   H1        1.0  0.39297  0.72207  0.27155  1.0000
  H   H2        1.0  0.60704  0.27793  0.72845  1.0000
  H   H3        1.0  0.66964  0.77653  0.14997  1.0000
  H   H4        1.0  0.33037  0.22347  0.85002  1.0000
  H   H5        1.0  0.38849  0.37974  0.25704  1.0000
  H   H6        1.0  0.61150  0.62025  0.74297  1.0000
  H   H7        1.0  0.93849  0.41362  0.83904  1.0000
  H   H8        1.0  0.06151  0.58638  0.16097  1.0000
  H   H9        1.0  0.81561  0.93021  0.29367  1.0000
  H   H10       1.0  0.18439  0.06980  0.70633  1.0000
  H   H11       1.0  0.70962  0.75989  0.41403  1.0000
  H   H12       1.0  0.29040  0.24011  0.58597  1.0000
  H   H13       1.0  0.25308  0.90410  0.50286  1.0000
  H   H14       1.0  0.74691  0.09591  0.49714  1.0000
  H   H15       1.0  0.35590  0.06908  0.37485  1.0000
  H   H16       1.0  0.64411  0.93092  0.62514  1.0000
  C   C1        1.0  0.68253  0.38356  0.05410  1.0000
  C   C2        1.0  0.31746  0.61645  0.94590  1.0000
  C   C3        1.0  0.43667  0.43437  0.14499  1.0000
  C   C4        1.0  0.56332  0.56562  0.85502  1.0000
  C   C5        1.0  0.87290  0.25873  0.11487  1.0000
  C   C6        1.0  0.12710  0.74127  0.88513  1.0000
  C   C7        1.0  0.74412  0.45046  0.90874  1.0000
  C   C8        1.0  0.25588  0.54953  0.09126  1.0000
  C   C9        1.0  0.63511  0.86414  0.34804  1.0000
  C   C10       1.0  0.36490  0.13586  0.65195  1.0000
  C   C11       1.0  0.43240  0.96916  0.44490  1.0000
  C   C12       1.0  0.56760  0.03084  0.55510  1.0000
  N   N1        1.0  0.51387  0.81422  0.23210  1.0000
  N   N2        1.0  0.48614  0.18578  0.76790  1.0000
  O   O1        1.0  0.04729  0.18311  0.01830  1.0000
  O   O2        1.0  0.95270  0.81690  0.98169  1.0000
  O   O3        1.0  0.85539  0.23109  0.24912  1.0000
  O   O4        1.0  0.14459  0.76889  0.75088  1.0000
