data_image0
_chemical_formula_structural       Cd2H52C60N8O12
_chemical_formula_sum              "Cd2 H52 C60 N8 O12"
_cell_length_a       11.6699
_cell_length_b       11.6695
_cell_length_c       12.636
_cell_angle_alpha    69.067
_cell_angle_beta     69.0679
_cell_angle_gamma    83.1611

_space_group_name_H-M_alt    "P 1"
_space_group_IT_number       1

loop_
  _space_group_symop_operation_xyz
  'x, y, z'

loop_
  _atom_site_type_symbol
  _atom_site_label
  _atom_site_symmetry_multiplicity
  _atom_site_fract_x
  _atom_site_fract_y
  _atom_site_fract_z
  _atom_site_occupancy
  Cd  Cd1       1.0  0.49767  0.50233  0.75000  1.0000
  Cd  Cd2       1.0  0.50233  0.49767  0.25000  1.0000
  H   H1        1.0  0.50871  0.80888  0.65433  1.0000
  H   H2        1.0  0.19112  0.49129  0.84567  1.0000
  H   H3        1.0  0.49129  0.19112  0.34567  1.0000
  H   H4        1.0  0.80888  0.50871  0.15433  1.0000
  H   H5        1.0  0.36022  0.94647  0.79161  1.0000
  H   H6        1.0  0.05354  0.63978  0.70839  1.0000
  H   H7        1.0  0.63978  0.05353  0.20839  1.0000
  H   H8        1.0  0.94646  0.36022  0.29161  1.0000
  H   H9        1.0  0.36068  0.57805  0.01713  1.0000
  H   H10       1.0  0.42195  0.63932  0.48288  1.0000
  H   H11       1.0  0.63932  0.42195  0.98287  1.0000
  H   H12       1.0  0.57805  0.36068  0.51712  1.0000
  H   H13       1.0  0.26069  0.89262  0.02539  1.0000
  H   H14       1.0  0.10738  0.73931  0.47461  1.0000
  H   H15       1.0  0.73931  0.10738  0.97461  1.0000
  H   H16       1.0  0.89262  0.26069  0.52539  1.0000
  H   H17       1.0  0.25616  0.73630  0.11652  1.0000
  H   H18       1.0  0.26369  0.74384  0.38348  1.0000
  H   H19       1.0  0.74385  0.26370  0.88348  1.0000
  H   H20       1.0  0.73631  0.25616  0.61652  1.0000
  H   H21       1.0  0.82287  0.87209  0.16650  1.0000
  H   H22       1.0  0.12791  0.17714  0.33350  1.0000
  H   H23       1.0  0.17713  0.12791  0.83350  1.0000
  H   H24       1.0  0.87209  0.82286  0.66650  1.0000
  H   H25       1.0  0.77760  0.75094  0.05946  1.0000
  H   H26       1.0  0.24906  0.22240  0.44054  1.0000
  H   H27       1.0  0.22240  0.24906  0.94054  1.0000
  H   H28       1.0  0.75094  0.77760  0.55946  1.0000
  H   H29       1.0  0.94772  0.65460  0.93411  1.0000
  H   H30       1.0  0.34540  0.05228  0.56589  1.0000
  H   H31       1.0  0.05228  0.34540  0.06589  1.0000
  H   H32       1.0  0.65460  0.94772  0.43411  1.0000
  H   H33       1.0  0.16253  0.67810  0.91767  1.0000
  H   H34       1.0  0.32190  0.83746  0.58233  1.0000
  H   H35       1.0  0.83747  0.32190  0.08232  1.0000
  H   H36       1.0  0.67810  0.16254  0.41767  1.0000
  H   H37       1.0  0.90127  0.89927  0.30623  1.0000
  H   H38       1.0  0.10073  0.09873  0.19377  1.0000
  H   H39       1.0  0.09873  0.10073  0.69377  1.0000
  H   H40       1.0  0.89927  0.90127  0.80623  1.0000
  H   H41       1.0  0.91331  0.03402  0.17627  1.0000
  H   H42       1.0  0.96598  0.08670  0.32373  1.0000
  H   H43       1.0  0.08669  0.96598  0.82373  1.0000
  H   H44       1.0  0.03402  0.91330  0.67627  1.0000
  H   H45       1.0  0.38394  0.15066  0.09640  1.0000
  H   H46       1.0  0.84934  0.61606  0.40360  1.0000
  H   H47       1.0  0.61606  0.84934  0.90360  1.0000
  H   H48       1.0  0.15066  0.38394  0.59641  1.0000
  H   H49       1.0  0.59721  0.06808  0.77699  1.0000
  H   H50       1.0  0.93192  0.40279  0.72301  1.0000
  H   H51       1.0  0.40279  0.93192  0.22301  1.0000
  H   H52       1.0  0.06808  0.59721  0.27699  1.0000
  C   C1        1.0  0.45422  0.78042  0.74924  1.0000
  C   C2        1.0  0.21958  0.54578  0.75076  1.0000
  C   C3        1.0  0.54578  0.21958  0.25076  1.0000
  C   C4        1.0  0.78042  0.45422  0.24924  1.0000
  C   C5        1.0  0.38189  0.84974  0.81550  1.0000
  C   C6        1.0  0.15026  0.61811  0.68450  1.0000
  C   C7        1.0  0.61811  0.15026  0.18450  1.0000
  C   C8        1.0  0.84974  0.38189  0.31550  1.0000
  C   C9        1.0  0.38178  0.65721  0.93489  1.0000
  C   C10       1.0  0.34279  0.61822  0.56511  1.0000
  C   C11       1.0  0.61822  0.34279  0.06511  1.0000
  C   C12       1.0  0.65721  0.38178  0.43489  1.0000
  C   C13       1.0  0.24410  0.79914  0.03231  1.0000
  C   C14       1.0  0.20086  0.75590  0.46769  1.0000
  C   C15       1.0  0.75590  0.20086  0.96769  1.0000
  C   C16       1.0  0.79914  0.24410  0.53231  1.0000
  C   C17       1.0  0.11581  0.78609  0.03403  1.0000
  C   C18       1.0  0.21391  0.88419  0.46597  1.0000
  C   C19       1.0  0.88420  0.21391  0.96597  1.0000
  C   C20       1.0  0.78609  0.11581  0.53402  1.0000
  C   C21       1.0  0.01906  0.84245  0.10276  1.0000
  C   C22       1.0  0.15755  0.98094  0.39724  1.0000
  C   C23       1.0  0.98094  0.15755  0.89724  1.0000
  C   C24       1.0  0.84245  0.01906  0.60276  1.0000
  C   C25       1.0  0.89757  0.82963  0.11236  1.0000
  C   C26       1.0  0.17037  0.10243  0.38764  1.0000
  C   C27       1.0  0.10243  0.17037  0.88764  1.0000
  C   C28       1.0  0.82963  0.89757  0.61236  1.0000
  C   C29       1.0  0.87222  0.76153  0.05181  1.0000
  C   C30       1.0  0.23847  0.12778  0.44818  1.0000
  C   C31       1.0  0.12778  0.23847  0.94818  1.0000
  C   C32       1.0  0.76153  0.87222  0.55181  1.0000
  C   C33       1.0  0.96735  0.70705  0.98201  1.0000
  C   C34       1.0  0.29295  0.03265  0.51799  1.0000
  C   C35       1.0  0.03265  0.29295  0.01799  1.0000
  C   C36       1.0  0.70705  0.96735  0.48201  1.0000
  C   C37       1.0  0.08839  0.71968  0.97349  1.0000
  C   C38       1.0  0.28032  0.91161  0.52651  1.0000
  C   C39       1.0  0.91161  0.28032  0.02651  1.0000
  C   C40       1.0  0.71968  0.08839  0.47349  1.0000
  C   C41       1.0  0.96514  0.96753  0.22875  1.0000
  C   C42       1.0  0.03247  0.03486  0.27125  1.0000
  C   C43       1.0  0.03486  0.03247  0.77125  1.0000
  C   C44       1.0  0.96753  0.96514  0.72875  1.0000
  C   C45       1.0  0.48274  0.25306  0.85429  1.0000
  C   C46       1.0  0.74694  0.51726  0.64571  1.0000
  C   C47       1.0  0.51726  0.74694  0.14571  1.0000
  C   C48       1.0  0.25306  0.48274  0.35429  1.0000
  C   C49       1.0  0.48856  0.12150  0.92940  1.0000
  C   C50       1.0  0.87850  0.51144  0.57060  1.0000
  C   C51       1.0  0.51144  0.87850  0.07060  1.0000
  C   C52       1.0  0.12150  0.48856  0.42940  1.0000
  C   C53       1.0  0.43350  0.08352  0.05520  1.0000
  C   C54       1.0  0.91648  0.56650  0.44480  1.0000
  C   C55       1.0  0.56650  0.91648  0.94480  1.0000
  C   C56       1.0  0.08352  0.43350  0.55520  1.0000
  C   C57       1.0  0.55503  0.03716  0.87474  1.0000
  C   C58       1.0  0.96284  0.44497  0.62526  1.0000
  C   C59       1.0  0.44497  0.96284  0.12526  1.0000
  C   C60       1.0  0.03716  0.55503  0.37474  1.0000
  N   N1        1.0  0.45315  0.66040  0.82467  1.0000
  N   N2        1.0  0.33959  0.54685  0.67533  1.0000
  N   N3        1.0  0.54685  0.33959  0.17533  1.0000
  N   N4        1.0  0.66041  0.45315  0.32466  1.0000
  N   N5        1.0  0.33739  0.77056  0.93279  1.0000
  N   N6        1.0  0.22944  0.66261  0.56721  1.0000
  N   N7        1.0  0.66261  0.22944  0.06721  1.0000
  N   N8        1.0  0.77056  0.33739  0.43279  1.0000
  O   O1        1.0  0.05566  0.90786  0.15552  1.0000
  O   O2        1.0  0.09214  0.94434  0.34448  1.0000
  O   O3        1.0  0.94434  0.09214  0.84448  1.0000
  O   O4        1.0  0.90786  0.05566  0.65552  1.0000
  O   O5        1.0  0.42648  0.32756  0.91038  1.0000
  O   O6        1.0  0.67245  0.57352  0.58962  1.0000
  O   O7        1.0  0.57352  0.67244  0.08962  1.0000
  O   O8        1.0  0.32755  0.42648  0.41038  1.0000
  O   O9        1.0  0.53586  0.28684  0.74100  1.0000
  O   O10       1.0  0.71317  0.46414  0.75900  1.0000
  O   O11       1.0  0.46414  0.71316  0.25900  1.0000
  O   O12       1.0  0.28683  0.53586  0.24100  1.0000
