data_image0
_chemical_formula_structural       Gd2Cu6H44C48N6Cl6O16
_chemical_formula_sum              "Gd2 Cu6 H44 C48 N6 Cl6 O16"
_cell_length_a       9.62067
_cell_length_b       13.0495
_cell_length_c       13.133
_cell_angle_alpha    97.4355
_cell_angle_beta     98.3262
_cell_angle_gamma    107.085

_space_group_name_H-M_alt    "P 1"
_space_group_IT_number       1

loop_
  _space_group_symop_operation_xyz
  'x, y, z'

loop_
  _atom_site_type_symbol
  _atom_site_label
  _atom_site_symmetry_multiplicity
  _atom_site_fract_x
  _atom_site_fract_y
  _atom_site_fract_z
  _atom_site_occupancy
  Gd  Gd1       1.0  0.76239  0.51030  0.52348  1.0000
  Gd  Gd2       1.0  0.23760  0.48971  0.47652  1.0000
  Cu  Cu1       1.0  0.16583  0.20407  0.78817  1.0000
  Cu  Cu2       1.0  0.83418  0.79593  0.21183  1.0000
  Cu  Cu3       1.0  0.09600  0.00803  0.10069  1.0000
  Cu  Cu4       1.0  0.90400  0.99197  0.89931  1.0000
  Cu  Cu5       1.0  0.05399  0.25515  0.03674  1.0000
  Cu  Cu6       1.0  0.94602  0.74486  0.96326  1.0000
  H   H1        1.0  0.75110  0.64116  0.72736  1.0000
  H   H2        1.0  0.24890  0.35884  0.27264  1.0000
  H   H3        1.0  0.58754  0.56130  0.68384  1.0000
  H   H4        1.0  0.41245  0.43870  0.31615  1.0000
  H   H5        1.0  0.91639  0.50838  0.73833  1.0000
  H   H6        1.0  0.08360  0.49162  0.26167  1.0000
  H   H7        1.0  0.01012  0.45937  0.66605  1.0000
  H   H8        1.0  0.98988  0.54063  0.33395  1.0000
  H   H9        1.0  0.14138  0.83505  0.71191  1.0000
  H   H10       1.0  0.85861  0.16495  0.28810  1.0000
  H   H11       1.0  0.39152  0.74692  0.65727  1.0000
  H   H12       1.0  0.60846  0.25307  0.34274  1.0000
  H   H13       1.0  0.53023  0.84704  0.47389  1.0000
  H   H14       1.0  0.46976  0.15296  0.52610  1.0000
  H   H15       1.0  0.82695  0.81880  0.56829  1.0000
  H   H16       1.0  0.17302  0.18120  0.43170  1.0000
  H   H17       1.0  0.43860  0.28658  0.70795  1.0000
  H   H18       1.0  0.56142  0.71341  0.29205  1.0000
  H   H19       1.0  0.77547  0.44416  0.98350  1.0000
  H   H20       1.0  0.22454  0.55584  0.01650  1.0000
  H   H21       1.0  0.31382  0.29680  0.99727  1.0000
  H   H22       1.0  0.68620  0.70320  0.00274  1.0000
  H   H23       1.0  0.70276  0.38500  0.78833  1.0000
  H   H24       1.0  0.29725  0.61498  0.21166  1.0000
  H   H25       1.0  0.96616  0.29088  0.67626  1.0000
  H   H26       1.0  0.03385  0.70912  0.32374  1.0000
  H   H27       1.0  0.73014  0.21881  0.54714  1.0000
  H   H28       1.0  0.26986  0.78119  0.45286  1.0000
  H   H29       1.0  0.74856  0.14064  0.95526  1.0000
  H   H30       1.0  0.25143  0.85936  0.04474  1.0000
  H   H31       1.0  0.48386  0.13722  0.92728  1.0000
  H   H32       1.0  0.51613  0.86278  0.07272  1.0000
  H   H33       1.0  0.63808  0.84279  0.75611  1.0000
  H   H34       1.0  0.36192  0.15721  0.24389  1.0000
  H   H35       1.0  0.79055  0.51937  0.15470  1.0000
  H   H36       1.0  0.20946  0.48064  0.84531  1.0000
  H   H37       1.0  0.47953  0.36334  0.15543  1.0000
  H   H38       1.0  0.52049  0.63667  0.84456  1.0000
  H   H39       1.0  0.29170  0.98227  0.80733  1.0000
  H   H40       1.0  0.70829  0.01772  0.19268  1.0000
  H   H41       1.0  0.62914  0.01691  0.47568  1.0000
  H   H42       1.0  0.37085  0.98309  0.52433  1.0000
  H   H43       1.0  0.00268  0.98204  0.67769  1.0000
  H   H44       1.0  0.99731  0.01796  0.32230  1.0000
  C   C1        1.0  0.55211  0.68654  0.48017  1.0000
  C   C2        1.0  0.44789  0.31347  0.51984  1.0000
  C   C3        1.0  0.19646  0.78333  0.67350  1.0000
  C   C4        1.0  0.80353  0.21667  0.32650  1.0000
  C   C5        1.0  0.34459  0.80478  0.69576  1.0000
  C   C6        1.0  0.65540  0.19521  0.30425  1.0000
  C   C7        1.0  0.61149  0.80679  0.49645  1.0000
  C   C8        1.0  0.38849  0.19322  0.50355  1.0000
  C   C9        1.0  0.75184  0.86391  0.54420  1.0000
  C   C10       1.0  0.24815  0.13609  0.45580  1.0000
  C   C11       1.0  0.47330  0.31317  0.79222  1.0000
  C   C12       1.0  0.52671  0.68682  0.20778  1.0000
  C   C13       1.0  0.66009  0.40140  0.94645  1.0000
  C   C14       1.0  0.33993  0.59859  0.05355  1.0000
  C   C15       1.0  0.40357  0.31921  0.95376  1.0000
  C   C16       1.0  0.59645  0.68079  0.04624  1.0000
  C   C17       1.0  0.62084  0.36868  0.83828  1.0000
  C   C18       1.0  0.37917  0.63131  0.16171  1.0000
  C   C19       1.0  0.91831  0.20420  0.64554  1.0000
  C   C20       1.0  0.08170  0.79580  0.35445  1.0000
  C   C21       1.0  0.78590  0.16242  0.57289  1.0000
  C   C22       1.0  0.21410  0.83758  0.42711  1.0000
  C   C23       1.0  0.66095  0.07292  0.90398  1.0000
  C   C24       1.0  0.33904  0.92707  0.09602  1.0000
  C   C25       1.0  0.51406  0.07107  0.88690  1.0000
  C   C26       1.0  0.48593  0.92893  0.11310  1.0000
  C   C27       1.0  0.44892  0.89921  0.76872  1.0000
  C   C28       1.0  0.55107  0.10078  0.23128  1.0000
  C   C29       1.0  0.59918  0.90696  0.79147  1.0000
  C   C30       1.0  0.40081  0.09304  0.20853  1.0000
  C   C31       1.0  0.54863  0.37639  0.00660  1.0000
  C   C32       1.0  0.45139  0.62360  0.99340  1.0000
  C   C33       1.0  0.70707  0.49203  0.29867  1.0000
  C   C34       1.0  0.29293  0.50798  0.70133  1.0000
  C   C35       1.0  0.69517  0.47318  0.18421  1.0000
  C   C36       1.0  0.30484  0.52683  0.81579  1.0000
  C   C37       1.0  0.57248  0.40354  0.12013  1.0000
  C   C38       1.0  0.42754  0.59646  0.87986  1.0000
  C   C39       1.0  0.09419  0.68632  0.59907  1.0000
  C   C40       1.0  0.90580  0.31369  0.40092  1.0000
  C   C41       1.0  0.40691  0.98411  0.81921  1.0000
  C   C42       1.0  0.59308  0.01588  0.18079  1.0000
  C   C43       1.0  0.80712  0.98242  0.57253  1.0000
  C   C44       1.0  0.19288  0.01759  0.42748  1.0000
  C   C45       1.0  0.73051  0.05100  0.53492  1.0000
  C   C46       1.0  0.26949  0.94899  0.46507  1.0000
  C   C47       1.0  0.93986  0.03158  0.64536  1.0000
  C   C48       1.0  0.06014  0.96842  0.35464  1.0000
  N   N1        1.0  0.70337  0.99111  0.85791  1.0000
  N   N2        1.0  0.29662  0.00888  0.14209  1.0000
  N   N3        1.0  0.99497  0.14009  0.68120  1.0000
  N   N4        1.0  0.00504  0.85991  0.31880  1.0000
  N   N5        1.0  0.36527  0.28837  0.84902  1.0000
  N   N6        1.0  0.63475  0.71163  0.15098  1.0000
  Cl  Cl1       1.0  0.14140  0.06935  0.91405  1.0000
  Cl  Cl2       1.0  0.85860  0.93066  0.08596  1.0000
  Cl  Cl3       1.0  0.11130  0.20539  0.18019  1.0000
  Cl  Cl4       1.0  0.88870  0.79461  0.81981  1.0000
  Cl  Cl5       1.0  0.00537  0.32593  0.90612  1.0000
  Cl  Cl6       1.0  0.99464  0.67407  0.09387  1.0000
  O   O1        1.0  0.69373  0.56571  0.69188  1.0000
  O   O2        1.0  0.30627  0.43429  0.30812  1.0000
  O   O3        1.0  0.41183  0.64492  0.44978  1.0000
  O   O4        1.0  0.58817  0.35507  0.55022  1.0000
  O   O5        1.0  0.83063  0.55524  0.35574  1.0000
  O   O6        1.0  0.16936  0.44477  0.64427  1.0000
  O   O7        1.0  0.60050  0.44549  0.34213  1.0000
  O   O8        1.0  0.39949  0.55452  0.65787  1.0000
  O   O9        1.0  0.90948  0.46550  0.67042  1.0000
  O   O10       1.0  0.09051  0.53450  0.32958  1.0000
  O   O11       1.0  0.95614  0.67406  0.59031  1.0000
  O   O12       1.0  0.04385  0.32595  0.40968  1.0000
  O   O13       1.0  0.14417  0.61984  0.54794  1.0000
  O   O14       1.0  0.85583  0.38017  0.45205  1.0000
  O   O15       1.0  0.63917  0.63203  0.49853  1.0000
  O   O16       1.0  0.36084  0.36799  0.50149  1.0000
