data_image0
_chemical_formula_structural       Gd2Cu4H32C34I4N4O16
_chemical_formula_sum              "Gd2 Cu4 H32 C34 I4 N4 O16"
_cell_length_a       8.00008
_cell_length_b       8.06181
_cell_length_c       18.8231
_cell_angle_alpha    86.8609
_cell_angle_beta     85.6929
_cell_angle_gamma    79.5474

_space_group_name_H-M_alt    "P 1"
_space_group_IT_number       1

loop_
  _space_group_symop_operation_xyz
  'x, y, z'

loop_
  _atom_site_type_symbol
  _atom_site_label
  _atom_site_symmetry_multiplicity
  _atom_site_fract_x
  _atom_site_fract_y
  _atom_site_fract_z
  _atom_site_occupancy
  Gd  Gd1       1.0  0.79245  0.19989  0.49387  1.0000
  Gd  Gd2       1.0  0.20752  0.80009  0.50613  1.0000
  Cu  Cu1       1.0  0.62099  0.09165  0.98338  1.0000
  Cu  Cu2       1.0  0.37903  0.90835  0.01663  1.0000
  Cu  Cu3       1.0  0.90067  0.89502  0.02201  1.0000
  Cu  Cu4       1.0  0.09936  0.10498  0.97798  1.0000
  H   H1        1.0  0.60514  0.93308  0.43323  1.0000
  H   H2        1.0  0.39482  0.06690  0.56677  1.0000
  H   H3        1.0  0.79885  0.85369  0.45197  1.0000
  H   H4        1.0  0.20112  0.14631  0.54802  1.0000
  H   H5        1.0  0.43641  0.21845  0.45251  1.0000
  H   H6        1.0  0.56355  0.78156  0.54749  1.0000
  H   H7        1.0  0.46239  0.40699  0.43187  1.0000
  H   H8        1.0  0.53760  0.59300  0.56812  1.0000
  H   H9        1.0  0.91106  0.89164  0.74396  1.0000
  H   H10       1.0  0.08894  0.10837  0.25605  1.0000
  H   H11       1.0  0.85743  0.23120  0.65755  1.0000
  H   H12       1.0  0.14255  0.76880  0.34245  1.0000
  H   H13       1.0  0.79486  0.01707  0.84345  1.0000
  H   H14       1.0  0.20514  0.98293  0.15655  1.0000
  H   H15       1.0  0.48155  0.43673  0.92648  1.0000
  H   H16       1.0  0.51848  0.56327  0.07353  1.0000
  H   H17       1.0  0.51605  0.61036  0.81418  1.0000
  H   H18       1.0  0.48397  0.38964  0.18583  1.0000
  H   H19       1.0  0.69622  0.47319  0.70986  1.0000
  H   H20       1.0  0.30377  0.52680  0.29015  1.0000
  H   H21       1.0  0.36055  0.48666  0.66367  1.0000
  H   H22       1.0  0.63943  0.51335  0.33633  1.0000
  H   H23       1.0  0.37265  0.11022  0.70721  1.0000
  H   H24       1.0  0.62736  0.88978  0.29278  1.0000
  H   H25       1.0  0.11572  0.55834  0.72096  1.0000
  H   H26       1.0  0.88430  0.44167  0.27905  1.0000
  H   H27       1.0  0.92764  0.64686  0.83041  1.0000
  H   H28       1.0  0.07241  0.35315  0.16960  1.0000
  H   H29       1.0  0.92110  0.44559  0.93478  1.0000
  H   H30       1.0  0.07893  0.55441  0.06522  1.0000
  H   H31       1.0  0.26034  0.07190  0.83091  1.0000
  H   H32       1.0  0.73967  0.92810  0.16909  1.0000
  C   C1        1.0  0.98696  0.91369  0.63057  1.0000
  C   C2        1.0  0.01302  0.08630  0.36943  1.0000
  C   C3        1.0  0.90907  0.98234  0.69865  1.0000
  C   C4        1.0  0.09091  0.01767  0.30135  1.0000
  C   C5        1.0  0.84601  0.14825  0.70489  1.0000
  C   C6        1.0  0.15398  0.85175  0.29511  1.0000
  C   C7        1.0  0.75720  0.23226  0.76704  1.0000
  C   C8        1.0  0.24280  0.76774  0.23297  1.0000
  C   C9        1.0  0.73473  0.14825  0.83338  1.0000
  C   C10       1.0  0.26528  0.85175  0.16663  1.0000
  C   C11       1.0  0.56089  0.38386  0.88054  1.0000
  C   C12       1.0  0.43913  0.61615  0.11946  1.0000
  C   C13       1.0  0.57982  0.47898  0.81747  1.0000
  C   C14       1.0  0.42020  0.52103  0.18253  1.0000
  C   C15       1.0  0.67974  0.40318  0.76036  1.0000
  C   C16       1.0  0.32026  0.59682  0.23964  1.0000
  C   C17       1.0  0.53250  0.28954  0.60775  1.0000
  C   C18       1.0  0.46749  0.71046  0.39224  1.0000
  C   C19       1.0  0.39535  0.34998  0.66091  1.0000
  C   C20       1.0  0.60464  0.65002  0.33908  1.0000
  C   C21       1.0  0.32740  0.24646  0.70894  1.0000
  C   C22       1.0  0.67260  0.75355  0.29106  1.0000
  C   C23       1.0  0.20669  0.30716  0.76749  1.0000
  C   C24       1.0  0.79333  0.69284  0.23251  1.0000
  C   C25       1.0  0.11020  0.47181  0.76745  1.0000
  C   C26       1.0  0.88983  0.52820  0.23256  1.0000
  C   C27       1.0  0.00618  0.52175  0.82761  1.0000
  C   C28       1.0  0.99386  0.47826  0.17239  1.0000
  C   C29       1.0  0.00072  0.40962  0.88647  1.0000
  C   C30       1.0  0.99931  0.59038  0.11353  1.0000
  C   C31       1.0  0.18991  0.20140  0.82828  1.0000
  C   C32       1.0  0.81011  0.79860  0.17172  1.0000
  C   C33       1.0  0.93293  0.55687  0.47797  1.0000
  C   C34       1.0  0.06704  0.44311  0.52201  1.0000
  I   I1        1.0  0.82769  0.20519  0.06552  1.0000
  I   I2        1.0  0.17235  0.79481  0.93448  1.0000
  I   I3        1.0  0.32812  0.22630  0.04775  1.0000
  I   I4        1.0  0.67189  0.77370  0.95226  1.0000
  N   N1        1.0  0.63879  0.22127  0.88865  1.0000
  N   N2        1.0  0.36122  0.77873  0.11135  1.0000
  N   N3        1.0  0.09081  0.25134  0.88694  1.0000
  N   N4        1.0  0.90921  0.74866  0.11307  1.0000
  O   O1        1.0  0.80754  0.49758  0.46130  1.0000
  O   O2        1.0  0.19243  0.50240  0.53868  1.0000
  O   O3        1.0  0.94541  0.98890  0.57028  1.0000
  O   O4        1.0  0.05457  0.01109  0.42973  1.0000
  O   O5        1.0  0.56518  0.13693  0.58783  1.0000
  O   O6        1.0  0.43480  0.86307  0.41216  1.0000
  O   O7        1.0  0.70556  0.95434  0.45771  1.0000
  O   O8        1.0  0.29441  0.04565  0.54229  1.0000
  O   O9        1.0  0.52332  0.28708  0.43891  1.0000
  O   O10       1.0  0.47666  0.71291  0.56110  1.0000
  O   O11       1.0  0.09897  0.77928  0.63064  1.0000
  O   O12       1.0  0.90100  0.22071  0.36937  1.0000
  O   O13       1.0  0.62800  0.39370  0.58085  1.0000
  O   O14       1.0  0.37200  0.60629  0.41915  1.0000
  O   O15       1.0  0.96315  0.70549  0.46258  1.0000
  O   O16       1.0  0.03683  0.29449  0.53740  1.0000
