data_image0
_chemical_formula_structural       Nd2Cu4H32C34I4N4O16
_chemical_formula_sum              "Nd2 Cu4 H32 C34 I4 N4 O16"
_cell_length_a       8.06856
_cell_length_b       8.14153
_cell_length_c       18.7693
_cell_angle_alpha    86.7385
_cell_angle_beta     86.0865
_cell_angle_gamma    79.6408

_space_group_name_H-M_alt    "P 1"
_space_group_IT_number       1

loop_
  _space_group_symop_operation_xyz
  'x, y, z'

loop_
  _atom_site_type_symbol
  _atom_site_label
  _atom_site_symmetry_multiplicity
  _atom_site_fract_x
  _atom_site_fract_y
  _atom_site_fract_z
  _atom_site_occupancy
  Nd  Nd1       1.0  0.71256  0.30212  0.00423  1.0000
  Nd  Nd2       1.0  0.28742  0.69787  0.99577  1.0000
  Cu  Cu1       1.0  0.40268  0.39337  0.52069  1.0000
  Cu  Cu2       1.0  0.59732  0.60664  0.47931  1.0000
  Cu  Cu3       1.0  0.12192  0.58848  0.48487  1.0000
  Cu  Cu4       1.0  0.87809  0.41152  0.51512  1.0000
  H   H1        1.0  0.35706  0.72560  0.15860  1.0000
  H   H2        1.0  0.64294  0.27439  0.84139  1.0000
  H   H3        1.0  0.14250  0.00522  0.83426  1.0000
  H   H4        1.0  0.85749  0.99479  0.16574  1.0000
  H   H5        1.0  0.43315  0.39435  0.24821  1.0000
  H   H6        1.0  0.56687  0.60565  0.75179  1.0000
  H   H7        1.0  0.04515  0.10354  0.06906  1.0000
  H   H8        1.0  0.95483  0.89645  0.93093  1.0000
  H   H9        1.0  0.07647  0.28548  0.04005  1.0000
  H   H10       1.0  0.92352  0.71450  0.95994  1.0000
  H   H11       1.0  0.89742  0.57705  0.06503  1.0000
  H   H12       1.0  0.10256  0.42295  0.93497  1.0000
  H   H13       1.0  0.70743  0.65532  0.04413  1.0000
  H   H14       1.0  0.29255  0.34467  0.95587  1.0000
  H   H15       1.0  0.57664  0.85295  0.66724  1.0000
  H   H16       1.0  0.42335  0.14706  0.33276  1.0000
  H   H17       1.0  0.58361  0.05546  0.56354  1.0000
  H   H18       1.0  0.41637  0.94453  0.43646  1.0000
  H   H19       1.0  0.98683  0.93053  0.42669  1.0000
  H   H20       1.0  0.01319  0.06947  0.57330  1.0000
  H   H21       1.0  0.38645  0.93564  0.77597  1.0000
  H   H22       1.0  0.61356  0.06438  0.22404  1.0000
  H   H23       1.0  0.24175  0.41939  0.66712  1.0000
  H   H24       1.0  0.75827  0.58063  0.33289  1.0000
  H   H25       1.0  0.29656  0.51422  0.34542  1.0000
  H   H26       1.0  0.70345  0.48578  0.65457  1.0000
  H   H27       1.0  0.12864  0.37798  0.78959  1.0000
  H   H28       1.0  0.87137  0.62205  0.21042  1.0000
  H   H29       1.0  0.02322  0.10215  0.31405  1.0000
  H   H30       1.0  0.97680  0.89786  0.68595  1.0000
  H   H31       1.0  0.20291  0.96595  0.21060  1.0000
  H   H32       1.0  0.79712  0.03406  0.78940  1.0000
  C   C1        1.0  0.26223  0.72759  0.26854  1.0000
  C   C2        1.0  0.73779  0.27241  0.73145  1.0000
  C   C3        1.0  0.35165  0.64454  0.20684  1.0000
  C   C4        1.0  0.64836  0.35546  0.79315  1.0000
  C   C5        1.0  0.10757  0.14062  0.83619  1.0000
  C   C6        1.0  0.89242  0.85939  0.16381  1.0000
  C   C7        1.0  0.97064  0.20190  0.88843  1.0000
  C   C8        1.0  0.02934  0.79810  0.11157  1.0000
  C   C9        1.0  0.42325  0.48223  0.20194  1.0000
  C   C10       1.0  0.57676  0.51778  0.79806  1.0000
  C   C11       1.0  0.50052  0.41449  0.13394  1.0000
  C   C12       1.0  0.49948  0.58550  0.86605  1.0000
  C   C13       1.0  0.49761  0.97610  0.67005  1.0000
  C   C14       1.0  0.50238  0.02390  0.32996  1.0000
  C   C15       1.0  0.50333  0.08896  0.61160  1.0000
  C   C16       1.0  0.49665  0.91104  0.38840  1.0000
  C   C17       1.0  0.06599  0.87804  0.38109  1.0000
  C   C18       1.0  0.93402  0.12196  0.61890  1.0000
  C   C19       1.0  0.39271  0.02281  0.72986  1.0000
  C   C20       1.0  0.60730  0.97720  0.27015  1.0000
  C   C21       1.0  0.31264  0.29168  0.66960  1.0000
  C   C22       1.0  0.68737  0.70833  0.33041  1.0000
  C   C23       1.0  0.29577  0.18501  0.72996  1.0000
  C   C24       1.0  0.70425  0.81501  0.27005  1.0000
  C   C25       1.0  0.23821  0.64438  0.33497  1.0000
  C   C26       1.0  0.76180  0.35562  0.66502  1.0000
  C   C27       1.0  0.17490  0.24325  0.78811  1.0000
  C   C28       1.0  0.82511  0.75677  0.21190  1.0000
  C   C29       1.0  0.08599  0.97209  0.31790  1.0000
  C   C30       1.0  0.91403  0.02792  0.68210  1.0000
  C   C31       1.0  0.18560  0.89678  0.26123  1.0000
  C   C32       1.0  0.81442  0.10322  0.73876  1.0000
  C   C33       1.0  0.43301  0.05597  0.97758  1.0000
  C   C34       1.0  0.56696  0.94403  0.02242  1.0000
  I   I1        1.0  0.16887  0.27460  0.45279  1.0000
  I   I2        1.0  0.83114  0.72540  0.54721  1.0000
  I   I3        1.0  0.33015  0.69862  0.56712  1.0000
  I   I4        1.0  0.66985  0.30138  0.43288  1.0000
  N   N1        1.0  0.41252  0.24491  0.61128  1.0000
  N   N2        1.0  0.58749  0.75509  0.38872  1.0000
  N   N3        1.0  0.14240  0.71695  0.38977  1.0000
  N   N4        1.0  0.85761  0.28304  0.61022  1.0000
  O   O1        1.0  0.30842  0.99667  0.96114  1.0000
  O   O2        1.0  0.69155  0.00329  0.03886  1.0000
  O   O3        1.0  0.46200  0.20312  0.96124  1.0000
  O   O4        1.0  0.53798  0.79686  0.03877  1.0000
  O   O5        1.0  0.87672  0.09939  0.91637  1.0000
  O   O6        1.0  0.12329  0.90060  0.08363  1.0000
  O   O7        1.0  0.93760  0.35501  0.90598  1.0000
  O   O8        1.0  0.06238  0.64499  0.09402  1.0000
  O   O9        1.0  0.61570  0.28498  0.13455  1.0000
  O   O10       1.0  0.38430  0.71501  0.86544  1.0000
  O   O11       1.0  0.45410  0.48599  0.07322  1.0000
  O   O12       1.0  0.54589  0.51399  0.92678  1.0000
  O   O13       1.0  0.98936  0.22263  0.05969  1.0000
  O   O14       1.0  0.01062  0.77736  0.94030  1.0000
  O   O15       1.0  0.80545  0.56304  0.03388  1.0000
  O   O16       1.0  0.19453  0.43696  0.96612  1.0000
