data_image0
_chemical_formula_structural       Gd2Cu4H28C34Br4N4O14
_chemical_formula_sum              "Gd2 Cu4 H28 C34 Br4 N4 O14"
_cell_length_a       7.32492
_cell_length_b       7.56195
_cell_length_c       21.174
_cell_angle_alpha    90.0868
_cell_angle_beta     88.5963
_cell_angle_gamma    66.0643

_space_group_name_H-M_alt    "P 1"
_space_group_IT_number       1

loop_
  _space_group_symop_operation_xyz
  'x, y, z'

loop_
  _atom_site_type_symbol
  _atom_site_label
  _atom_site_symmetry_multiplicity
  _atom_site_fract_x
  _atom_site_fract_y
  _atom_site_fract_z
  _atom_site_occupancy
  Gd  Gd1       1.0  0.24609  0.25066  0.48698  1.0000
  Gd  Gd2       1.0  0.75391  0.74938  0.51302  1.0000
  Cu  Cu1       1.0  0.98351  0.64776  0.03550  1.0000
  Cu  Cu2       1.0  0.01644  0.35217  0.96449  1.0000
  Cu  Cu3       1.0  0.00306  0.10902  0.05067  1.0000
  Cu  Cu4       1.0  0.99695  0.89095  0.94933  1.0000
  H   H1        1.0  0.55227  0.58618  0.73145  1.0000
  H   H2        1.0  0.44772  0.41379  0.26855  1.0000
  H   H3        1.0  0.63141  0.43957  0.83942  1.0000
  H   H4        1.0  0.36858  0.56040  0.16058  1.0000
  H   H5        1.0  0.38976  0.58372  0.92840  1.0000
  H   H6        1.0  0.61023  0.41626  0.07160  1.0000
  H   H7        1.0  0.99925  0.00569  0.81386  1.0000
  H   H8        1.0  0.00075  0.99430  0.18614  1.0000
  H   H9        1.0  0.51459  0.83588  0.27495  1.0000
  H   H10       1.0  0.48541  0.16411  0.72505  1.0000
  H   H11       1.0  0.36501  0.01428  0.17591  1.0000
  H   H12       1.0  0.63498  0.98571  0.82409  1.0000
  H   H13       1.0  0.56523  0.93105  0.07536  1.0000
  H   H14       1.0  0.43476  0.06892  0.92463  1.0000
  H   H15       1.0  0.04502  0.50709  0.16167  1.0000
  H   H16       1.0  0.95497  0.49286  0.83832  1.0000
  H   H17       1.0  0.69485  0.64226  0.35640  1.0000
  H   H18       1.0  0.30515  0.35776  0.64360  1.0000
  H   H19       1.0  0.05958  0.44003  0.26694  1.0000
  H   H20       1.0  0.94042  0.55997  0.73306  1.0000
  H   H21       1.0  0.49033  0.76038  0.65314  1.0000
  H   H22       1.0  0.50969  0.23963  0.34687  1.0000
  H   H23       1.0  0.29016  0.87671  0.44092  1.0000
  H   H24       1.0  0.70986  0.12332  0.55908  1.0000
  H   H25       1.0  0.05348  0.96510  0.43582  1.0000
  H   H26       1.0  0.94653  0.03492  0.56418  1.0000
  H   H27       1.0  0.06729  0.03130  0.70187  1.0000
  H   H28       1.0  0.93272  0.96868  0.29814  1.0000
  C   C1        1.0  0.26770  0.80956  0.76365  1.0000
  C   C2        1.0  0.73229  0.19042  0.23636  1.0000
  C   C3        1.0  0.44895  0.64704  0.77153  1.0000
  C   C4        1.0  0.55104  0.35292  0.22847  1.0000
  C   C5        1.0  0.49381  0.56547  0.83077  1.0000
  C   C6        1.0  0.50618  0.43450  0.16923  1.0000
  C   C7        1.0  0.35875  0.64453  0.88123  1.0000
  C   C8        1.0  0.64125  0.35545  0.11877  1.0000
  C   C9        1.0  0.14041  0.87849  0.81702  1.0000
  C   C10       1.0  0.85958  0.12149  0.18298  1.0000
  C   C11       1.0  0.79521  0.65594  0.22643  1.0000
  C   C12       1.0  0.20479  0.34405  0.77357  1.0000
  C   C13       1.0  0.59877  0.80069  0.23009  1.0000
  C   C14       1.0  0.40124  0.19930  0.76991  1.0000
  C   C15       1.0  0.51537  0.89986  0.17564  1.0000
  C   C16       1.0  0.48463  0.10013  0.82436  1.0000
  C   C17       1.0  0.62637  0.85481  0.11876  1.0000
  C   C18       1.0  0.37362  0.14517  0.88124  1.0000
  C   C19       1.0  0.89419  0.62055  0.16737  1.0000
  C   C20       1.0  0.10579  0.37942  0.83262  1.0000
  C   C21       1.0  0.98482  0.43276  0.38703  1.0000
  C   C22       1.0  0.01519  0.56730  0.61298  1.0000
  C   C23       1.0  0.84487  0.54856  0.33935  1.0000
  C   C24       1.0  0.15514  0.45145  0.66065  1.0000
  C   C25       1.0  0.90620  0.54157  0.27859  1.0000
  C   C26       1.0  0.09380  0.45843  0.72140  1.0000
  C   C27       1.0  0.33905  0.87317  0.65286  1.0000
  C   C28       1.0  0.66096  0.12685  0.34714  1.0000
  C   C29       1.0  0.29481  0.99101  0.59584  1.0000
  C   C30       1.0  0.70520  0.00901  0.40416  1.0000
  C   C31       1.0  0.45445  0.55151  0.46924  1.0000
  C   C32       1.0  0.54556  0.44854  0.53077  1.0000
  C   C33       1.0  0.21448  0.91122  0.70399  1.0000
  C   C34       1.0  0.78553  0.08877  0.29601  1.0000
  Br  Br1       1.0  0.24327  0.77656  0.04249  1.0000
  Br  Br2       1.0  0.75669  0.22345  0.95750  1.0000
  Br  Br3       1.0  0.22935  0.28931  0.05500  1.0000
  Br  Br4       1.0  0.77065  0.71063  0.94498  1.0000
  N   N1        1.0  0.18368  0.79908  0.87470  1.0000
  N   N2        1.0  0.81631  0.20090  0.12530  1.0000
  N   N3        1.0  0.81383  0.71605  0.11462  1.0000
  N   N4        1.0  0.18616  0.28391  0.88538  1.0000
  O   O1        1.0  0.50533  0.68679  0.45185  1.0000
  O   O2        1.0  0.49470  0.31325  0.54816  1.0000
  O   O3        1.0  0.44156  0.96327  0.55627  1.0000
  O   O4        1.0  0.55845  0.03677  0.44374  1.0000
  O   O5        1.0  0.92850  0.46645  0.44675  1.0000
  O   O6        1.0  0.07151  0.53361  0.55325  1.0000
  O   O7        1.0  0.15628  0.30555  0.37308  1.0000
  O   O8        1.0  0.84375  0.69452  0.62692  1.0000
  O   O9        1.0  0.12375  0.12330  0.58426  1.0000
  O   O10       1.0  0.87625  0.87672  0.41575  1.0000
  O   O11       1.0  0.33608  0.49753  0.44133  1.0000
  O   O12       1.0  0.66390  0.50254  0.55868  1.0000
  O   O13       1.0  0.16623  0.99480  0.44963  1.0000
  O   O14       1.0  0.83379  0.00524  0.55036  1.0000
