data_image0
_chemical_formula_structural       Cd4H56C28S8N16O16
_chemical_formula_sum              "Cd4 H56 C28 S8 N16 O16"
_cell_length_a       7.66021
_cell_length_b       11.3627
_cell_length_c       16
_cell_angle_alpha    90
_cell_angle_beta     100.351
_cell_angle_gamma    90

_space_group_name_H-M_alt    "P 1"
_space_group_IT_number       1

loop_
  _space_group_symop_operation_xyz
  'x, y, z'

loop_
  _atom_site_type_symbol
  _atom_site_label
  _atom_site_symmetry_multiplicity
  _atom_site_fract_x
  _atom_site_fract_y
  _atom_site_fract_z
  _atom_site_occupancy
  Cd  Cd1       1.0  0.86509  0.49368  0.01915  1.0000
  Cd  Cd2       1.0  0.86510  0.50632  0.51915  1.0000
  Cd  Cd3       1.0  0.44997  0.99202  0.70186  1.0000
  Cd  Cd4       1.0  0.44997  0.00798  0.20186  1.0000
  H   H1        1.0  0.82917  0.90003  0.11628  1.0000
  H   H2        1.0  0.82917  0.09997  0.61628  1.0000
  H   H3        1.0  0.04179  0.83891  0.12488  1.0000
  H   H4        1.0  0.04180  0.16109  0.62488  1.0000
  H   H5        1.0  0.60101  0.83210  0.00727  1.0000
  H   H6        1.0  0.60101  0.16790  0.50727  1.0000
  H   H7        1.0  0.65527  0.72333  0.93529  1.0000
  H   H8        1.0  0.65527  0.27667  0.43529  1.0000
  H   H9        1.0  0.69510  0.05542  0.03634  1.0000
  H   H10       1.0  0.69509  0.94458  0.53634  1.0000
  H   H11       1.0  0.73073  0.08960  0.93331  1.0000
  H   H12       1.0  0.73073  0.91040  0.43331  1.0000
  H   H13       1.0  0.84375  0.16236  0.15050  1.0000
  H   H14       1.0  0.84375  0.83763  0.65050  1.0000
  H   H15       1.0  0.96138  0.29278  0.13225  1.0000
  H   H16       1.0  0.96138  0.70721  0.63225  1.0000
  H   H17       1.0  0.29863  0.36389  0.91345  1.0000
  H   H18       1.0  0.29863  0.63611  0.41345  1.0000
  H   H19       1.0  0.22763  0.49204  0.95699  1.0000
  H   H20       1.0  0.22764  0.50796  0.45699  1.0000
  H   H21       1.0  0.23096  0.60013  0.81873  1.0000
  H   H22       1.0  0.23096  0.39987  0.31873  1.0000
  H   H23       1.0  0.31710  0.47447  0.77711  1.0000
  H   H24       1.0  0.31710  0.52553  0.27711  1.0000
  H   H25       1.0  0.04074  0.36047  0.79766  1.0000
  H   H26       1.0  0.04074  0.63953  0.29766  1.0000
  H   H27       1.0  0.94911  0.49239  0.82767  1.0000
  H   H28       1.0  0.94911  0.50761  0.32767  1.0000
  H   H29       1.0  0.66073  0.21955  0.78302  1.0000
  H   H30       1.0  0.66073  0.78045  0.28302  1.0000
  H   H31       1.0  0.71433  0.32990  0.71194  1.0000
  H   H32       1.0  0.71433  0.67010  0.21194  1.0000
  H   H33       1.0  0.27107  0.34003  0.59697  1.0000
  H   H34       1.0  0.27107  0.65997  0.09697  1.0000
  H   H35       1.0  0.48348  0.40094  0.60482  1.0000
  H   H36       1.0  0.48347  0.59906  0.10482  1.0000
  H   H37       1.0  0.35732  0.79089  0.58953  1.0000
  H   H38       1.0  0.35732  0.20911  0.08953  1.0000
  H   H39       1.0  0.47480  0.66034  0.57148  1.0000
  H   H40       1.0  0.47480  0.33966  0.07148  1.0000
  H   H41       1.0  0.58786  0.58808  0.78868  1.0000
  H   H42       1.0  0.58786  0.41192  0.28868  1.0000
  H   H43       1.0  0.62511  0.55430  0.68582  1.0000
  H   H44       1.0  0.62510  0.44570  0.18582  1.0000
  H   H45       1.0  0.02074  0.86550  0.80566  1.0000
  H   H46       1.0  0.02074  0.13450  0.30567  1.0000
  H   H47       1.0  0.08793  0.99719  0.76537  1.0000
  H   H48       1.0  0.08793  0.00280  0.26537  1.0000
  H   H49       1.0  0.07390  0.09802  0.90623  1.0000
  H   H50       1.0  0.07390  0.90198  0.40623  1.0000
  H   H51       1.0  0.00065  0.96563  0.94467  1.0000
  H   H52       1.0  0.00065  0.03437  0.44467  1.0000
  H   H53       1.0  0.28747  0.86712  0.91960  1.0000
  H   H54       1.0  0.28747  0.13288  0.41960  1.0000
  H   H55       1.0  0.36386  0.00588  0.89322  1.0000
  H   H56       1.0  0.36386  0.99412  0.39322  1.0000
  C   C1        1.0  0.49798  0.49293  0.94325  1.0000
  C   C2        1.0  0.49798  0.50707  0.44325  1.0000
  C   C3        1.0  0.30646  0.46077  0.91017  1.0000
  C   C4        1.0  0.30646  0.53923  0.41017  1.0000
  C   C5        1.0  0.23092  0.50350  0.82099  1.0000
  C   C6        1.0  0.23092  0.49650  0.32099  1.0000
  C   C7        1.0  0.04442  0.45677  0.78999  1.0000
  C   C8        1.0  0.04442  0.54323  0.28999  1.0000
  C   C9        1.0  0.97121  0.48268  0.69770  1.0000
  C   C10       1.0  0.97121  0.51732  0.19770  1.0000
  C   C11       1.0  0.86084  0.77545  0.02581  1.0000
  C   C12       1.0  0.86084  0.22456  0.52581  1.0000
  C   C13       1.0  0.84132  0.20497  0.02620  1.0000
  C   C14       1.0  0.84133  0.79503  0.52620  1.0000
  C   C15       1.0  0.81740  0.99275  0.77820  1.0000
  C   C16       1.0  0.81740  0.00724  0.27821  1.0000
  C   C17       1.0  0.00955  0.96193  0.81115  1.0000
  C   C18       1.0  0.00955  0.03807  0.31115  1.0000
  C   C19       1.0  0.08282  0.00186  0.90129  1.0000
  C   C20       1.0  0.08282  0.99814  0.40129  1.0000
  C   C21       1.0  0.27389  0.96217  0.93027  1.0000
  C   C22       1.0  0.27389  0.03783  0.43027  1.0000
  C   C23       1.0  0.34623  0.98542  0.02304  1.0000
  C   C24       1.0  0.34623  0.01458  0.52304  1.0000
  C   C25       1.0  0.45381  0.27453  0.69444  1.0000
  C   C26       1.0  0.45381  0.72548  0.19444  1.0000
  C   C27       1.0  0.47729  0.70333  0.69570  1.0000
  C   C28       1.0  0.47729  0.29667  0.19570  1.0000
  S   S1        1.0  0.01572  0.68565  0.98924  1.0000
  S   S2        1.0  0.01572  0.31435  0.48925  1.0000
  S   S3        1.0  0.91370  0.29691  0.95295  1.0000
  S   S4        1.0  0.91371  0.70309  0.45295  1.0000
  S   S5        1.0  0.29957  0.18438  0.73123  1.0000
  S   S6        1.0  0.29956  0.81562  0.23122  1.0000
  S   S7        1.0  0.40390  0.79525  0.76872  1.0000
  S   S8        1.0  0.40391  0.20475  0.26872  1.0000
  N   N1        1.0  0.91442  0.84605  0.09199  1.0000
  N   N2        1.0  0.91442  0.15395  0.59199  1.0000
  N   N3        1.0  0.69282  0.77640  0.98660  1.0000
  N   N4        1.0  0.69282  0.22360  0.48660  1.0000
  N   N5        1.0  0.74275  0.11210  0.99643  1.0000
  N   N6        1.0  0.74275  0.88790  0.49643  1.0000
  N   N7        1.0  0.88005  0.22422  0.10956  1.0000
  N   N8        1.0  0.88005  0.77578  0.60956  1.0000
  N   N9        1.0  0.62265  0.27396  0.73248  1.0000
  N   N10       1.0  0.62265  0.72604  0.23248  1.0000
  N   N11       1.0  0.39884  0.34675  0.62940  1.0000
  N   N12       1.0  0.39884  0.65325  0.12940  1.0000
  N   N13       1.0  0.43892  0.72251  0.61235  1.0000
  N   N14       1.0  0.43892  0.27749  0.11235  1.0000
  N   N15       1.0  0.57648  0.61076  0.72560  1.0000
  N   N16       1.0  0.57648  0.38924  0.22560  1.0000
  O   O1        1.0  0.55990  0.46667  0.02157  1.0000
  O   O2        1.0  0.55990  0.53333  0.52157  1.0000
  O   O3        1.0  0.59501  0.54113  0.89685  1.0000
  O   O4        1.0  0.59501  0.45888  0.39685  1.0000
  O   O5        1.0  0.05476  0.54998  0.65512  1.0000
  O   O6        1.0  0.05476  0.45002  0.15512  1.0000
  O   O7        1.0  0.82400  0.43385  0.66373  1.0000
  O   O8        1.0  0.82400  0.56616  0.16373  1.0000
  O   O9        1.0  0.75531  0.96508  0.70017  1.0000
  O   O10       1.0  0.75531  0.03491  0.20017  1.0000
  O   O11       1.0  0.72076  0.04188  0.82441  1.0000
  O   O12       1.0  0.72076  0.95812  0.32441  1.0000
  O   O13       1.0  0.26317  0.05277  0.06589  1.0000
  O   O14       1.0  0.26317  0.94723  0.56589  1.0000
  O   O15       1.0  0.49214  0.93510  0.05694  1.0000
  O   O16       1.0  0.49214  0.06490  0.55694  1.0000
