data_image0
_chemical_formula_structural       Cd2H40C44N8O12
_chemical_formula_sum              "Cd2 H40 C44 N8 O12"
_cell_length_a       8.37091
_cell_length_b       11.4967
_cell_length_c       11.6393
_cell_angle_alpha    113.533
_cell_angle_beta     90
_cell_angle_gamma    90

_space_group_name_H-M_alt    "P 1"
_space_group_IT_number       1

loop_
  _space_group_symop_operation_xyz
  'x, y, z'

loop_
  _atom_site_type_symbol
  _atom_site_label
  _atom_site_symmetry_multiplicity
  _atom_site_fract_x
  _atom_site_fract_y
  _atom_site_fract_z
  _atom_site_occupancy
  Cd  Cd1       1.0  0.40355  0.26220  0.08682  1.0000
  Cd  Cd2       1.0  0.59645  0.76220  0.58682  1.0000
  H   H1        1.0  0.76583  0.08258  0.01096  1.0000
  H   H2        1.0  0.23416  0.58258  0.51095  1.0000
  H   H3        1.0  0.02215  0.15930  0.90325  1.0000
  H   H4        1.0  0.97785  0.65930  0.40325  1.0000
  H   H5        1.0  0.63961  0.41778  0.96745  1.0000
  H   H6        1.0  0.36039  0.91778  0.46745  1.0000
  H   H7        1.0  0.07514  0.37217  0.88288  1.0000
  H   H8        1.0  0.92486  0.87217  0.38288  1.0000
  H   H9        1.0  0.91545  0.48052  0.91264  1.0000
  H   H10       1.0  0.08455  0.98053  0.41264  1.0000
  H   H11       1.0  0.75786  0.18282  0.70050  1.0000
  H   H12       1.0  0.24213  0.68282  0.20050  1.0000
  H   H13       1.0  0.07317  0.48514  0.71790  1.0000
  H   H14       1.0  0.92683  0.98514  0.21790  1.0000
  H   H15       1.0  0.01638  0.43918  0.49547  1.0000
  H   H16       1.0  0.98362  0.93918  0.99547  1.0000
  H   H17       1.0  0.71075  0.13020  0.47689  1.0000
  H   H18       1.0  0.28925  0.63020  0.97689  1.0000
  H   H19       1.0  0.78308  0.15878  0.28389  1.0000
  H   H20       1.0  0.21692  0.65877  0.78389  1.0000
  H   H21       1.0  0.70339  0.31288  0.33657  1.0000
  H   H22       1.0  0.29662  0.81288  0.83657  1.0000
  H   H23       1.0  0.82697  0.46880  0.27063  1.0000
  H   H24       1.0  0.17303  0.96880  0.77063  1.0000
  H   H25       1.0  0.11405  0.47508  0.14990  1.0000
  H   H26       1.0  0.88595  0.97508  0.64990  1.0000
  H   H27       1.0  0.11477  0.15454  0.24010  1.0000
  H   H28       1.0  0.88523  0.65454  0.74010  1.0000
  H   H29       1.0  0.45295  0.47965  0.81949  1.0000
  H   H30       1.0  0.54704  0.97965  0.31949  1.0000
  H   H31       1.0  0.25658  0.10732  0.62371  1.0000
  H   H32       1.0  0.74342  0.60732  0.12371  1.0000
  H   H33       1.0  0.42857  0.31852  0.41547  1.0000
  H   H34       1.0  0.57143  0.81851  0.91547  1.0000
  H   H35       1.0  0.35345  0.10957  0.32567  1.0000
  H   H36       1.0  0.64655  0.60957  0.82567  1.0000
  H   H37       1.0  0.55832  0.52740  0.26056  1.0000
  H   H38       1.0  0.44168  0.02740  0.76056  1.0000
  H   H39       1.0  0.49156  0.47012  0.34845  1.0000
  H   H40       1.0  0.50844  0.97012  0.84845  1.0000
  C   C1        1.0  0.77819  0.16437  0.98757  1.0000
  C   C2        1.0  0.22181  0.66437  0.48757  1.0000
  C   C3        1.0  0.90452  0.19935  0.93285  1.0000
  C   C4        1.0  0.09548  0.69935  0.43285  1.0000
  C   C5        1.0  0.70755  0.33785  0.96813  1.0000
  C   C6        1.0  0.29245  0.83785  0.46813  1.0000
  C   C7        1.0  0.94814  0.38014  0.86433  1.0000
  C   C8        1.0  0.05187  0.88014  0.36433  1.0000
  C   C9        1.0  0.91698  0.33967  0.72583  1.0000
  C   C10       1.0  0.08302  0.83967  0.22583  1.0000
  C   C11       1.0  0.81664  0.23900  0.65623  1.0000
  C   C12       1.0  0.18336  0.73900  0.15623  1.0000
  C   C13       1.0  0.99040  0.40921  0.66545  1.0000
  C   C14       1.0  0.00960  0.90921  0.16545  1.0000
  C   C15       1.0  0.95998  0.38227  0.53996  1.0000
  C   C16       1.0  0.04002  0.88227  0.03996  1.0000
  C   C17       1.0  0.85680  0.28316  0.47080  1.0000
  C   C18       1.0  0.14320  0.78317  0.97080  1.0000
  C   C19       1.0  0.78852  0.20999  0.52935  1.0000
  C   C20       1.0  0.21148  0.71000  0.02935  1.0000
  C   C21       1.0  0.81174  0.25929  0.33754  1.0000
  C   C22       1.0  0.18826  0.75929  0.83754  1.0000
  C   C23       1.0  0.92910  0.40548  0.24507  1.0000
  C   C24       1.0  0.07090  0.90548  0.74507  1.0000
  C   C25       1.0  0.07065  0.40765  0.18626  1.0000
  C   C26       1.0  0.92935  0.90765  0.68626  1.0000
  C   C27       1.0  0.07700  0.24006  0.22986  1.0000
  C   C28       1.0  0.92300  0.74006  0.72986  1.0000
  C   C29       1.0  0.52293  0.52782  0.61212  1.0000
  C   C30       1.0  0.47707  0.02782  0.11212  1.0000
  C   C31       1.0  0.44794  0.41217  0.61695  1.0000
  C   C32       1.0  0.55206  0.91217  0.11695  1.0000
  C   C33       1.0  0.41952  0.40327  0.73148  1.0000
  C   C34       1.0  0.58048  0.90326  0.23148  1.0000
  C   C35       1.0  0.35219  0.29255  0.73283  1.0000
  C   C36       1.0  0.64781  0.79255  0.23283  1.0000
  C   C37       1.0  0.33385  0.27763  0.85427  1.0000
  C   C38       1.0  0.66615  0.77763  0.35427  1.0000
  C   C39       1.0  0.30945  0.19268  0.62092  1.0000
  C   C40       1.0  0.69054  0.69268  0.12092  1.0000
  C   C41       1.0  0.33631  0.20178  0.50621  1.0000
  C   C42       1.0  0.66369  0.70178  0.00621  1.0000
  C   C43       1.0  0.40597  0.31184  0.50467  1.0000
  C   C44       1.0  0.59403  0.81184  0.00467  1.0000
  N   N1        1.0  0.65656  0.25179  0.00958  1.0000
  N   N2        1.0  0.34344  0.75179  0.50958  1.0000
  N   N3        1.0  0.85756  0.30930  0.92140  1.0000
  N   N4        1.0  0.14244  0.80931  0.42140  1.0000
  N   N5        1.0  0.93471  0.29848  0.27138  1.0000
  N   N6        1.0  0.06529  0.79847  0.77138  1.0000
  N   N7        1.0  0.16133  0.30416  0.17745  1.0000
  N   N8        1.0  0.83867  0.80416  0.67745  1.0000
  O   O1        1.0  0.30770  0.16682  0.85070  1.0000
  O   O2        1.0  0.69230  0.66682  0.35069  1.0000
  O   O3        1.0  0.34896  0.37611  0.95635  1.0000
  O   O4        1.0  0.65104  0.87611  0.45635  1.0000
  O   O5        1.0  0.55210  0.53088  0.50625  1.0000
  O   O6        1.0  0.44790  0.03088  0.00625  1.0000
  O   O7        1.0  0.55212  0.62421  0.71447  1.0000
  O   O8        1.0  0.44788  0.12421  0.21447  1.0000
  O   O9        1.0  0.29573  0.10194  0.39912  1.0000
  O   O10       1.0  0.70427  0.60194  0.89912  1.0000
  O   O11       1.0  0.48910  0.45736  0.25917  1.0000
  O   O12       1.0  0.51090  0.95736  0.75917  1.0000
