data_image0
_chemical_formula_structural       V4H56C32Cl8O20
_chemical_formula_sum              "V4 H56 C32 Cl8 O20"
_cell_length_a       8.70319
_cell_length_b       9.70372
_cell_length_c       15.3393
_cell_angle_alpha    90
_cell_angle_beta     94.6538
_cell_angle_gamma    90

_space_group_name_H-M_alt    "P 1"
_space_group_IT_number       1

loop_
  _space_group_symop_operation_xyz
  'x, y, z'

loop_
  _atom_site_type_symbol
  _atom_site_label
  _atom_site_symmetry_multiplicity
  _atom_site_fract_x
  _atom_site_fract_y
  _atom_site_fract_z
  _atom_site_occupancy
  V   V1        1.0  0.43020  0.55024  0.24623  1.0000
  V   V2        1.0  0.06980  0.05024  0.75377  1.0000
  V   V3        1.0  0.56980  0.44976  0.75377  1.0000
  V   V4        1.0  0.93022  0.94976  0.24624  1.0000
  H   H1        1.0  0.81981  0.41143  0.27525  1.0000
  H   H2        1.0  0.68020  0.91143  0.72475  1.0000
  H   H3        1.0  0.18020  0.58856  0.72475  1.0000
  H   H4        1.0  0.31981  0.08857  0.27525  1.0000
  H   H5        1.0  0.82532  0.58358  0.31202  1.0000
  H   H6        1.0  0.67468  0.08358  0.68798  1.0000
  H   H7        1.0  0.17468  0.41642  0.68798  1.0000
  H   H8        1.0  0.32533  0.91642  0.31202  1.0000
  H   H9        1.0  0.05873  0.45106  0.19489  1.0000
  H   H10       1.0  0.44128  0.95106  0.80511  1.0000
  H   H11       1.0  0.94127  0.54894  0.80511  1.0000
  H   H12       1.0  0.55873  0.04894  0.19489  1.0000
  H   H13       1.0  0.06597  0.62329  0.22825  1.0000
  H   H14       1.0  0.43403  0.12329  0.77175  1.0000
  H   H15       1.0  0.93403  0.37671  0.77174  1.0000
  H   H16       1.0  0.56598  0.87671  0.22825  1.0000
  H   H17       1.0  0.66518  0.70419  0.04908  1.0000
  H   H18       1.0  0.83483  0.20419  0.95092  1.0000
  H   H19       1.0  0.33483  0.29581  0.95092  1.0000
  H   H20       1.0  0.16517  0.79581  0.04908  1.0000
  H   H21       1.0  0.68246  0.54019  0.99735  1.0000
  H   H22       1.0  0.81754  0.04019  0.00265  1.0000
  H   H23       1.0  0.31754  0.45981  0.00266  1.0000
  H   H24       1.0  0.18246  0.95981  0.99735  1.0000
  H   H25       1.0  0.94805  0.61196  0.95470  1.0000
  H   H26       1.0  0.55195  0.11196  0.04530  1.0000
  H   H27       1.0  0.05195  0.38804  0.04530  1.0000
  H   H28       1.0  0.44805  0.88804  0.95470  1.0000
  H   H29       1.0  0.92075  0.77624  0.00373  1.0000
  H   H30       1.0  0.57925  0.27624  0.99627  1.0000
  H   H31       1.0  0.07926  0.22376  0.99627  1.0000
  H   H32       1.0  0.42074  0.72376  0.00372  1.0000
  H   H33       1.0  0.80082  0.72409  0.90991  1.0000
  H   H34       1.0  0.69918  0.22409  0.09009  1.0000
  H   H35       1.0  0.19919  0.27591  0.09009  1.0000
  H   H36       1.0  0.30081  0.77591  0.90991  1.0000
  H   H37       1.0  0.07992  0.37520  0.52058  1.0000
  H   H38       1.0  0.42008  0.87520  0.47942  1.0000
  H   H39       1.0  0.92008  0.62480  0.47942  1.0000
  H   H40       1.0  0.57992  0.12480  0.52058  1.0000
  H   H41       1.0  0.25651  0.43476  0.48118  1.0000
  H   H42       1.0  0.24349  0.93476  0.51882  1.0000
  H   H43       1.0  0.74349  0.56523  0.51882  1.0000
  H   H44       1.0  0.75652  0.06524  0.48118  1.0000
  H   H45       1.0  0.27621  0.21712  0.39493  1.0000
  H   H46       1.0  0.22379  0.71713  0.60507  1.0000
  H   H47       1.0  0.72378  0.78287  0.60507  1.0000
  H   H48       1.0  0.77620  0.28288  0.39493  1.0000
  H   H49       1.0  0.09559  0.15938  0.42995  1.0000
  H   H50       1.0  0.40441  0.65937  0.57005  1.0000
  H   H51       1.0  0.90440  0.84062  0.57005  1.0000
  H   H52       1.0  0.59558  0.34063  0.42995  1.0000
  H   H53       1.0  0.25799  0.17840  0.50716  1.0000
  H   H54       1.0  0.24201  0.67841  0.49284  1.0000
  H   H55       1.0  0.74200  0.82159  0.49283  1.0000
  H   H56       1.0  0.75798  0.32160  0.50716  1.0000
  C   C1        1.0  0.75926  0.55924  0.17881  1.0000
  C   C2        1.0  0.74072  0.05924  0.82119  1.0000
  C   C3        1.0  0.24072  0.44076  0.82119  1.0000
  C   C4        1.0  0.25928  0.94076  0.17881  1.0000
  C   C5        1.0  0.85706  0.51606  0.25878  1.0000
  C   C6        1.0  0.64295  0.01606  0.74122  1.0000
  C   C7        1.0  0.14295  0.48394  0.74122  1.0000
  C   C8        1.0  0.35706  0.98394  0.25878  1.0000
  C   C9        1.0  0.02900  0.52048  0.24770  1.0000
  C   C10       1.0  0.47100  0.02048  0.75230  1.0000
  C   C11       1.0  0.97099  0.47952  0.75230  1.0000
  C   C12       1.0  0.52901  0.97952  0.24770  1.0000
  C   C13       1.0  0.13121  0.47882  0.32610  1.0000
  C   C14       1.0  0.36880  0.97882  0.67390  1.0000
  C   C15       1.0  0.86880  0.52118  0.67390  1.0000
  C   C16       1.0  0.63121  0.02118  0.32610  1.0000
  C   C17       1.0  0.74669  0.62715  0.02840  1.0000
  C   C18       1.0  0.75332  0.12715  0.97160  1.0000
  C   C19       1.0  0.25332  0.37285  0.97160  1.0000
  C   C20       1.0  0.24668  0.87285  0.02840  1.0000
  C   C21       1.0  0.86172  0.68815  0.97112  1.0000
  C   C22       1.0  0.63829  0.18815  0.02889  1.0000
  C   C23       1.0  0.13829  0.31185  0.02889  1.0000
  C   C24       1.0  0.36171  0.81185  0.97111  1.0000
  C   C25       1.0  0.15522  0.36908  0.46692  1.0000
  C   C26       1.0  0.34478  0.86908  0.53309  1.0000
  C   C27       1.0  0.84478  0.63092  0.53308  1.0000
  C   C28       1.0  0.65522  0.13092  0.46692  1.0000
  C   C29       1.0  0.19843  0.22201  0.44766  1.0000
  C   C30       1.0  0.30157  0.72201  0.55234  1.0000
  C   C31       1.0  0.80157  0.77799  0.55234  1.0000
  C   C32       1.0  0.69842  0.27799  0.44766  1.0000
  Cl  Cl1       1.0  0.54508  0.67223  0.36137  1.0000
  Cl  Cl2       1.0  0.95491  0.17223  0.63863  1.0000
  Cl  Cl3       1.0  0.45491  0.32777  0.63863  1.0000
  Cl  Cl4       1.0  0.04509  0.82777  0.36137  1.0000
  Cl  Cl5       1.0  0.45321  0.32282  0.21186  1.0000
  Cl  Cl6       1.0  0.04679  0.82281  0.78814  1.0000
  Cl  Cl7       1.0  0.54678  0.67719  0.78814  1.0000
  Cl  Cl8       1.0  0.95322  0.17719  0.21186  1.0000
  O   O1        1.0  0.31653  0.63755  0.18015  1.0000
  O   O2        1.0  0.18347  0.13755  0.81985  1.0000
  O   O3        1.0  0.68347  0.36245  0.81985  1.0000
  O   O4        1.0  0.81654  0.86245  0.18016  1.0000
  O   O5        1.0  0.61758  0.57930  0.17701  1.0000
  O   O6        1.0  0.88242  0.07930  0.82299  1.0000
  O   O7        1.0  0.38243  0.42069  0.82299  1.0000
  O   O8        1.0  0.11759  0.92070  0.17701  1.0000
  O   O9        1.0  0.83358  0.57445  0.10764  1.0000
  O   O10       1.0  0.66642  0.07445  0.89236  1.0000
  O   O11       1.0  0.16642  0.42555  0.89236  1.0000
  O   O12       1.0  0.33358  0.92555  0.10764  1.0000
  O   O13       1.0  0.27499  0.48791  0.33037  1.0000
  O   O14       1.0  0.22501  0.98790  0.66963  1.0000
  O   O15       1.0  0.72501  0.51210  0.66963  1.0000
  O   O16       1.0  0.77499  0.01210  0.33037  1.0000
  O   O17       1.0  0.06026  0.42795  0.39196  1.0000
  O   O18       1.0  0.43974  0.92795  0.60804  1.0000
  O   O19       1.0  0.93974  0.57205  0.60804  1.0000
  O   O20       1.0  0.56026  0.07205  0.39196  1.0000
