data_image0
_chemical_formula_structural       Hg2H40C54N4Cl4O8
_chemical_formula_sum              "Hg2 H40 C54 N4 Cl4 O8"
_cell_length_a       10.4455
_cell_length_b       11.1273
_cell_length_c       14.0039
_cell_angle_alpha    109.574
_cell_angle_beta     91.0303
_cell_angle_gamma    103.746

_space_group_name_H-M_alt    "P 1"
_space_group_IT_number       1

loop_
  _space_group_symop_operation_xyz
  'x, y, z'

loop_
  _atom_site_type_symbol
  _atom_site_label
  _atom_site_symmetry_multiplicity
  _atom_site_fract_x
  _atom_site_fract_y
  _atom_site_fract_z
  _atom_site_occupancy
  Hg  Hg1       1.0  0.15833  0.19529  0.78845  1.0000
  Hg  Hg2       1.0  0.84167  0.80471  0.21155  1.0000
  H   H1        1.0  0.91830  0.95022  0.64854  1.0000
  H   H2        1.0  0.08170  0.04978  0.35146  1.0000
  H   H3        1.0  0.73961  0.87816  0.50252  1.0000
  H   H4        1.0  0.26039  0.12184  0.49747  1.0000
  H   H5        1.0  0.85496  0.27482  0.49697  1.0000
  H   H6        1.0  0.14504  0.72518  0.50303  1.0000
  H   H7        1.0  0.02417  0.33209  0.64473  1.0000
  H   H8        1.0  0.97583  0.66791  0.35527  1.0000
  H   H9        1.0  0.47729  0.02010  0.29000  1.0000
  H   H10       1.0  0.52271  0.97990  0.70999  1.0000
  H   H11       1.0  0.61611  0.05573  0.22149  1.0000
  H   H12       1.0  0.38389  0.94427  0.77851  1.0000
  H   H13       1.0  0.58658  0.31682  0.51356  1.0000
  H   H14       1.0  0.41342  0.68318  0.48645  1.0000
  H   H15       1.0  0.42436  0.38977  0.63309  1.0000
  H   H16       1.0  0.57564  0.61024  0.36692  1.0000
  H   H17       1.0  0.20594  0.39772  0.56812  1.0000
  H   H18       1.0  0.79406  0.60228  0.43188  1.0000
  H   H19       1.0  0.13890  0.32068  0.38108  1.0000
  H   H20       1.0  0.86110  0.67931  0.61892  1.0000
  H   H21       1.0  0.11250  0.21278  0.18249  1.0000
  H   H22       1.0  0.88750  0.78722  0.81751  1.0000
  H   H23       1.0  0.14102  0.11985  0.99769  1.0000
  H   H24       1.0  0.85898  0.88015  0.00231  1.0000
  H   H25       1.0  0.35410  0.08103  0.94282  1.0000
  H   H26       1.0  0.64590  0.91897  0.05718  1.0000
  H   H27       1.0  0.54357  0.12201  0.07107  1.0000
  H   H28       1.0  0.45643  0.87799  0.92893  1.0000
  H   H29       1.0  0.72140  0.35543  0.36892  1.0000
  H   H30       1.0  0.27859  0.64457  0.63108  1.0000
  H   H31       1.0  0.62865  0.42192  0.30027  1.0000
  H   H32       1.0  0.37135  0.57808  0.69973  1.0000
  H   H33       1.0  0.76370  0.14010  0.04453  1.0000
  H   H34       1.0  0.23630  0.85991  0.95547  1.0000
  H   H35       1.0  0.87045  0.09355  0.88276  1.0000
  H   H36       1.0  0.12955  0.90646  0.11724  1.0000
  H   H37       1.0  0.16359  0.44459  0.99857  1.0000
  H   H38       1.0  0.83641  0.55541  0.00144  1.0000
  H   H39       1.0  0.07123  0.50387  0.16908  1.0000
  H   H40       1.0  0.92877  0.49613  0.83092  1.0000
  C   C1        1.0  0.89950  0.01888  0.61304  1.0000
  C   C2        1.0  0.10050  0.98112  0.38696  1.0000
  C   C3        1.0  0.80122  0.97921  0.53241  1.0000
  C   C4        1.0  0.19878  0.02079  0.46759  1.0000
  C   C5        1.0  0.78359  0.07129  0.48914  1.0000
  C   C6        1.0  0.21642  0.92871  0.51086  1.0000
  C   C7        1.0  0.86455  0.20042  0.52909  1.0000
  C   C8        1.0  0.13545  0.79958  0.47091  1.0000
  C   C9        1.0  0.95998  0.23222  0.61058  1.0000
  C   C10       1.0  0.04002  0.76779  0.38942  1.0000
  C   C11       1.0  0.68008  0.02584  0.40059  1.0000
  C   C12       1.0  0.31993  0.97416  0.59941  1.0000
  C   C13       1.0  0.56618  0.09557  0.28899  1.0000
  C   C14       1.0  0.43382  0.90443  0.71101  1.0000
  C   C15       1.0  0.53161  0.22262  0.29130  1.0000
  C   C16       1.0  0.46839  0.77738  0.70870  1.0000
  C   C17       1.0  0.45212  0.27342  0.37968  1.0000
  C   C18       1.0  0.54788  0.72658  0.62031  1.0000
  C   C19       1.0  0.48939  0.31690  0.48400  1.0000
  C   C20       1.0  0.51061  0.68310  0.51600  1.0000
  C   C21       1.0  0.39872  0.35996  0.55120  1.0000
  C   C22       1.0  0.60128  0.64004  0.44880  1.0000
  C   C23       1.0  0.27412  0.36211  0.51420  1.0000
  C   C24       1.0  0.72588  0.63789  0.48580  1.0000
  C   C25       1.0  0.23624  0.31899  0.40949  1.0000
  C   C26       1.0  0.76376  0.68101  0.59051  1.0000
  C   C27       1.0  0.32555  0.27307  0.34214  1.0000
  C   C28       1.0  0.67445  0.72693  0.65786  1.0000
  C   C29       1.0  0.31351  0.22034  0.23060  1.0000
  C   C30       1.0  0.68649  0.77965  0.76940  1.0000
  C   C31       1.0  0.20707  0.19509  0.15869  1.0000
  C   C32       1.0  0.79293  0.80491  0.84131  1.0000
  C   C33       1.0  0.22321  0.14345  0.05534  1.0000
  C   C34       1.0  0.77679  0.85656  0.94466  1.0000
  C   C35       1.0  0.34392  0.11905  0.02412  1.0000
  C   C36       1.0  0.65608  0.88095  0.97588  1.0000
  C   C37       1.0  0.45020  0.14211  0.09590  1.0000
  C   C38       1.0  0.54981  0.85789  0.90410  1.0000
  C   C39       1.0  0.43403  0.19197  0.19897  1.0000
  C   C40       1.0  0.56597  0.80803  0.80103  1.0000
  C   C41       1.0  0.65596  0.33244  0.29963  1.0000
  C   C42       1.0  0.34404  0.66756  0.70037  1.0000
  C   C43       1.0  0.85371  0.36171  0.21947  1.0000
  C   C44       1.0  0.14629  0.63829  0.78053  1.0000
  C   C45       1.0  0.90936  0.32700  0.11918  1.0000
  C   C46       1.0  0.09064  0.67300  0.88082  1.0000
  C   C47       1.0  0.85123  0.21099  0.03750  1.0000
  C   C48       1.0  0.14877  0.78901  0.96250  1.0000
  C   C49       1.0  0.91022  0.18523  0.94700  1.0000
  C   C50       1.0  0.08978  0.81477  0.05300  1.0000
  C   C51       1.0  0.07477  0.38075  0.01278  1.0000
  C   C52       1.0  0.92523  0.61925  0.98722  1.0000
  C   C53       1.0  0.02366  0.41323  0.10651  1.0000
  C   C54       1.0  0.97634  0.58677  0.89349  1.0000
  N   N1        1.0  0.97733  0.14283  0.65122  1.0000
  N   N2        1.0  0.02267  0.85716  0.34878  1.0000
  N   N3        1.0  0.01930  0.26880  0.93469  1.0000
  N   N4        1.0  0.98070  0.73120  0.06531  1.0000
  Cl  Cl1       1.0  0.11356  0.96966  0.78194  1.0000
  Cl  Cl2       1.0  0.88644  0.03034  0.21806  1.0000
  Cl  Cl3       1.0  0.29091  0.41144  0.81523  1.0000
  Cl  Cl4       1.0  0.70908  0.58856  0.18477  1.0000
  O   O1        1.0  0.62268  0.91002  0.35479  1.0000
  O   O2        1.0  0.37733  0.08997  0.64520  1.0000
  O   O3        1.0  0.65792  0.12838  0.37817  1.0000
  O   O4        1.0  0.34208  0.87162  0.62183  1.0000
  O   O5        1.0  0.72693  0.29188  0.21116  1.0000
  O   O6        1.0  0.27307  0.70812  0.78884  1.0000
  O   O7        1.0  0.91599  0.44414  0.29864  1.0000
  O   O8        1.0  0.08401  0.55586  0.70136  1.0000
