data_image0
_chemical_formula_structural       AgH13C14N2O4
_chemical_formula_sum              "Ag1 H13 C14 N2 O4"
_cell_length_a       6.13218
_cell_length_b       6.82026
_cell_length_c       7.82641
_cell_angle_alpha    80.8706
_cell_angle_beta     76.2166
_cell_angle_gamma    75.5994

_space_group_name_H-M_alt    "P 1"
_space_group_IT_number       1

loop_
  _space_group_symop_operation_xyz
  'x, y, z'

loop_
  _atom_site_type_symbol
  _atom_site_label
  _atom_site_symmetry_multiplicity
  _atom_site_fract_x
  _atom_site_fract_y
  _atom_site_fract_z
  _atom_site_occupancy
  Ag  Ag1       1.0  0.99978  0.99895  0.00144  1.0000
  H   H1        1.0  0.82414  0.68678  0.00151  1.0000
  H   H2        1.0  0.17750  0.30889  0.00171  1.0000
  H   H3        1.0  0.00778  0.61598  0.13790  1.0000
  H   H4        1.0  0.99292  0.37879  0.86565  1.0000
  H   H5        1.0  0.90605  0.63994  0.44513  1.0000
  H   H6        1.0  0.09362  0.35721  0.55675  1.0000
  H   H7        1.0  0.42406  0.87847  0.10306  1.0000
  H   H8        1.0  0.57866  0.12376  0.89700  1.0000
  H   H9        1.0  0.10319  0.91262  0.36514  1.0000
  H   H10       1.0  0.89832  0.09043  0.63359  1.0000
  H   H11       1.0  0.18052  0.79636  0.66792  1.0000
  H   H12       1.0  0.81807  0.20670  0.33136  1.0000
  H   H13       1.0  0.49272  0.51196  0.99057  1.0000
  C   C1        1.0  0.60327  0.64813  0.75220  1.0000
  C   C2        1.0  0.39827  0.35119  0.24556  1.0000
  C   C3        1.0  0.54901  0.71806  0.57441  1.0000
  C   C4        1.0  0.45021  0.28226  0.42585  1.0000
  C   C5        1.0  0.73061  0.70139  0.42658  1.0000
  C   C6        1.0  0.26960  0.29750  0.57455  1.0000
  C   C7        1.0  0.68597  0.75537  0.25694  1.0000
  C   C8        1.0  0.31518  0.24328  0.74415  1.0000
  C   C9        1.0  0.45950  0.83492  0.23572  1.0000
  C   C10       1.0  0.54226  0.16580  0.76456  1.0000
  C   C11       1.0  0.27916  0.85201  0.38316  1.0000
  C   C12       1.0  0.72176  0.14961  0.61640  1.0000
  C   C13       1.0  0.32173  0.79044  0.55279  1.0000
  C   C14       1.0  0.67772  0.21060  0.44707  1.0000
  N   N1        1.0  0.87219  0.73007  0.10568  1.0000
  N   N2        1.0  0.12983  0.26633  0.89650  1.0000
  O   O1        1.0  0.80501  0.61615  0.77568  1.0000
  O   O2        1.0  0.19350  0.38143  0.22464  1.0000
  O   O3        1.0  0.42794  0.61976  0.88003  1.0000
  O   O4        1.0  0.56996  0.37886  0.11881  1.0000
