data_image0
_chemical_formula_structural       Ag4H24C28N4O8
_chemical_formula_sum              "Ag4 H24 C28 N4 O8"
_cell_length_a       5.41299
_cell_length_b       7.62004
_cell_length_c       16.9618
_cell_angle_alpha    90.0003
_cell_angle_beta     89.9988
_cell_angle_gamma    93.4136

_space_group_name_H-M_alt    "P 1"
_space_group_IT_number       1

loop_
  _space_group_symop_operation_xyz
  'x, y, z'

loop_
  _atom_site_type_symbol
  _atom_site_label
  _atom_site_symmetry_multiplicity
  _atom_site_fract_x
  _atom_site_fract_y
  _atom_site_fract_z
  _atom_site_occupancy
  Ag  Ag1       1.0  0.10682  0.94939  0.72214  1.0000
  Ag  Ag2       1.0  0.39319  0.05059  0.22214  1.0000
  Ag  Ag3       1.0  0.89319  0.05061  0.27787  1.0000
  Ag  Ag4       1.0  0.60682  0.94941  0.77786  1.0000
  H   H1        1.0  0.80632  0.32372  0.43434  1.0000
  H   H2        1.0  0.69370  0.67625  0.93433  1.0000
  H   H3        1.0  0.19367  0.67630  0.56566  1.0000
  H   H4        1.0  0.30631  0.32373  0.06567  1.0000
  H   H5        1.0  0.90428  0.46746  0.56418  1.0000
  H   H6        1.0  0.59568  0.53253  0.06417  1.0000
  H   H7        1.0  0.09570  0.53255  0.43582  1.0000
  H   H8        1.0  0.40433  0.46745  0.93582  1.0000
  H   H9        1.0  0.60019  0.44230  0.67360  1.0000
  H   H10       1.0  0.89975  0.55769  0.17359  1.0000
  H   H11       1.0  0.39980  0.55771  0.32641  1.0000
  H   H12       1.0  0.10026  0.44228  0.82640  1.0000
  H   H13       1.0  0.11470  0.11136  0.52828  1.0000
  H   H14       1.0  0.38529  0.88862  0.02827  1.0000
  H   H15       1.0  0.88530  0.88864  0.47172  1.0000
  H   H16       1.0  0.61470  0.11138  0.97173  1.0000
  H   H17       1.0  0.99315  0.23528  0.65208  1.0000
  H   H18       1.0  0.50681  0.76468  0.15208  1.0000
  H   H19       1.0  0.00685  0.76472  0.34792  1.0000
  H   H20       1.0  0.49318  0.23531  0.84792  1.0000
  H   H21       1.0  0.19642  0.33128  0.71545  1.0000
  H   H22       1.0  0.30352  0.66871  0.21545  1.0000
  H   H23       1.0  0.80359  0.66872  0.28455  1.0000
  H   H24       1.0  0.69649  0.33128  0.78455  1.0000
  C   C1        1.0  0.67901  0.30884  0.48384  1.0000
  C   C2        1.0  0.82098  0.69114  0.98383  1.0000
  C   C3        1.0  0.32099  0.69117  0.51616  1.0000
  C   C4        1.0  0.17902  0.30885  0.01616  1.0000
  C   C5        1.0  0.73330  0.38652  0.55663  1.0000
  C   C6        1.0  0.76669  0.61347  0.05662  1.0000
  C   C7        1.0  0.26669  0.61350  0.44338  1.0000
  C   C8        1.0  0.23333  0.38651  0.94338  1.0000
  C   C9        1.0  0.56562  0.36826  0.61911  1.0000
  C   C10       1.0  0.93433  0.63174  0.11911  1.0000
  C   C11       1.0  0.43437  0.63175  0.38089  1.0000
  C   C12       1.0  0.06568  0.36825  0.88088  1.0000
  C   C13       1.0  0.34402  0.26617  0.60930  1.0000
  C   C14       1.0  0.15594  0.73382  0.10930  1.0000
  C   C15       1.0  0.65598  0.73384  0.39070  1.0000
  C   C16       1.0  0.84406  0.26617  0.89070  1.0000
  C   C17       1.0  0.28863  0.18870  0.53625  1.0000
  C   C18       1.0  0.21133  0.81130  0.03625  1.0000
  C   C19       1.0  0.71136  0.81131  0.46375  1.0000
  C   C20       1.0  0.78866  0.18871  0.96375  1.0000
  C   C21       1.0  0.45223  0.21374  0.47304  1.0000
  C   C22       1.0  0.04777  0.78624  0.97303  1.0000
  C   C23       1.0  0.54776  0.78626  0.52697  1.0000
  C   C24       1.0  0.95223  0.21376  0.02697  1.0000
  C   C25       1.0  0.37192  0.14800  0.39301  1.0000
  C   C26       1.0  0.12810  0.85198  0.89301  1.0000
  C   C27       1.0  0.62809  0.85202  0.60699  1.0000
  C   C28       1.0  0.87190  0.14802  0.10699  1.0000
  N   N1        1.0  0.17207  0.23946  0.67206  1.0000
  N   N2        1.0  0.32788  0.76053  0.17206  1.0000
  N   N3        1.0  0.82792  0.76054  0.32794  1.0000
  N   N4        1.0  0.67213  0.23947  0.82794  1.0000
  O   O1        1.0  0.51093  0.19453  0.33401  1.0000
  O   O2        1.0  0.98911  0.80544  0.83401  1.0000
  O   O3        1.0  0.48908  0.80548  0.66599  1.0000
  O   O4        1.0  0.01089  0.19455  0.16599  1.0000
  O   O5        1.0  0.16810  0.05812  0.38821  1.0000
  O   O6        1.0  0.33192  0.94187  0.88821  1.0000
  O   O7        1.0  0.83189  0.94190  0.61179  1.0000
  O   O8        1.0  0.66807  0.05814  0.11179  1.0000
