data_image0
_chemical_formula_structural       Co3H12C6O18
_chemical_formula_sum              "Co3 H12 C6 O18"
_cell_length_a       6.02053
_cell_length_b       7.1637
_cell_length_c       11.8255
_cell_angle_alpha    62.8182
_cell_angle_beta     75.6974
_cell_angle_gamma    52.7642

_space_group_name_H-M_alt    "P 1"
_space_group_IT_number       1

loop_
  _space_group_symop_operation_xyz
  'x, y, z'

loop_
  _atom_site_type_symbol
  _atom_site_label
  _atom_site_symmetry_multiplicity
  _atom_site_fract_x
  _atom_site_fract_y
  _atom_site_fract_z
  _atom_site_occupancy
  Co  Co1       1.0  0.50001  0.16666  0.66665  1.0000
  Co  Co2       1.0  0.49982  0.83365  0.33349  1.0000
  Co  Co3       1.0  0.50017  0.49969  0.99989  1.0000
  H   H1        1.0  0.19197  0.07840  0.85608  1.0000
  H   H2        1.0  0.80821  0.92125  0.14415  1.0000
  H   H3        1.0  0.19041  0.98715  0.75983  1.0000
  H   H4        1.0  0.80912  0.01346  0.24008  1.0000
  H   H5        1.0  0.80812  0.25484  0.47725  1.0000
  H   H6        1.0  0.19168  0.74533  0.52270  1.0000
  H   H7        1.0  0.80993  0.34553  0.57374  1.0000
  H   H8        1.0  0.19000  0.65465  0.42618  1.0000
  H   H9        1.0  0.80965  0.67915  0.90693  1.0000
  H   H10       1.0  0.19062  0.32030  0.09315  1.0000
  H   H11       1.0  0.80824  0.58810  0.81058  1.0000
  H   H12       1.0  0.19200  0.41184  0.18930  1.0000
  C   C1        1.0  0.60206  0.19357  0.87870  1.0000
  C   C2        1.0  0.39801  0.80641  0.12115  1.0000
  C   C3        1.0  0.39803  0.47277  0.78780  1.0000
  C   C4        1.0  0.60199  0.52705  0.21218  1.0000
  C   C5        1.0  0.60190  0.86055  0.54552  1.0000
  C   C6        1.0  0.39798  0.13966  0.45464  1.0000
  O   O1        1.0  0.67655  0.02068  0.84396  1.0000
  O   O2        1.0  0.32360  0.97936  0.15585  1.0000
  O   O3        1.0  0.32148  0.50686  0.68546  1.0000
  O   O4        1.0  0.67853  0.49300  0.31455  1.0000
  O   O5        1.0  0.67858  0.15954  0.98105  1.0000
  O   O6        1.0  0.32147  0.84048  0.01879  1.0000
  O   O7        1.0  0.32379  0.64565  0.82251  1.0000
  O   O8        1.0  0.67635  0.35404  0.17754  1.0000
  O   O9        1.0  0.67851  0.82648  0.64784  1.0000
  O   O10       1.0  0.32148  0.17363  0.35229  1.0000
  O   O11       1.0  0.32360  0.31259  0.48932  1.0000
  O   O12       1.0  0.67609  0.68769  0.51081  1.0000
  O   O13       1.0  0.17335  0.13050  0.76375  1.0000
  O   O14       1.0  0.82636  0.86980  0.23640  1.0000
  O   O15       1.0  0.82681  0.20245  0.56961  1.0000
  O   O16       1.0  0.17321  0.79766  0.43036  1.0000
  O   O17       1.0  0.82665  0.53591  0.90291  1.0000
  O   O18       1.0  0.17366  0.46369  0.09699  1.0000
