data_image0
_chemical_formula_structural       Na2H14C6S2N8O8
_chemical_formula_sum              "Na2 H14 C6 S2 N8 O8"
_cell_length_a       6.4497
_cell_length_b       8.67282
_cell_length_c       8.59628
_cell_angle_alpha    108.923
_cell_angle_beta     90.0307
_cell_angle_gamma    111.836

_space_group_name_H-M_alt    "P 1"
_space_group_IT_number       1

loop_
  _space_group_symop_operation_xyz
  'x, y, z'

loop_
  _atom_site_type_symbol
  _atom_site_label
  _atom_site_symmetry_multiplicity
  _atom_site_fract_x
  _atom_site_fract_y
  _atom_site_fract_z
  _atom_site_occupancy
  Na  Na1       1.0  0.78351  0.00004  0.00003  1.0000
  Na  Na2       1.0  0.21649  0.99996  0.99996  1.0000
  H   H1        1.0  0.41460  0.82840  0.44128  1.0000
  H   H2        1.0  0.58540  0.17160  0.55872  1.0000
  H   H3        1.0  0.32290  0.92502  0.31328  1.0000
  H   H4        1.0  0.39718  0.07471  0.68655  1.0000
  H   H5        1.0  0.67709  0.07498  0.68672  1.0000
  H   H6        1.0  0.60281  0.92529  0.31345  1.0000
  H   H7        1.0  0.82599  0.65160  0.95707  1.0000
  H   H8        1.0  0.17401  0.34840  0.04293  1.0000
  H   H9        1.0  0.04626  0.09225  0.32696  1.0000
  H   H10       1.0  0.95373  0.90774  0.67303  1.0000
  H   H11       1.0  0.82406  0.64789  0.77371  1.0000
  H   H12       1.0  0.17594  0.35211  0.22629  1.0000
  H   H13       1.0  0.94144  0.88204  0.27104  1.0000
  H   H14       1.0  0.05856  0.11796  0.72895  1.0000
  C   C1        1.0  0.23418  0.46878  0.77303  1.0000
  C   C2        1.0  0.76582  0.53122  0.22697  1.0000
  C   C3        1.0  0.33497  0.66964  0.03888  1.0000
  C   C4        1.0  0.66503  0.33036  0.96113  1.0000
  C   C5        1.0  0.42633  0.85194  0.32347  1.0000
  C   C6        1.0  0.57367  0.14806  0.67653  1.0000
  S   S1        1.0  0.30983  0.61950  0.66846  1.0000
  S   S2        1.0  0.69017  0.38050  0.33154  1.0000
  N   N1        1.0  0.15060  0.30214  0.66077  1.0000
  N   N2        1.0  0.84939  0.69787  0.33924  1.0000
  N   N3        1.0  0.14920  0.29913  0.50491  1.0000
  N   N4        1.0  0.85080  0.70086  0.49509  1.0000
  N   N5        1.0  0.24968  0.49963  0.93515  1.0000
  N   N6        1.0  0.75032  0.50036  0.06485  1.0000
  N   N7        1.0  0.22495  0.45008  0.48334  1.0000
  N   N8        1.0  0.77506  0.54992  0.51666  1.0000
  O   O1        1.0  0.40341  0.80638  0.99971  1.0000
  O   O2        1.0  0.59660  0.19362  0.00029  1.0000
  O   O3        1.0  0.86534  0.73031  0.88904  1.0000
  O   O4        1.0  0.13466  0.26969  0.11096  1.0000
  O   O5        1.0  0.33949  0.67799  0.19856  1.0000
  O   O6        1.0  0.66051  0.32201  0.80144  1.0000
  O   O7        1.0  0.99140  0.98201  0.22761  1.0000
  O   O8        1.0  0.00860  0.01799  0.77239  1.0000
