data_image0
_chemical_formula_structural       Hg4H44C44N12Cl8
_chemical_formula_sum              "Hg4 H44 C44 N12 Cl8"
_cell_length_a       7.74864
_cell_length_b       12.0886
_cell_length_c       13.8316
_cell_angle_alpha    92.1849
_cell_angle_beta     90
_cell_angle_gamma    90

_space_group_name_H-M_alt    "P 1"
_space_group_IT_number       1

loop_
  _space_group_symop_operation_xyz
  'x, y, z'

loop_
  _atom_site_type_symbol
  _atom_site_label
  _atom_site_symmetry_multiplicity
  _atom_site_fract_x
  _atom_site_fract_y
  _atom_site_fract_z
  _atom_site_occupancy
  Hg  Hg1       1.0  0.11801  0.00751  0.25877  1.0000
  Hg  Hg2       1.0  0.61801  0.49249  0.24123  1.0000
  Hg  Hg3       1.0  0.88199  0.99249  0.74123  1.0000
  Hg  Hg4       1.0  0.38199  0.50751  0.75877  1.0000
  H   H1        1.0  0.61011  0.31998  0.36736  1.0000
  H   H2        1.0  0.11011  0.18002  0.13264  1.0000
  H   H3        1.0  0.38989  0.68003  0.63264  1.0000
  H   H4        1.0  0.88989  0.81998  0.86736  1.0000
  H   H5        1.0  0.33674  0.18414  0.39441  1.0000
  H   H6        1.0  0.83675  0.31586  0.10559  1.0000
  H   H7        1.0  0.66326  0.81587  0.60559  1.0000
  H   H8        1.0  0.16326  0.68413  0.89441  1.0000
  H   H9        1.0  0.83666  0.05504  0.46619  1.0000
  H   H10       1.0  0.33666  0.44496  0.03381  1.0000
  H   H11       1.0  0.16334  0.94496  0.53381  1.0000
  H   H12       1.0  0.66334  0.55504  0.96619  1.0000
  H   H13       1.0  0.76640  0.88585  0.36142  1.0000
  H   H14       1.0  0.26640  0.61415  0.13858  1.0000
  H   H15       1.0  0.23360  0.11415  0.63858  1.0000
  H   H16       1.0  0.73360  0.38585  0.86142  1.0000
  H   H17       1.0  0.47636  0.87339  0.28304  1.0000
  H   H18       1.0  0.97636  0.62661  0.21696  1.0000
  H   H19       1.0  0.52364  0.12661  0.71696  1.0000
  H   H20       1.0  0.02364  0.37339  0.78304  1.0000
  H   H21       1.0  0.52376  0.25035  0.55343  1.0000
  H   H22       1.0  0.02377  0.24965  0.94657  1.0000
  H   H23       1.0  0.47624  0.74965  0.44657  1.0000
  H   H24       1.0  0.97624  0.75035  0.05343  1.0000
  H   H25       1.0  0.74791  0.22529  0.54124  1.0000
  H   H26       1.0  0.24791  0.27471  0.95876  1.0000
  H   H27       1.0  0.25209  0.77471  0.45876  1.0000
  H   H28       1.0  0.75209  0.72529  0.04124  1.0000
  H   H29       1.0  0.73007  0.39191  0.62169  1.0000
  H   H30       1.0  0.23008  0.10809  0.87831  1.0000
  H   H31       1.0  0.26993  0.60809  0.37831  1.0000
  H   H32       1.0  0.76992  0.89191  0.12169  1.0000
  H   H33       1.0  0.85066  0.57722  0.66887  1.0000
  H   H34       1.0  0.35066  0.92278  0.83113  1.0000
  H   H35       1.0  0.14935  0.42279  0.33112  1.0000
  H   H36       1.0  0.64934  0.07722  0.16887  1.0000
  H   H37       1.0  0.89407  0.71756  0.54205  1.0000
  H   H38       1.0  0.39407  0.78244  0.95795  1.0000
  H   H39       1.0  0.10593  0.28244  0.45795  1.0000
  H   H40       1.0  0.60593  0.21756  0.04205  1.0000
  H   H41       1.0  0.78993  0.67060  0.37337  1.0000
  H   H42       1.0  0.28993  0.82940  0.12663  1.0000
  H   H43       1.0  0.21006  0.32940  0.62662  1.0000
  H   H44       1.0  0.71007  0.17060  0.87337  1.0000
  C   C1        1.0  0.43525  0.11962  0.39031  1.0000
  C   C2        1.0  0.93525  0.38038  0.10969  1.0000
  C   C3        1.0  0.56475  0.88038  0.60969  1.0000
  C   C4        1.0  0.06475  0.61962  0.89031  1.0000
  C   C5        1.0  0.59202  0.13275  0.43940  1.0000
  C   C6        1.0  0.09203  0.36725  0.06061  1.0000
  C   C7        1.0  0.40798  0.86725  0.56060  1.0000
  C   C8        1.0  0.90798  0.63275  0.93940  1.0000
  C   C9        1.0  0.71263  0.04724  0.42933  1.0000
  C   C10       1.0  0.21263  0.45276  0.07067  1.0000
  C   C11       1.0  0.28737  0.95276  0.57067  1.0000
  C   C12       1.0  0.78737  0.54724  0.92933  1.0000
  C   C13       1.0  0.67348  0.95298  0.37214  1.0000
  C   C14       1.0  0.17348  0.54702  0.12786  1.0000
  C   C15       1.0  0.32652  0.04702  0.62786  1.0000
  C   C16       1.0  0.82652  0.45298  0.87214  1.0000
  C   C17       1.0  0.51353  0.94657  0.32673  1.0000
  C   C18       1.0  0.01353  0.55343  0.17327  1.0000
  C   C19       1.0  0.48647  0.05343  0.67327  1.0000
  C   C20       1.0  0.98647  0.44657  0.82674  1.0000
  C   C21       1.0  0.62822  0.23644  0.49984  1.0000
  C   C22       1.0  0.12823  0.26356  0.00016  1.0000
  C   C23       1.0  0.37178  0.76356  0.50016  1.0000
  C   C24       1.0  0.87178  0.73644  0.99984  1.0000
  C   C25       1.0  0.70068  0.43151  0.47023  1.0000
  C   C26       1.0  0.20068  0.06849  0.02977  1.0000
  C   C27       1.0  0.29932  0.56849  0.52977  1.0000
  C   C28       1.0  0.79932  0.93151  0.97023  1.0000
  C   C29       1.0  0.74656  0.45493  0.56824  1.0000
  C   C30       1.0  0.24656  0.04508  0.93176  1.0000
  C   C31       1.0  0.25344  0.54508  0.43176  1.0000
  C   C32       1.0  0.75343  0.95492  0.06824  1.0000
  C   C33       1.0  0.81452  0.55773  0.59396  1.0000
  C   C34       1.0  0.31452  0.94227  0.90604  1.0000
  C   C35       1.0  0.18549  0.44227  0.40603  1.0000
  C   C36       1.0  0.68548  0.05773  0.09396  1.0000
  C   C37       1.0  0.83588  0.63751  0.52383  1.0000
  C   C38       1.0  0.33588  0.86249  0.97617  1.0000
  C   C39       1.0  0.16412  0.36249  0.47617  1.0000
  C   C40       1.0  0.66412  0.13751  0.02383  1.0000
  C   C41       1.0  0.78105  0.61104  0.43061  1.0000
  C   C42       1.0  0.28105  0.88896  0.06939  1.0000
  C   C43       1.0  0.21894  0.38896  0.56938  1.0000
  C   C44       1.0  0.71895  0.11104  0.93062  1.0000
  N   N1        1.0  0.39705  0.02882  0.33585  1.0000
  N   N2        1.0  0.89705  0.47118  0.16414  1.0000
  N   N3        1.0  0.60295  0.97118  0.66415  1.0000
  N   N4        1.0  0.10295  0.52882  0.83586  1.0000
  N   N5        1.0  0.64354  0.33085  0.43852  1.0000
  N   N6        1.0  0.14354  0.16915  0.06148  1.0000
  N   N7        1.0  0.35646  0.66915  0.56148  1.0000
  N   N8        1.0  0.85646  0.83085  0.93852  1.0000
  N   N9        1.0  0.71406  0.51156  0.40402  1.0000
  N   N10       1.0  0.21406  0.98844  0.09598  1.0000
  N   N11       1.0  0.28594  0.48844  0.59598  1.0000
  N   N12       1.0  0.78594  0.01156  0.90402  1.0000
  Cl  Cl1       1.0  0.98638  0.18821  0.28845  1.0000
  Cl  Cl2       1.0  0.48638  0.31179  0.21155  1.0000
  Cl  Cl3       1.0  0.01362  0.81179  0.71155  1.0000
  Cl  Cl4       1.0  0.51362  0.68821  0.78845  1.0000
  Cl  Cl5       1.0  0.07002  0.81387  0.29780  1.0000
  Cl  Cl6       1.0  0.57002  0.68613  0.20220  1.0000
  Cl  Cl7       1.0  0.92998  0.18613  0.70220  1.0000
  Cl  Cl8       1.0  0.42998  0.31387  0.79780  1.0000
