data_image0
_chemical_formula_structural       Hg4H44C44I8N12
_chemical_formula_sum              "Hg4 H44 C44 I8 N12"
_cell_length_a       8.65837
_cell_length_b       12.4384
_cell_length_c       13.4323
_cell_angle_alpha    90
_cell_angle_beta     90
_cell_angle_gamma    94.9662

_space_group_name_H-M_alt    "P 1"
_space_group_IT_number       1

loop_
  _space_group_symop_operation_xyz
  'x, y, z'

loop_
  _atom_site_type_symbol
  _atom_site_label
  _atom_site_symmetry_multiplicity
  _atom_site_fract_x
  _atom_site_fract_y
  _atom_site_fract_z
  _atom_site_occupancy
  Hg  Hg1       1.0  0.76761  0.21538  0.35230  1.0000
  Hg  Hg2       1.0  0.73239  0.28462  0.85230  1.0000
  Hg  Hg3       1.0  0.23239  0.78462  0.64770  1.0000
  Hg  Hg4       1.0  0.26760  0.71538  0.14770  1.0000
  H   H1        1.0  0.78341  0.45285  0.24419  1.0000
  H   H2        1.0  0.71659  0.04715  0.74419  1.0000
  H   H3        1.0  0.21659  0.54715  0.75581  1.0000
  H   H4        1.0  0.28341  0.95285  0.25581  1.0000
  H   H5        1.0  0.64381  0.63441  0.45559  1.0000
  H   H6        1.0  0.85619  0.86559  0.95559  1.0000
  H   H7        1.0  0.35619  0.36558  0.54441  1.0000
  H   H8        1.0  0.14380  0.13441  0.04440  1.0000
  H   H9        1.0  0.79848  0.64983  0.61450  1.0000
  H   H10       1.0  0.70152  0.85017  0.11450  1.0000
  H   H11       1.0  0.20152  0.35016  0.38550  1.0000
  H   H12       1.0  0.29848  0.14983  0.88550  1.0000
  H   H13       1.0  0.92976  0.48852  0.67264  1.0000
  H   H14       1.0  0.57024  0.01149  0.17264  1.0000
  H   H15       1.0  0.07025  0.51148  0.32736  1.0000
  H   H16       1.0  0.42976  0.98852  0.82736  1.0000
  H   H17       1.0  0.91073  0.32357  0.56684  1.0000
  H   H18       1.0  0.58927  0.17643  0.06684  1.0000
  H   H19       1.0  0.08927  0.67643  0.43316  1.0000
  H   H20       1.0  0.41073  0.82357  0.93316  1.0000
  H   H21       1.0  0.49877  0.39117  0.35788  1.0000
  H   H22       1.0  0.00123  0.10883  0.85788  1.0000
  H   H23       1.0  0.50123  0.60882  0.64212  1.0000
  H   H24       1.0  0.99877  0.89117  0.14212  1.0000
  H   H25       1.0  0.53355  0.53074  0.32851  1.0000
  H   H26       1.0  0.96645  0.96926  0.82851  1.0000
  H   H27       1.0  0.46645  0.46926  0.67149  1.0000
  H   H28       1.0  0.03355  0.03074  0.17149  1.0000
  H   H29       1.0  0.79596  0.38283  0.07582  1.0000
  H   H30       1.0  0.70404  0.11717  0.57582  1.0000
  H   H31       1.0  0.20404  0.61717  0.92418  1.0000
  H   H32       1.0  0.29596  0.88282  0.42418  1.0000
  H   H33       1.0  0.35837  0.41809  0.22456  1.0000
  H   H34       1.0  0.14163  0.08191  0.72456  1.0000
  H   H35       1.0  0.64163  0.58191  0.77544  1.0000
  H   H36       1.0  0.85837  0.91810  0.27544  1.0000
  H   H37       1.0  0.22749  0.37722  0.06243  1.0000
  H   H38       1.0  0.27251  0.12279  0.56244  1.0000
  H   H39       1.0  0.77251  0.62279  0.93756  1.0000
  H   H40       1.0  0.72749  0.87722  0.43757  1.0000
  H   H41       1.0  0.38766  0.33734  0.91315  1.0000
  H   H42       1.0  0.11234  0.16266  0.41315  1.0000
  H   H43       1.0  0.61234  0.66267  0.08685  1.0000
  H   H44       1.0  0.88766  0.83733  0.58685  1.0000
  C   C1        1.0  0.69413  0.47012  0.43012  1.0000
  C   C2        1.0  0.80587  0.02988  0.93012  1.0000
  C   C3        1.0  0.30588  0.52988  0.56988  1.0000
  C   C4        1.0  0.19412  0.97012  0.06988  1.0000
  C   C5        1.0  0.70403  0.56700  0.48329  1.0000
  C   C6        1.0  0.79597  0.93300  0.98329  1.0000
  C   C7        1.0  0.29597  0.43300  0.51671  1.0000
  C   C8        1.0  0.20403  0.06700  0.01671  1.0000
  C   C9        1.0  0.78941  0.57526  0.57134  1.0000
  C   C10       1.0  0.71059  0.92474  0.07134  1.0000
  C   C11       1.0  0.21059  0.42474  0.42866  1.0000
  C   C12       1.0  0.28941  0.07526  0.92866  1.0000
  C   C13       1.0  0.86341  0.48661  0.60358  1.0000
  C   C14       1.0  0.63659  0.01339  0.10359  1.0000
  C   C15       1.0  0.13659  0.51339  0.39641  1.0000
  C   C16       1.0  0.36341  0.98661  0.89642  1.0000
  C   C17       1.0  0.85203  0.39384  0.54496  1.0000
  C   C18       1.0  0.64797  0.10616  0.04496  1.0000
  C   C19       1.0  0.14798  0.60616  0.45504  1.0000
  C   C20       1.0  0.35202  0.89384  0.95504  1.0000
  C   C21       1.0  0.59025  0.45577  0.34061  1.0000
  C   C22       1.0  0.90974  0.04422  0.84061  1.0000
  C   C23       1.0  0.40975  0.54422  0.65939  1.0000
  C   C24       1.0  0.09025  0.95577  0.15939  1.0000
  C   C25       1.0  0.66972  0.38197  0.07635  1.0000
  C   C26       1.0  0.83029  0.11803  0.57635  1.0000
  C   C27       1.0  0.33028  0.61803  0.92365  1.0000
  C   C28       1.0  0.16972  0.88197  0.42365  1.0000
  C   C29       1.0  0.58963  0.40354  0.16484  1.0000
  C   C30       1.0  0.91037  0.09646  0.66484  1.0000
  C   C31       1.0  0.41037  0.59646  0.83516  1.0000
  C   C32       1.0  0.08963  0.90355  0.33516  1.0000
  C   C33       1.0  0.42674  0.40068  0.15943  1.0000
  C   C34       1.0  0.07326  0.09932  0.65943  1.0000
  C   C35       1.0  0.57327  0.59932  0.84057  1.0000
  C   C36       1.0  0.92674  0.90069  0.34057  1.0000
  C   C37       1.0  0.35299  0.37742  0.06906  1.0000
  C   C38       1.0  0.14701  0.12258  0.56906  1.0000
  C   C39       1.0  0.64701  0.62258  0.93094  1.0000
  C   C40       1.0  0.85300  0.87742  0.43094  1.0000
  C   C41       1.0  0.44038  0.35606  0.98560  1.0000
  C   C42       1.0  0.05962  0.14394  0.48560  1.0000
  C   C43       1.0  0.55962  0.64394  0.01439  1.0000
  C   C44       1.0  0.94038  0.85606  0.51440  1.0000
  I   I1        1.0  0.00303  0.25388  0.21853  1.0000
  I   I2        1.0  0.49697  0.24612  0.71853  1.0000
  I   I3        1.0  0.99697  0.74612  0.78147  1.0000
  I   I4        1.0  0.50302  0.75388  0.28147  1.0000
  I   I5        1.0  0.46604  0.13562  0.36043  1.0000
  I   I6        1.0  0.03396  0.36438  0.86044  1.0000
  I   I7        1.0  0.53396  0.86437  0.63957  1.0000
  I   I8        1.0  0.96603  0.63562  0.13957  1.0000
  N   N1        1.0  0.76953  0.38536  0.46028  1.0000
  N   N2        1.0  0.73047  0.11464  0.96028  1.0000
  N   N3        1.0  0.23047  0.61464  0.53972  1.0000
  N   N4        1.0  0.26953  0.88536  0.03972  1.0000
  N   N5        1.0  0.67051  0.42356  0.25204  1.0000
  N   N6        1.0  0.82949  0.07644  0.75203  1.0000
  N   N7        1.0  0.32949  0.57643  0.74796  1.0000
  N   N8        1.0  0.17051  0.92357  0.24796  1.0000
  N   N9        1.0  0.59578  0.35849  0.99078  1.0000
  N   N10       1.0  0.90422  0.14151  0.49078  1.0000
  N   N11       1.0  0.40422  0.64151  0.00922  1.0000
  N   N12       1.0  0.09578  0.85849  0.50922  1.0000
