data_image0
_chemical_formula_structural       H32Pb4C40N16O36
_chemical_formula_sum              "H32 Pb4 C40 N16 O36"
_cell_length_a       6.74026
_cell_length_b       12.5189
_cell_length_c       15.648
_cell_angle_alpha    90
_cell_angle_beta     90
_cell_angle_gamma    103.555

_space_group_name_H-M_alt    "P 1"
_space_group_IT_number       1

loop_
  _space_group_symop_operation_xyz
  'x, y, z'

loop_
  _atom_site_type_symbol
  _atom_site_label
  _atom_site_symmetry_multiplicity
  _atom_site_fract_x
  _atom_site_fract_y
  _atom_site_fract_z
  _atom_site_occupancy
  H   H1        1.0  0.94814  0.28977  0.80250  1.0000
  H   H2        1.0  0.55186  0.21024  0.30250  1.0000
  H   H3        1.0  0.05187  0.71024  0.19750  1.0000
  H   H4        1.0  0.44815  0.78977  0.69750  1.0000
  H   H5        1.0  0.61386  0.73956  0.18898  1.0000
  H   H6        1.0  0.88613  0.76043  0.68899  1.0000
  H   H7        1.0  0.38612  0.26044  0.81102  1.0000
  H   H8        1.0  0.11388  0.23957  0.31101  1.0000
  H   H9        1.0  0.08534  0.35957  0.93783  1.0000
  H   H10       1.0  0.41467  0.14043  0.43782  1.0000
  H   H11       1.0  0.91467  0.64043  0.06217  1.0000
  H   H12       1.0  0.58534  0.85957  0.56218  1.0000
  H   H13       1.0  0.32999  0.66415  0.83602  1.0000
  H   H14       1.0  0.17001  0.83585  0.33601  1.0000
  H   H15       1.0  0.67003  0.33585  0.16399  1.0000
  H   H16       1.0  0.82998  0.16416  0.66399  1.0000
  H   H17       1.0  0.51455  0.67273  0.32475  1.0000
  H   H18       1.0  0.98544  0.82726  0.82476  1.0000
  H   H19       1.0  0.48544  0.32727  0.67525  1.0000
  H   H20       1.0  0.01456  0.17273  0.17525  1.0000
  H   H21       1.0  0.76308  0.97228  0.43567  1.0000
  H   H22       1.0  0.73691  0.52772  0.93567  1.0000
  H   H23       1.0  0.23691  0.02772  0.56433  1.0000
  H   H24       1.0  0.26309  0.47228  0.06433  1.0000
  H   H25       1.0  0.95342  0.70624  0.55974  1.0000
  H   H26       1.0  0.54657  0.79376  0.05973  1.0000
  H   H27       1.0  0.04657  0.29376  0.44027  1.0000
  H   H28       1.0  0.45342  0.20624  0.94026  1.0000
  H   H29       1.0  0.11632  0.80462  0.51420  1.0000
  H   H30       1.0  0.38367  0.69537  0.01419  1.0000
  H   H31       1.0  0.88368  0.19537  0.48581  1.0000
  H   H32       1.0  0.61632  0.30462  0.98580  1.0000
  Pb  Pb1       1.0  0.29261  0.59679  0.51802  1.0000
  Pb  Pb2       1.0  0.20739  0.90321  0.01802  1.0000
  Pb  Pb3       1.0  0.70740  0.40321  0.48198  1.0000
  Pb  Pb4       1.0  0.79261  0.09679  0.98198  1.0000
  C   C1        1.0  0.22408  0.51583  0.89823  1.0000
  C   C2        1.0  0.27592  0.98418  0.39822  1.0000
  C   C3        1.0  0.77593  0.48418  0.10177  1.0000
  C   C4        1.0  0.72409  0.01583  0.60178  1.0000
  C   C5        1.0  0.20765  0.54892  0.74366  1.0000
  C   C6        1.0  0.29236  0.95108  0.24366  1.0000
  C   C7        1.0  0.79236  0.45109  0.25633  1.0000
  C   C8        1.0  0.70765  0.04892  0.75633  1.0000
  C   C9        1.0  0.08444  0.43782  0.73378  1.0000
  C   C10       1.0  0.41556  0.06219  0.23378  1.0000
  C   C11       1.0  0.91556  0.56219  0.26622  1.0000
  C   C12       1.0  0.58444  0.93782  0.76622  1.0000
  C   C13       1.0  0.04301  0.37347  0.80574  1.0000
  C   C14       1.0  0.45699  0.12653  0.30574  1.0000
  C   C15       1.0  0.95700  0.62654  0.19426  1.0000
  C   C16       1.0  0.54302  0.87347  0.69426  1.0000
  C   C17       1.0  0.98731  0.39382  0.65136  1.0000
  C   C18       1.0  0.51268  0.10619  0.15136  1.0000
  C   C19       1.0  0.01269  0.60619  0.34864  1.0000
  C   C20       1.0  0.48732  0.89382  0.84864  1.0000
  C   C21       1.0  0.62219  0.81921  0.39186  1.0000
  C   C22       1.0  0.87778  0.68078  0.89186  1.0000
  C   C23       1.0  0.37778  0.18078  0.60815  1.0000
  C   C24       1.0  0.12222  0.31921  0.10814  1.0000
  C   C25       1.0  0.81912  0.97337  0.30410  1.0000
  C   C26       1.0  0.68087  0.52662  0.80410  1.0000
  C   C27       1.0  0.18086  0.02663  0.69590  1.0000
  C   C28       1.0  0.31914  0.47337  0.19589  1.0000
  C   C29       1.0  0.76777  0.90273  0.22955  1.0000
  C   C30       1.0  0.73222  0.59726  0.72955  1.0000
  C   C31       1.0  0.23221  0.09726  0.77045  1.0000
  C   C32       1.0  0.26778  0.40273  0.27045  1.0000
  C   C33       1.0  0.65680  0.79693  0.24171  1.0000
  C   C34       1.0  0.84319  0.70306  0.74172  1.0000
  C   C35       1.0  0.34318  0.20307  0.75829  1.0000
  C   C36       1.0  0.15682  0.29694  0.25828  1.0000
  C   C37       1.0  0.83753  0.94007  0.14186  1.0000
  C   C38       1.0  0.66246  0.55992  0.64187  1.0000
  C   C39       1.0  0.16247  0.05992  0.85813  1.0000
  C   C40       1.0  0.33754  0.44007  0.35813  1.0000
  N   N1        1.0  0.11379  0.40978  0.88414  1.0000
  N   N2        1.0  0.38622  0.09022  0.38414  1.0000
  N   N3        1.0  0.88622  0.59022  0.11586  1.0000
  N   N4        1.0  0.61380  0.90979  0.61586  1.0000
  N   N5        1.0  0.25875  0.58098  0.82765  1.0000
  N   N6        1.0  0.24125  0.91902  0.32764  1.0000
  N   N7        1.0  0.74127  0.41902  0.17236  1.0000
  N   N8        1.0  0.75875  0.08099  0.67236  1.0000
  N   N9        1.0  0.58937  0.75552  0.31928  1.0000
  N   N10       1.0  0.91061  0.74447  0.81928  1.0000
  N   N11       1.0  0.41061  0.24448  0.68072  1.0000
  N   N12       1.0  0.08939  0.25552  0.18072  1.0000
  N   N13       1.0  0.73563  0.92381  0.38086  1.0000
  N   N14       1.0  0.76436  0.57619  0.88086  1.0000
  N   N15       1.0  0.26436  0.07619  0.61914  1.0000
  N   N16       1.0  0.23564  0.42380  0.11914  1.0000
  O   O1        1.0  0.28606  0.54991  0.97076  1.0000
  O   O2        1.0  0.21395  0.95009  0.47076  1.0000
  O   O3        1.0  0.71395  0.45009  0.02924  1.0000
  O   O4        1.0  0.78607  0.04992  0.52924  1.0000
  O   O5        1.0  0.27067  0.61864  0.68707  1.0000
  O   O6        1.0  0.22933  0.88137  0.18706  1.0000
  O   O7        1.0  0.72935  0.38136  0.31293  1.0000
  O   O8        1.0  0.77067  0.11864  0.81294  1.0000
  O   O9        1.0  0.00279  0.46006  0.58721  1.0000
  O   O10       1.0  0.49721  0.03994  0.08720  1.0000
  O   O11       1.0  0.99722  0.53994  0.41280  1.0000
  O   O12       1.0  0.50278  0.96007  0.91279  1.0000
  O   O13       1.0  0.88386  0.29635  0.64772  1.0000
  O   O14       1.0  0.61613  0.20365  0.14771  1.0000
  O   O15       1.0  0.11614  0.70366  0.35229  1.0000
  O   O16       1.0  0.38388  0.79635  0.85228  1.0000
  O   O17       1.0  0.55266  0.78505  0.46356  1.0000
  O   O18       1.0  0.94732  0.71495  0.96356  1.0000
  O   O19       1.0  0.44733  0.21496  0.53644  1.0000
  O   O20       1.0  0.05268  0.28504  0.03644  1.0000
  O   O21       1.0  0.92514  0.06833  0.30719  1.0000
  O   O22       1.0  0.57485  0.43166  0.80720  1.0000
  O   O23       1.0  0.07483  0.93167  0.69281  1.0000
  O   O24       1.0  0.42514  0.56833  0.19280  1.0000
  O   O25       1.0  0.94845  0.03699  0.13096  1.0000
  O   O26       1.0  0.55152  0.46299  0.63096  1.0000
  O   O27       1.0  0.05152  0.96300  0.86904  1.0000
  O   O28       1.0  0.44846  0.53699  0.36904  1.0000
  O   O29       1.0  0.78783  0.87256  0.07978  1.0000
  O   O30       1.0  0.71216  0.62744  0.57978  1.0000
  O   O31       1.0  0.21216  0.12744  0.92023  1.0000
  O   O32       1.0  0.28785  0.37256  0.42021  1.0000
  O   O33       1.0  0.10147  0.74227  0.55379  1.0000
  O   O34       1.0  0.39852  0.75773  0.05379  1.0000
  O   O35       1.0  0.89853  0.25773  0.44622  1.0000
  O   O36       1.0  0.60146  0.24226  0.94621  1.0000
