data_image0
_chemical_formula_structural       Hg2H22C22Br4N6
_chemical_formula_sum              "Hg2 H22 C22 Br4 N6"
_cell_length_a       7.96807
_cell_length_b       8.29621
_cell_length_c       11.4678
_cell_angle_alpha    102.783
_cell_angle_beta     94.1301
_cell_angle_gamma    114.812

_space_group_name_H-M_alt    "P 1"
_space_group_IT_number       1

loop_
  _space_group_symop_operation_xyz
  'x, y, z'

loop_
  _atom_site_type_symbol
  _atom_site_label
  _atom_site_symmetry_multiplicity
  _atom_site_fract_x
  _atom_site_fract_y
  _atom_site_fract_z
  _atom_site_occupancy
  Hg  Hg1       1.0  0.93736  0.56307  0.21433  1.0000
  Hg  Hg2       1.0  0.06264  0.43693  0.78567  1.0000
  H   H1        1.0  0.86588  0.86318  0.17863  1.0000
  H   H2        1.0  0.13412  0.13682  0.82138  1.0000
  H   H3        1.0  0.51573  0.81230  0.15737  1.0000
  H   H4        1.0  0.48427  0.18770  0.84262  1.0000
  H   H5        1.0  0.20881  0.80623  0.08904  1.0000
  H   H6        1.0  0.79120  0.19377  0.91096  1.0000
  H   H7        1.0  0.19907  0.10783  0.09380  1.0000
  H   H8        1.0  0.80093  0.89217  0.90620  1.0000
  H   H9        1.0  0.49924  0.39899  0.16035  1.0000
  H   H10       1.0  0.50076  0.60101  0.83965  1.0000
  H   H11       1.0  0.93500  0.23740  0.31853  1.0000
  H   H12       1.0  0.06501  0.76260  0.68147  1.0000
  H   H13       1.0  0.94728  0.16291  0.16592  1.0000
  H   H14       1.0  0.05272  0.83709  0.83408  1.0000
  H   H15       1.0  0.74980  0.11716  0.44435  1.0000
  H   H16       1.0  0.25020  0.88284  0.55565  1.0000
  H   H17       1.0  0.65533  0.98694  0.61452  1.0000
  H   H18       1.0  0.34467  0.01306  0.38549  1.0000
  H   H19       1.0  0.65643  0.68083  0.61580  1.0000
  H   H20       1.0  0.34356  0.31918  0.38420  1.0000
  H   H21       1.0  0.75428  0.52589  0.44192  1.0000
  H   H22       1.0  0.24572  0.47411  0.55808  1.0000
  C   C1        1.0  0.66946  0.10887  0.19532  1.0000
  C   C2        1.0  0.33054  0.89112  0.80468  1.0000
  C   C3        1.0  0.50764  0.94015  0.15774  1.0000
  C   C4        1.0  0.49236  0.05985  0.84225  1.0000
  C   C5        1.0  0.33607  0.93719  0.12031  1.0000
  C   C6        1.0  0.66395  0.06281  0.87969  1.0000
  C   C7        1.0  0.32971  0.10305  0.12251  1.0000
  C   C8        1.0  0.67029  0.89696  0.87748  1.0000
  C   C9        1.0  0.49662  0.26621  0.15989  1.0000
  C   C10       1.0  0.50338  0.73379  0.84011  1.0000
  C   C11       1.0  0.86166  0.12233  0.23522  1.0000
  C   C12       1.0  0.13835  0.87767  0.76479  1.0000
  C   C13       1.0  0.80496  0.89041  0.34941  1.0000
  C   C14       1.0  0.19504  0.10960  0.65059  1.0000
  C   C15       1.0  0.75064  0.98652  0.44501  1.0000
  C   C16       1.0  0.24936  0.01348  0.55500  1.0000
  C   C17       1.0  0.69703  0.91229  0.54087  1.0000
  C   C18       1.0  0.30297  0.08771  0.45913  1.0000
  C   C19       1.0  0.69641  0.74370  0.54206  1.0000
  C   C20       1.0  0.30359  0.25630  0.45794  1.0000
  C   C21       1.0  0.75097  0.65697  0.44518  1.0000
  C   C22       1.0  0.24902  0.34303  0.55482  1.0000
  Br  Br1       1.0  0.82059  0.60639  0.00985  1.0000
  Br  Br2       1.0  0.17940  0.39360  0.99015  1.0000
  Br  Br3       1.0  0.24159  0.61069  0.33533  1.0000
  Br  Br4       1.0  0.75840  0.38930  0.66468  1.0000
  N   N1        1.0  0.66261  0.26870  0.19518  1.0000
  N   N2        1.0  0.33739  0.73131  0.80482  1.0000
  N   N3        1.0  0.86158  0.95567  0.25250  1.0000
  N   N4        1.0  0.13842  0.04433  0.74750  1.0000
  N   N5        1.0  0.80403  0.72702  0.35128  1.0000
  N   N6        1.0  0.19597  0.27298  0.64872  1.0000
