data_image0
_chemical_formula_structural       Hg4H44C44Br8N12
_chemical_formula_sum              "Hg4 H44 C44 Br8 N12"
_cell_length_a       8.32779
_cell_length_b       12.791
_cell_length_c       12.8723
_cell_angle_alpha    90
_cell_angle_beta     98.4778
_cell_angle_gamma    90

_space_group_name_H-M_alt    "P 1"
_space_group_IT_number       1

loop_
  _space_group_symop_operation_xyz
  'x, y, z'

loop_
  _atom_site_type_symbol
  _atom_site_label
  _atom_site_symmetry_multiplicity
  _atom_site_fract_x
  _atom_site_fract_y
  _atom_site_fract_z
  _atom_site_occupancy
  Hg  Hg1       1.0  0.26082  0.67392  0.74874  1.0000
  Hg  Hg2       1.0  0.23918  0.17393  0.75126  1.0000
  Hg  Hg3       1.0  0.73918  0.32608  0.25126  1.0000
  Hg  Hg4       1.0  0.76082  0.82607  0.24874  1.0000
  H   H1        1.0  0.30402  0.78535  0.96719  1.0000
  H   H2        1.0  0.19598  0.28535  0.53281  1.0000
  H   H3        1.0  0.69597  0.21465  0.03281  1.0000
  H   H4        1.0  0.80402  0.71465  0.46719  1.0000
  H   H5        1.0  0.15426  0.55021  0.14332  1.0000
  H   H6        1.0  0.34574  0.05021  0.35668  1.0000
  H   H7        1.0  0.84573  0.44979  0.85668  1.0000
  H   H8        1.0  0.65427  0.94979  0.64332  1.0000
  H   H9        1.0  0.28519  0.37252  0.14273  1.0000
  H   H10       1.0  0.21481  0.87252  0.35727  1.0000
  H   H11       1.0  0.71481  0.62748  0.85727  1.0000
  H   H12       1.0  0.78519  0.12748  0.64273  1.0000
  H   H13       1.0  0.40080  0.31662  0.98148  1.0000
  H   H14       1.0  0.09920  0.81662  0.51852  1.0000
  H   H15       1.0  0.59920  0.68338  0.01852  1.0000
  H   H16       1.0  0.90080  0.18338  0.48148  1.0000
  H   H17       1.0  0.38662  0.44054  0.83149  1.0000
  H   H18       1.0  0.11338  0.94054  0.66852  1.0000
  H   H19       1.0  0.61338  0.55946  0.16851  1.0000
  H   H20       1.0  0.88662  0.05946  0.33148  1.0000
  H   H21       1.0  0.98920  0.67387  0.93438  1.0000
  H   H22       1.0  0.51080  0.17388  0.56562  1.0000
  H   H23       1.0  0.01080  0.32612  0.06562  1.0000
  H   H24       1.0  0.48920  0.82613  0.43438  1.0000
  H   H25       1.0  0.08279  0.70713  0.06288  1.0000
  H   H26       1.0  0.41721  0.20712  0.43712  1.0000
  H   H27       1.0  0.91720  0.29287  0.93712  1.0000
  H   H28       1.0  0.58280  0.79287  0.56289  1.0000
  H   H29       1.0  0.31390  0.94917  0.87507  1.0000
  H   H30       1.0  0.18610  0.44917  0.62492  1.0000
  H   H31       1.0  0.68610  0.05082  0.12492  1.0000
  H   H32       1.0  0.81389  0.55082  0.37508  1.0000
  H   H33       1.0  0.85905  0.80844  0.92767  1.0000
  H   H34       1.0  0.64096  0.30844  0.57234  1.0000
  H   H35       1.0  0.14095  0.19156  0.07234  1.0000
  H   H36       1.0  0.35904  0.69156  0.42766  1.0000
  H   H37       1.0  0.72376  0.97523  0.86916  1.0000
  H   H38       1.0  0.77625  0.47523  0.63084  1.0000
  H   H39       1.0  0.27624  0.02477  0.13084  1.0000
  H   H40       1.0  0.22375  0.52477  0.36916  1.0000
  H   H41       1.0  0.88994  0.12334  0.81391  1.0000
  H   H42       1.0  0.61006  0.62334  0.68610  1.0000
  H   H43       1.0  0.11005  0.87666  0.18610  1.0000
  H   H44       1.0  0.38994  0.37666  0.31390  1.0000
  C   C1        1.0  0.19953  0.58641  0.98692  1.0000
  C   C2        1.0  0.30047  0.08641  0.51308  1.0000
  C   C3        1.0  0.80046  0.41358  0.01308  1.0000
  C   C4        1.0  0.69954  0.91359  0.48692  1.0000
  C   C5        1.0  0.20616  0.52231  0.07541  1.0000
  C   C6        1.0  0.29384  0.02231  0.42459  1.0000
  C   C7        1.0  0.79384  0.47770  0.92459  1.0000
  C   C8        1.0  0.70617  0.97770  0.57541  1.0000
  C   C9        1.0  0.27833  0.42408  0.07474  1.0000
  C   C10       1.0  0.22167  0.92409  0.42526  1.0000
  C   C11       1.0  0.72166  0.57591  0.92526  1.0000
  C   C12       1.0  0.77834  0.07591  0.57474  1.0000
  C   C13       1.0  0.34301  0.39259  0.98592  1.0000
  C   C14       1.0  0.15699  0.89259  0.51408  1.0000
  C   C15       1.0  0.65699  0.60742  0.01407  1.0000
  C   C16       1.0  0.84302  0.10741  0.48592  1.0000
  C   C17       1.0  0.33488  0.46147  0.90163  1.0000
  C   C18       1.0  0.16513  0.96148  0.59837  1.0000
  C   C19       1.0  0.66512  0.53852  0.09837  1.0000
  C   C20       1.0  0.83488  0.03852  0.40163  1.0000
  C   C21       1.0  0.10738  0.68809  0.98307  1.0000
  C   C22       1.0  0.39262  0.18809  0.51693  1.0000
  C   C23       1.0  0.89262  0.31191  0.01693  1.0000
  C   C24       1.0  0.60738  0.81191  0.48307  1.0000
  C   C25       1.0  0.18284  0.95187  0.87509  1.0000
  C   C26       1.0  0.31716  0.45187  0.62491  1.0000
  C   C27       1.0  0.81716  0.04812  0.12491  1.0000
  C   C28       1.0  0.68284  0.54813  0.37509  1.0000
  C   C29       1.0  0.09974  0.86401  0.90659  1.0000
  C   C30       1.0  0.40026  0.36401  0.59341  1.0000
  C   C31       1.0  0.90026  0.13599  0.09341  1.0000
  C   C32       1.0  0.59974  0.63599  0.40659  1.0000
  C   C33       1.0  0.93077  0.87274  0.90360  1.0000
  C   C34       1.0  0.56923  0.37275  0.59640  1.0000
  C   C35       1.0  0.06923  0.12726  0.09640  1.0000
  C   C36       1.0  0.43077  0.62725  0.40360  1.0000
  C   C37       1.0  0.85410  0.96604  0.87075  1.0000
  C   C38       1.0  0.64590  0.46604  0.62926  1.0000
  C   C39       1.0  0.14590  0.03396  0.12926  1.0000
  C   C40       1.0  0.35410  0.53396  0.37074  1.0000
  C   C41       1.0  0.94474  0.04866  0.84000  1.0000
  C   C42       1.0  0.55526  0.54866  0.66000  1.0000
  C   C43       1.0  0.05526  0.95134  0.16000  1.0000
  C   C44       1.0  0.44473  0.45134  0.34000  1.0000
  Br  Br1       1.0  0.96047  0.67806  0.66348  1.0000
  Br  Br2       1.0  0.53953  0.17806  0.83652  1.0000
  Br  Br3       1.0  0.03953  0.32194  0.33652  1.0000
  Br  Br4       1.0  0.46047  0.82194  0.16348  1.0000
  Br  Br5       1.0  0.50401  0.80360  0.77469  1.0000
  Br  Br6       1.0  0.99600  0.30362  0.72530  1.0000
  Br  Br7       1.0  0.49599  0.19639  0.22532  1.0000
  Br  Br8       1.0  0.00401  0.69639  0.27468  1.0000
  N   N1        1.0  0.26453  0.55603  0.90192  1.0000
  N   N2        1.0  0.23547  0.05603  0.59809  1.0000
  N   N3        1.0  0.73547  0.44397  0.09808  1.0000
  N   N4        1.0  0.76453  0.94397  0.40191  1.0000
  N   N5        1.0  0.18579  0.77307  0.93520  1.0000
  N   N6        1.0  0.31421  0.27308  0.56480  1.0000
  N   N7        1.0  0.81420  0.22692  0.06480  1.0000
  N   N8        1.0  0.68579  0.72692  0.43520  1.0000
  N   N9        1.0  0.10608  0.04024  0.84193  1.0000
  N   N10       1.0  0.39392  0.54024  0.65807  1.0000
  N   N11       1.0  0.89392  0.95976  0.15807  1.0000
  N   N12       1.0  0.60607  0.45976  0.34192  1.0000
