data_image0
_chemical_formula_structural       Hg2H22C22N6Cl4
_chemical_formula_sum              "Hg2 H22 C22 N6 Cl4"
_cell_length_a       7.83989
_cell_length_b       8.20252
_cell_length_c       11.2396
_cell_angle_alpha    103.772
_cell_angle_beta     95.1666
_cell_angle_gamma    113.976

_space_group_name_H-M_alt    "P 1"
_space_group_IT_number       1

loop_
  _space_group_symop_operation_xyz
  'x, y, z'

loop_
  _atom_site_type_symbol
  _atom_site_label
  _atom_site_symmetry_multiplicity
  _atom_site_fract_x
  _atom_site_fract_y
  _atom_site_fract_z
  _atom_site_occupancy
  Hg  Hg1       1.0  0.94026  0.55457  0.71232  1.0000
  Hg  Hg2       1.0  0.05973  0.44543  0.28768  1.0000
  H   H1        1.0  0.84725  0.84422  0.66986  1.0000
  H   H2        1.0  0.15275  0.15578  0.33014  1.0000
  H   H3        1.0  0.48933  0.80683  0.65672  1.0000
  H   H4        1.0  0.51068  0.19318  0.34329  1.0000
  H   H5        1.0  0.18243  0.81442  0.58553  1.0000
  H   H6        1.0  0.81758  0.18558  0.41447  1.0000
  H   H7        1.0  0.18724  0.12520  0.58809  1.0000
  H   H8        1.0  0.81275  0.87480  0.41191  1.0000
  H   H9        1.0  0.49904  0.40872  0.65156  1.0000
  H   H10       1.0  0.50096  0.59128  0.34844  1.0000
  H   H11       1.0  0.93203  0.14615  0.65723  1.0000
  H   H12       1.0  0.06798  0.85386  0.34277  1.0000
  H   H13       1.0  0.93029  0.22885  0.81532  1.0000
  H   H14       1.0  0.06971  0.77115  0.18468  1.0000
  H   H15       1.0  0.74442  0.11714  0.94398  1.0000
  H   H16       1.0  0.25558  0.88285  0.05602  1.0000
  H   H17       1.0  0.66144  0.99782  0.12128  1.0000
  H   H18       1.0  0.33856  0.00218  0.87872  1.0000
  H   H19       1.0  0.66603  0.69020  0.12453  1.0000
  H   H20       1.0  0.33397  0.30979  0.87547  1.0000
  H   H21       1.0  0.75827  0.52410  0.94632  1.0000
  H   H22       1.0  0.24173  0.47590  0.05368  1.0000
  C   C1        1.0  0.65617  0.10394  0.69037  1.0000
  C   C2        1.0  0.34383  0.89607  0.30963  1.0000
  C   C3        1.0  0.48718  0.93815  0.65496  1.0000
  C   C4        1.0  0.51283  0.06185  0.34505  1.0000
  C   C5        1.0  0.31576  0.94302  0.61663  1.0000
  C   C6        1.0  0.68423  0.05698  0.38337  1.0000
  C   C7        1.0  0.31710  0.11349  0.61677  1.0000
  C   C8        1.0  0.68291  0.88652  0.38323  1.0000
  C   C9        1.0  0.49090  0.27313  0.65247  1.0000
  C   C10       1.0  0.50909  0.72687  0.34753  1.0000
  C   C11       1.0  0.84983  0.11087  0.72948  1.0000
  C   C12       1.0  0.15018  0.88913  0.27052  1.0000
  C   C13       1.0  0.79752  0.88322  0.84742  1.0000
  C   C14       1.0  0.20248  0.11677  0.15258  1.0000
  C   C15       1.0  0.74739  0.98628  0.94577  1.0000
  C   C16       1.0  0.25261  0.01372  0.05423  1.0000
  C   C17       1.0  0.70029  0.91810  0.04565  1.0000
  C   C18       1.0  0.29971  0.08189  0.95435  1.0000
  C   C19       1.0  0.70211  0.74900  0.04806  1.0000
  C   C20       1.0  0.29789  0.25101  0.95194  1.0000
  C   C21       1.0  0.75315  0.65574  0.94850  1.0000
  C   C22       1.0  0.24685  0.34425  0.05150  1.0000
  N   N1        1.0  0.65633  0.26764  0.68796  1.0000
  N   N2        1.0  0.34367  0.73237  0.31204  1.0000
  N   N3        1.0  0.84672  0.94146  0.74602  1.0000
  N   N4        1.0  0.15328  0.05854  0.25399  1.0000
  N   N5        1.0  0.80069  0.72032  0.85092  1.0000
  N   N6        1.0  0.19931  0.27968  0.14908  1.0000
  Cl  Cl1       1.0  0.23458  0.60283  0.83345  1.0000
  Cl  Cl2       1.0  0.76543  0.39716  0.16653  1.0000
  Cl  Cl3       1.0  0.81976  0.59577  0.51365  1.0000
  Cl  Cl4       1.0  0.18024  0.40423  0.48635  1.0000
