data_image0
_chemical_formula_structural       H16Pb4C20N8O20
_chemical_formula_sum              "H16 Pb4 C20 N8 O20"
_cell_length_a       6.45995
_cell_length_b       7.05706
_cell_length_c       16.6335
_cell_angle_alpha    90.0021
_cell_angle_beta     89.9985
_cell_angle_gamma    111.197

_space_group_name_H-M_alt    "P 1"
_space_group_IT_number       1

loop_
  _space_group_symop_operation_xyz
  'x, y, z'

loop_
  _atom_site_type_symbol
  _atom_site_label
  _atom_site_symmetry_multiplicity
  _atom_site_fract_x
  _atom_site_fract_y
  _atom_site_fract_z
  _atom_site_occupancy
  H   H1        1.0  0.74804  0.93832  0.27713  1.0000
  H   H2        1.0  0.75193  0.06167  0.77714  1.0000
  H   H3        1.0  0.25210  0.06168  0.72292  1.0000
  H   H4        1.0  0.24791  0.93832  0.22292  1.0000
  H   H5        1.0  0.92979  0.57194  0.13953  1.0000
  H   H6        1.0  0.57028  0.42815  0.63954  1.0000
  H   H7        1.0  0.07017  0.42814  0.86050  1.0000
  H   H8        1.0  0.42987  0.57181  0.36046  1.0000
  H   H9        1.0  0.97245  0.72145  0.01899  1.0000
  H   H10       1.0  0.52758  0.27866  0.51901  1.0000
  H   H11       1.0  0.02732  0.27865  0.98098  1.0000
  H   H12       1.0  0.47258  0.72135  0.48099  1.0000
  H   H13       1.0  0.05005  0.88874  0.08479  1.0000
  H   H14       1.0  0.44993  0.11126  0.58481  1.0000
  H   H15       1.0  0.94962  0.11123  0.91517  1.0000
  H   H16       1.0  0.55031  0.88880  0.41519  1.0000
  Pb  Pb1       1.0  0.54399  0.77803  0.06948  1.0000
  Pb  Pb2       1.0  0.95587  0.22217  0.56949  1.0000
  Pb  Pb3       1.0  0.45541  0.22191  0.93055  1.0000
  Pb  Pb4       1.0  0.04460  0.77790  0.43056  1.0000
  C   C1        1.0  0.91485  0.45425  0.25544  1.0000
  C   C2        1.0  0.58520  0.54581  0.75542  1.0000
  C   C3        1.0  0.08512  0.54569  0.74457  1.0000
  C   C4        1.0  0.41487  0.45424  0.24457  1.0000
  C   C5        1.0  0.85618  0.26117  0.29578  1.0000
  C   C6        1.0  0.64391  0.73886  0.79578  1.0000
  C   C7        1.0  0.14401  0.73878  0.70419  1.0000
  C   C8        1.0  0.35595  0.26118  0.20421  1.0000
  C   C9        1.0  0.79569  0.08667  0.24805  1.0000
  C   C10       1.0  0.70436  0.91335  0.74805  1.0000
  C   C11       1.0  0.20439  0.91327  0.75194  1.0000
  C   C12       1.0  0.29558  0.08669  0.25196  1.0000
  C   C13       1.0  0.84221  0.26280  0.12798  1.0000
  C   C14       1.0  0.65782  0.73726  0.62796  1.0000
  C   C15       1.0  0.15755  0.73718  0.87202  1.0000
  C   C16       1.0  0.34242  0.26276  0.37205  1.0000
  C   C17       1.0  0.85341  0.23863  0.38358  1.0000
  C   C18       1.0  0.64664  0.76138  0.88360  1.0000
  C   C19       1.0  0.14698  0.76140  0.61639  1.0000
  C   C20       1.0  0.35297  0.23863  0.11640  1.0000
  N   N1        1.0  0.90488  0.43961  0.17214  1.0000
  N   N2        1.0  0.59511  0.56049  0.67214  1.0000
  N   N3        1.0  0.09482  0.56039  0.82786  1.0000
  N   N4        1.0  0.40513  0.43953  0.32786  1.0000
  N   N5        1.0  0.78736  0.08226  0.16792  1.0000
  N   N6        1.0  0.71270  0.91779  0.66790  1.0000
  N   N7        1.0  0.21253  0.91770  0.83208  1.0000
  N   N8        1.0  0.28745  0.08225  0.33210  1.0000
  O   O1        1.0  0.97192  0.62957  0.28548  1.0000
  O   O2        1.0  0.52813  0.37045  0.78543  1.0000
  O   O3        1.0  0.02810  0.37034  0.71454  1.0000
  O   O4        1.0  0.47199  0.62962  0.21456  1.0000
  O   O5        1.0  0.80187  0.05946  0.41373  1.0000
  O   O6        1.0  0.69815  0.94056  0.91376  1.0000
  O   O7        1.0  0.19846  0.94054  0.58626  1.0000
  O   O8        1.0  0.30144  0.05943  0.08626  1.0000
  O   O9        1.0  0.90300  0.39297  0.43021  1.0000
  O   O10       1.0  0.59702  0.60704  0.93021  1.0000
  O   O11       1.0  0.09751  0.60706  0.56974  1.0000
  O   O12       1.0  0.40245  0.39293  0.06977  1.0000
  O   O13       1.0  0.83330  0.26999  0.05235  1.0000
  O   O14       1.0  0.66666  0.72995  0.55233  1.0000
  O   O15       1.0  0.16637  0.73002  0.94765  1.0000
  O   O16       1.0  0.33366  0.27001  0.44768  1.0000
  O   O17       1.0  0.92286  0.75981  0.07136  1.0000
  O   O18       1.0  0.57719  0.24009  0.57134  1.0000
  O   O19       1.0  0.07692  0.24003  0.92865  1.0000
  O   O20       1.0  0.42311  0.75993  0.42863  1.0000
