data_image0
_chemical_formula_structural       Mn4H64C32S8O32
_chemical_formula_sum              "Mn4 H64 C32 S8 O32"
_cell_length_a       8.23038
_cell_length_b       12.1475
_cell_length_c       15.094
_cell_angle_alpha    111.839
_cell_angle_beta     90
_cell_angle_gamma    90

_space_group_name_H-M_alt    "P 1"
_space_group_IT_number       1

loop_
  _space_group_symop_operation_xyz
  'x, y, z'

loop_
  _atom_site_type_symbol
  _atom_site_label
  _atom_site_symmetry_multiplicity
  _atom_site_fract_x
  _atom_site_fract_y
  _atom_site_fract_z
  _atom_site_occupancy
  Mn  Mn1       1.0  0.50000  0.00000  0.00000  1.0000
  Mn  Mn2       1.0  1.00000  0.50000  1.00000  1.0000
  Mn  Mn3       1.0  0.50000  0.50000  0.50000  1.0000
  Mn  Mn4       1.0  0.00000  0.00000  0.50000  1.0000
  H   H1        1.0  0.47223  0.21401  0.96597  1.0000
  H   H2        1.0  0.97223  0.28600  0.03404  1.0000
  H   H3        1.0  0.52777  0.78599  0.03403  1.0000
  H   H4        1.0  0.02777  0.71401  0.96596  1.0000
  H   H5        1.0  0.30265  0.18532  0.01059  1.0000
  H   H6        1.0  0.80265  0.31469  0.98942  1.0000
  H   H7        1.0  0.69735  0.81468  0.98942  1.0000
  H   H8        1.0  0.19735  0.68532  0.01058  1.0000
  H   H9        1.0  0.40948  0.87389  0.20577  1.0000
  H   H10       1.0  0.90948  0.62611  0.79423  1.0000
  H   H11       1.0  0.59052  0.12611  0.79423  1.0000
  H   H12       1.0  0.09052  0.37389  0.20577  1.0000
  H   H13       1.0  0.27770  0.94665  0.30652  1.0000
  H   H14       1.0  0.77771  0.55335  0.69348  1.0000
  H   H15       1.0  0.72230  0.05335  0.69348  1.0000
  H   H16       1.0  0.22229  0.44665  0.30652  1.0000
  H   H17       1.0  0.48302  0.00051  0.30556  1.0000
  H   H18       1.0  0.98302  0.49949  0.69444  1.0000
  H   H19       1.0  0.51698  0.99949  0.69444  1.0000
  H   H20       1.0  0.01697  0.50051  0.30556  1.0000
  H   H21       1.0  0.38018  0.21508  0.34474  1.0000
  H   H22       1.0  0.88019  0.28493  0.65526  1.0000
  H   H23       1.0  0.61982  0.78492  0.65526  1.0000
  H   H24       1.0  0.11981  0.71507  0.34473  1.0000
  H   H25       1.0  0.17536  0.16361  0.35255  1.0000
  H   H26       1.0  0.67536  0.33640  0.64745  1.0000
  H   H27       1.0  0.82464  0.83639  0.64745  1.0000
  H   H28       1.0  0.32464  0.66360  0.35255  1.0000
  H   H29       1.0  0.21582  0.24969  0.28090  1.0000
  H   H30       1.0  0.71582  0.25032  0.71910  1.0000
  H   H31       1.0  0.78419  0.75031  0.71910  1.0000
  H   H32       1.0  0.28418  0.74968  0.28090  1.0000
  H   H33       1.0  0.70348  0.30594  0.46296  1.0000
  H   H34       1.0  0.20347  0.19405  0.53704  1.0000
  H   H35       1.0  0.29652  0.69406  0.53704  1.0000
  H   H36       1.0  0.79653  0.80595  0.46296  1.0000
  H   H37       1.0  0.52440  0.27237  0.49015  1.0000
  H   H38       1.0  0.02440  0.22763  0.50985  1.0000
  H   H39       1.0  0.47560  0.72763  0.50985  1.0000
  H   H40       1.0  0.97560  0.77237  0.49015  1.0000
  H   H41       1.0  0.56242  0.26208  0.19386  1.0000
  H   H42       1.0  0.06242  0.23791  0.80614  1.0000
  H   H43       1.0  0.43758  0.73792  0.80614  1.0000
  H   H44       1.0  0.93758  0.76209  0.19386  1.0000
  H   H45       1.0  0.70070  0.32266  0.13182  1.0000
  H   H46       1.0  0.20070  0.17735  0.86819  1.0000
  H   H47       1.0  0.29930  0.67734  0.86818  1.0000
  H   H48       1.0  0.79930  0.82265  0.13181  1.0000
  H   H49       1.0  0.49166  0.37223  0.14939  1.0000
  H   H50       1.0  0.99166  0.12777  0.85061  1.0000
  H   H51       1.0  0.50834  0.62777  0.85061  1.0000
  H   H52       1.0  0.00834  0.87223  0.14939  1.0000
  H   H53       1.0  0.57154  0.58642  0.21424  1.0000
  H   H54       1.0  0.07154  0.91357  0.78576  1.0000
  H   H55       1.0  0.42846  0.41357  0.78576  1.0000
  H   H56       1.0  0.92846  0.08643  0.21423  1.0000
  H   H57       1.0  0.78685  0.55418  0.20204  1.0000
  H   H58       1.0  0.28685  0.94581  0.79797  1.0000
  H   H59       1.0  0.21315  0.44582  0.79796  1.0000
  H   H60       1.0  0.71315  0.05419  0.20203  1.0000
  H   H61       1.0  0.70636  0.65385  0.31423  1.0000
  H   H62       1.0  0.20637  0.84615  0.68578  1.0000
  H   H63       1.0  0.29364  0.34615  0.68577  1.0000
  H   H64       1.0  0.79363  0.15385  0.31422  1.0000
  C   C1        1.0  0.37688  0.95856  0.26221  1.0000
  C   C2        1.0  0.87688  0.54145  0.73779  1.0000
  C   C3        1.0  0.62312  0.04144  0.73779  1.0000
  C   C4        1.0  0.12312  0.45855  0.26221  1.0000
  C   C5        1.0  0.26517  0.18380  0.30707  1.0000
  C   C6        1.0  0.76517  0.31621  0.69294  1.0000
  C   C7        1.0  0.73483  0.81620  0.69293  1.0000
  C   C8        1.0  0.23483  0.68379  0.30706  1.0000
  C   C9        1.0  0.88205  0.03534  0.01061  1.0000
  C   C10       1.0  0.38205  0.46465  0.98939  1.0000
  C   C11       1.0  0.11795  0.96466  0.98939  1.0000
  C   C12       1.0  0.61795  0.53535  0.01061  1.0000
  C   C13       1.0  0.04798  0.08575  0.02477  1.0000
  C   C14       1.0  0.54798  0.41425  0.97523  1.0000
  C   C15       1.0  0.95202  0.91425  0.97523  1.0000
  C   C16       1.0  0.45202  0.58576  0.02477  1.0000
  C   C17       1.0  0.59531  0.34152  0.17978  1.0000
  C   C18       1.0  0.09531  0.15848  0.82022  1.0000
  C   C19       1.0  0.40469  0.65848  0.82022  1.0000
  C   C20       1.0  0.90469  0.84152  0.17978  1.0000
  C   C21       1.0  0.68193  0.57467  0.25053  1.0000
  C   C22       1.0  0.18193  0.92533  0.74947  1.0000
  C   C23       1.0  0.31807  0.42533  0.74947  1.0000
  C   C24       1.0  0.81807  0.07467  0.25053  1.0000
  C   C25       1.0  0.11881  0.46814  0.49594  1.0000
  C   C26       1.0  0.61882  0.03187  0.50406  1.0000
  C   C27       1.0  0.88118  0.53186  0.50406  1.0000
  C   C28       1.0  0.38118  0.96814  0.49594  1.0000
  C   C29       1.0  0.95572  0.41448  0.48494  1.0000
  C   C30       1.0  0.45572  0.08552  0.51506  1.0000
  C   C31       1.0  0.04428  0.58552  0.51506  1.0000
  C   C32       1.0  0.54428  0.91448  0.48494  1.0000
  S   S1        1.0  0.29911  0.05232  0.20410  1.0000
  S   S2        1.0  0.79910  0.44769  0.79590  1.0000
  S   S3        1.0  0.70089  0.94768  0.79590  1.0000
  S   S4        1.0  0.20089  0.55231  0.20410  1.0000
  S   S5        1.0  0.65056  0.45453  0.29066  1.0000
  S   S6        1.0  0.15056  0.04547  0.70934  1.0000
  S   S7        1.0  0.34944  0.54547  0.70934  1.0000
  S   S8        1.0  0.84944  0.95453  0.29066  1.0000
  O   O1        1.0  0.44414  0.08179  0.15320  1.0000
  O   O2        1.0  0.94414  0.41822  0.84680  1.0000
  O   O3        1.0  0.55586  0.91821  0.84680  1.0000
  O   O4        1.0  0.05586  0.58178  0.15320  1.0000
  O   O5        1.0  0.74229  0.08110  0.02440  1.0000
  O   O6        1.0  0.24227  0.41889  0.97560  1.0000
  O   O7        1.0  0.25771  0.91890  0.97560  1.0000
  O   O8        1.0  0.75773  0.58111  0.02440  1.0000
  O   O9        1.0  0.10421  0.19028  0.05408  1.0000
  O   O10       1.0  0.60422  0.30972  0.94591  1.0000
  O   O11       1.0  0.89579  0.80972  0.94592  1.0000
  O   O12       1.0  0.39578  0.69028  0.05409  1.0000
  O   O13       1.0  0.40251  0.15065  0.97346  1.0000
  O   O14       1.0  0.90250  0.34935  0.02654  1.0000
  O   O15       1.0  0.59749  0.84935  0.02654  1.0000
  O   O16       1.0  0.09750  0.65065  0.97346  1.0000
  O   O17       1.0  0.49327  0.48491  0.34939  1.0000
  O   O18       1.0  0.99327  0.01509  0.65061  1.0000
  O   O19       1.0  0.50673  0.51510  0.65061  1.0000
  O   O20       1.0  0.00673  0.98491  0.34939  1.0000
  O   O21       1.0  0.26013  0.42614  0.48956  1.0000
  O   O22       1.0  0.76014  0.07385  0.51044  1.0000
  O   O23       1.0  0.73987  0.57386  0.51045  1.0000
  O   O24       1.0  0.23986  0.92615  0.48956  1.0000
  O   O25       1.0  0.90411  0.31046  0.46742  1.0000
  O   O26       1.0  0.40411  0.18954  0.53257  1.0000
  O   O27       1.0  0.09589  0.68954  0.53258  1.0000
  O   O28       1.0  0.59589  0.81046  0.46743  1.0000
  O   O29       1.0  0.58376  0.31630  0.45580  1.0000
  O   O30       1.0  0.08376  0.18370  0.54420  1.0000
  O   O31       1.0  0.41624  0.68370  0.54420  1.0000
  O   O32       1.0  0.91624  0.81630  0.45580  1.0000
