data_image0
_chemical_formula_structural       Ba2H28C4N32
_chemical_formula_sum              "Ba2 H28 C4 N32"
_cell_length_a       7.1972
_cell_length_b       9.21924
_cell_length_c       10.4408
_cell_angle_alpha    67.1305
_cell_angle_beta     78.6443
_cell_angle_gamma    79.7292

_space_group_name_H-M_alt    "P 1"
_space_group_IT_number       1

loop_
  _space_group_symop_operation_xyz
  'x, y, z'

loop_
  _atom_site_type_symbol
  _atom_site_label
  _atom_site_symmetry_multiplicity
  _atom_site_fract_x
  _atom_site_fract_y
  _atom_site_fract_z
  _atom_site_occupancy
  Ba  Ba1       1.0  0.55628  0.83479  0.81234  1.0000
  Ba  Ba2       1.0  0.44372  0.16521  0.18766  1.0000
  H   H1        1.0  0.85495  0.56327  0.43406  1.0000
  H   H2        1.0  0.14505  0.43673  0.56594  1.0000
  H   H3        1.0  0.53273  0.47135  0.38135  1.0000
  H   H4        1.0  0.46727  0.52865  0.61864  1.0000
  H   H5        1.0  0.13124  0.04125  0.87378  1.0000
  H   H6        1.0  0.86876  0.95876  0.12622  1.0000
  H   H7        1.0  0.20601  0.95423  0.02754  1.0000
  H   H8        1.0  0.79399  0.04577  0.97246  1.0000
  H   H9        1.0  0.12298  0.23174  0.95847  1.0000
  H   H10       1.0  0.87702  0.76826  0.04154  1.0000
  H   H11       1.0  0.30922  0.25177  0.83599  1.0000
  H   H12       1.0  0.69078  0.74823  0.16401  1.0000
  H   H13       1.0  0.27923  0.94132  0.54631  1.0000
  H   H14       1.0  0.72077  0.05868  0.45369  1.0000
  H   H15       1.0  0.15735  0.03203  0.65027  1.0000
  H   H16       1.0  0.84265  0.96797  0.34973  1.0000
  H   H17       1.0  0.39732  0.22659  0.51305  1.0000
  H   H18       1.0  0.60268  0.77341  0.48695  1.0000
  H   H19       1.0  0.19094  0.24004  0.45811  1.0000
  H   H20       1.0  0.80906  0.75996  0.54189  1.0000
  H   H21       1.0  0.80730  0.49717  0.78345  1.0000
  H   H22       1.0  0.19270  0.50283  0.21655  1.0000
  H   H23       1.0  0.79558  0.45410  0.95229  1.0000
  H   H24       1.0  0.20442  0.54590  0.04771  1.0000
  H   H25       1.0  0.63816  0.30009  0.85323  1.0000
  H   H26       1.0  0.36184  0.69991  0.14677  1.0000
  H   H27       1.0  0.46087  0.43354  0.87504  1.0000
  H   H28       1.0  0.53913  0.56647  0.12496  1.0000
  C   C1        1.0  0.78228  0.34841  0.57578  1.0000
  C   C2        1.0  0.21773  0.65158  0.42422  1.0000
  C   C3        1.0  0.78800  0.38821  0.29326  1.0000
  C   C4        1.0  0.21201  0.61178  0.70673  1.0000
  N   N1        1.0  0.74139  0.49564  0.47177  1.0000
  N   N2        1.0  0.25862  0.50436  0.52823  1.0000
  N   N3        1.0  0.92449  0.31424  0.65277  1.0000
  N   N4        1.0  0.07551  0.68576  0.34723  1.0000
  N   N5        1.0  0.90578  0.16361  0.74496  1.0000
  N   N6        1.0  0.09422  0.83639  0.25504  1.0000
  N   N7        1.0  0.75956  0.11306  0.72142  1.0000
  N   N8        1.0  0.24044  0.88694  0.27858  1.0000
  N   N9        1.0  0.67688  0.22733  0.61499  1.0000
  N   N10       1.0  0.32312  0.77267  0.38501  1.0000
  N   N11       1.0  0.67383  0.48838  0.35593  1.0000
  N   N12       1.0  0.32616  0.51162  0.64407  1.0000
  N   N13       1.0  0.97042  0.33407  0.31154  1.0000
  N   N14       1.0  0.02958  0.66593  0.68846  1.0000
  N   N15       1.0  0.03018  0.25594  0.22180  1.0000
  N   N16       1.0  0.96982  0.74406  0.77820  1.0000
  N   N17       1.0  0.89112  0.26230  0.15441  1.0000
  N   N18       1.0  0.10888  0.73770  0.84559  1.0000
  N   N19       1.0  0.73252  0.34611  0.19819  1.0000
  N   N20       1.0  0.26748  0.65389  0.80181  1.0000
  N   N21       1.0  0.24382  0.02866  0.92642  1.0000
  N   N22       1.0  0.75618  0.97134  0.07358  1.0000
  N   N23       1.0  0.25769  0.17987  0.93514  1.0000
  N   N24       1.0  0.74231  0.82013  0.06486  1.0000
  N   N25       1.0  0.28693  0.02094  0.59080  1.0000
  N   N26       1.0  0.71307  0.97906  0.40920  1.0000
  N   N27       1.0  0.31886  0.17113  0.47763  1.0000
  N   N28       1.0  0.68114  0.82887  0.52237  1.0000
  N   N29       1.0  0.71422  0.49222  0.87274  1.0000
  N   N30       1.0  0.28578  0.50779  0.12726  1.0000
  N   N31       1.0  0.58735  0.37372  0.90758  1.0000
  N   N32       1.0  0.41265  0.62628  0.09242  1.0000
