data_image0
_chemical_formula_structural       Zn4H32C16O32F16
_chemical_formula_sum              "Zn4 H32 C16 O32 F16"
_cell_length_a       9.03752
_cell_length_b       10.6943
_cell_length_c       10.941
_cell_angle_alpha    115.5
_cell_angle_beta     89.9998
_cell_angle_gamma    90

_space_group_name_H-M_alt    "P 1"
_space_group_IT_number       1

loop_
  _space_group_symop_operation_xyz
  'x, y, z'

loop_
  _atom_site_type_symbol
  _atom_site_label
  _atom_site_symmetry_multiplicity
  _atom_site_fract_x
  _atom_site_fract_y
  _atom_site_fract_z
  _atom_site_occupancy
  Zn  Zn1       1.0  0.86684  0.76414  0.00832  1.0000
  Zn  Zn2       1.0  0.36684  0.23586  0.49168  1.0000
  Zn  Zn3       1.0  0.13316  0.23585  0.99168  1.0000
  Zn  Zn4       1.0  0.63316  0.76415  0.50832  1.0000
  H   H1        1.0  0.92961  0.99600  0.23850  1.0000
  H   H2        1.0  0.42961  0.00400  0.26150  1.0000
  H   H3        1.0  0.07039  0.00400  0.76150  1.0000
  H   H4        1.0  0.57039  0.99600  0.73850  1.0000
  H   H5        1.0  0.76587  0.99582  0.17671  1.0000
  H   H6        1.0  0.26587  0.00419  0.32329  1.0000
  H   H7        1.0  0.23413  0.00419  0.82329  1.0000
  H   H8        1.0  0.73413  0.99581  0.67671  1.0000
  H   H9        1.0  0.84103  0.75917  0.26006  1.0000
  H   H10       1.0  0.34103  0.24083  0.23994  1.0000
  H   H11       1.0  0.15897  0.24083  0.73994  1.0000
  H   H12       1.0  0.65897  0.75917  0.76006  1.0000
  H   H13       1.0  0.79455  0.61831  0.14686  1.0000
  H   H14       1.0  0.29455  0.38169  0.35314  1.0000
  H   H15       1.0  0.20545  0.38169  0.85313  1.0000
  H   H16       1.0  0.70544  0.61831  0.64686  1.0000
  H   H17       1.0  0.77425  0.51924  0.80137  1.0000
  H   H18       1.0  0.27425  0.48075  0.69864  1.0000
  H   H19       1.0  0.22575  0.48075  0.19863  1.0000
  H   H20       1.0  0.72575  0.51925  0.30136  1.0000
  H   H21       1.0  0.94390  0.52208  0.84561  1.0000
  H   H22       1.0  0.44390  0.47792  0.65440  1.0000
  H   H23       1.0  0.05610  0.47791  0.15439  1.0000
  H   H24       1.0  0.55610  0.52209  0.34561  1.0000
  H   H25       1.0  0.88842  0.78924  0.77721  1.0000
  H   H26       1.0  0.38842  0.21076  0.72279  1.0000
  H   H27       1.0  0.11158  0.21076  0.22279  1.0000
  H   H28       1.0  0.61158  0.78924  0.27721  1.0000
  H   H29       1.0  0.01773  0.89038  0.86717  1.0000
  H   H30       1.0  0.51774  0.10961  0.63283  1.0000
  H   H31       1.0  0.98227  0.10962  0.13283  1.0000
  H   H32       1.0  0.48226  0.89039  0.36717  1.0000
  C   C1        1.0  0.17105  0.64404  0.96463  1.0000
  C   C2        1.0  0.67105  0.35596  0.53538  1.0000
  C   C3        1.0  0.82895  0.35596  0.03537  1.0000
  C   C4        1.0  0.32895  0.64404  0.46462  1.0000
  C   C5        1.0  0.33665  0.68072  0.00099  1.0000
  C   C6        1.0  0.83665  0.31928  0.49901  1.0000
  C   C7        1.0  0.66335  0.31928  0.99901  1.0000
  C   C8        1.0  0.16335  0.68072  0.50099  1.0000
  C   C9        1.0  0.38890  0.80647  0.97559  1.0000
  C   C10       1.0  0.88890  0.19353  0.52441  1.0000
  C   C11       1.0  0.61110  0.19353  0.02441  1.0000
  C   C12       1.0  0.11110  0.80647  0.47559  1.0000
  C   C13       1.0  0.54915  0.85309  0.02703  1.0000
  C   C14       1.0  0.04915  0.14691  0.47297  1.0000
  C   C15       1.0  0.45085  0.14691  0.97297  1.0000
  C   C16       1.0  0.95085  0.85309  0.52703  1.0000
  O   O1        1.0  0.08246  0.72743  0.04884  1.0000
  O   O2        1.0  0.58246  0.27257  0.45116  1.0000
  O   O3        1.0  0.91754  0.27257  0.95115  1.0000
  O   O4        1.0  0.41754  0.72743  0.54884  1.0000
  O   O5        1.0  0.14333  0.53807  0.85539  1.0000
  O   O6        1.0  0.64334  0.46193  0.64461  1.0000
  O   O7        1.0  0.85666  0.46193  0.14461  1.0000
  O   O8        1.0  0.35666  0.53807  0.35539  1.0000
  O   O9        1.0  0.65031  0.78607  0.94476  1.0000
  O   O10       1.0  0.15031  0.21393  0.55524  1.0000
  O   O11       1.0  0.34968  0.21393  0.05524  1.0000
  O   O12       1.0  0.84969  0.78606  0.44476  1.0000
  O   O13       1.0  0.56451  0.94834  0.14447  1.0000
  O   O14       1.0  0.06451  0.05166  0.35553  1.0000
  O   O15       1.0  0.43549  0.05166  0.85553  1.0000
  O   O16       1.0  0.93549  0.94834  0.64447  1.0000
  O   O17       1.0  0.87191  0.97526  0.15354  1.0000
  O   O18       1.0  0.37191  0.02475  0.34647  1.0000
  O   O19       1.0  0.12809  0.02475  0.84646  1.0000
  O   O20       1.0  0.62809  0.97525  0.65353  1.0000
  O   O21       1.0  0.78464  0.71964  0.17436  1.0000
  O   O22       1.0  0.28464  0.28036  0.32565  1.0000
  O   O23       1.0  0.21536  0.28036  0.82564  1.0000
  O   O24       1.0  0.71536  0.71964  0.67435  1.0000
  O   O25       1.0  0.84169  0.55044  0.87974  1.0000
  O   O26       1.0  0.34169  0.44956  0.62026  1.0000
  O   O27       1.0  0.15831  0.44956  0.12026  1.0000
  O   O28       1.0  0.65831  0.55044  0.37974  1.0000
  O   O29       1.0  0.95092  0.81378  0.85794  1.0000
  O   O30       1.0  0.45092  0.18622  0.64206  1.0000
  O   O31       1.0  0.04908  0.18622  0.14206  1.0000
  O   O32       1.0  0.54908  0.81378  0.35794  1.0000
  F   F1        1.0  0.42601  0.56996  0.92594  1.0000
  F   F2        1.0  0.92602  0.43004  0.57406  1.0000
  F   F3        1.0  0.57399  0.43004  0.07406  1.0000
  F   F4        1.0  0.07399  0.56996  0.42595  1.0000
  F   F5        1.0  0.36004  0.71224  0.13498  1.0000
  F   F6        1.0  0.86004  0.28776  0.36502  1.0000
  F   F7        1.0  0.63996  0.28776  0.86502  1.0000
  F   F8        1.0  0.13996  0.71224  0.63498  1.0000
  F   F9        1.0  0.37898  0.76822  0.83888  1.0000
  F   F10       1.0  0.87898  0.23178  0.66112  1.0000
  F   F11       1.0  0.62102  0.23178  0.16112  1.0000
  F   F12       1.0  0.12103  0.76823  0.33888  1.0000
  F   F13       1.0  0.29300  0.91536  0.03959  1.0000
  F   F14       1.0  0.79300  0.08464  0.46041  1.0000
  F   F15       1.0  0.70700  0.08464  0.96041  1.0000
  F   F16       1.0  0.20700  0.91536  0.53959  1.0000
