data_image0
_chemical_formula_structural       Cu2H26C12I2N2O4
_chemical_formula_sum              "Cu2 H26 C12 I2 N2 O4"
_cell_length_a       7.40133
_cell_length_b       8.33518
_cell_length_c       8.85417
_cell_angle_alpha    113.619
_cell_angle_beta     102.009
_cell_angle_gamma    101.93

_space_group_name_H-M_alt    "P 1"
_space_group_IT_number       1

loop_
  _space_group_symop_operation_xyz
  'x, y, z'

loop_
  _atom_site_type_symbol
  _atom_site_label
  _atom_site_symmetry_multiplicity
  _atom_site_fract_x
  _atom_site_fract_y
  _atom_site_fract_z
  _atom_site_occupancy
  Cu  Cu1       1.0  0.37679  0.56100  0.55358  1.0000
  Cu  Cu2       1.0  0.62320  0.43899  0.44641  1.0000
  H   H1        1.0  0.10929  0.63456  0.69313  1.0000
  H   H2        1.0  0.89071  0.36544  0.30688  1.0000
  H   H3        1.0  0.47135  0.94595  0.83425  1.0000
  H   H4        1.0  0.52865  0.05405  0.16575  1.0000
  H   H5        1.0  0.24890  0.96340  0.87894  1.0000
  H   H6        1.0  0.75111  0.03660  0.12106  1.0000
  H   H7        1.0  0.07727  0.85058  0.56748  1.0000
  H   H8        1.0  0.92273  0.14942  0.43252  1.0000
  H   H9        1.0  0.28321  0.05425  0.64930  1.0000
  H   H10       1.0  0.71679  0.94575  0.35070  1.0000
  H   H11       1.0  0.33454  0.72144  0.25079  1.0000
  H   H12       1.0  0.66545  0.27856  0.74921  1.0000
  H   H13       1.0  0.34618  0.95979  0.35734  1.0000
  H   H14       1.0  0.65382  0.04022  0.64265  1.0000
  H   H15       1.0  0.99362  0.86181  0.32525  1.0000
  H   H16       1.0  0.00637  0.13819  0.67475  1.0000
  H   H17       1.0  0.03726  0.78212  0.12241  1.0000
  H   H18       1.0  0.96273  0.21788  0.87759  1.0000
  H   H19       1.0  0.70927  0.54000  0.01577  1.0000
  H   H20       1.0  0.29074  0.45999  0.98422  1.0000
  H   H21       1.0  0.69886  0.61666  0.23402  1.0000
  H   H22       1.0  0.30114  0.38333  0.76597  1.0000
  H   H23       1.0  0.27223  0.75967  0.00064  1.0000
  H   H24       1.0  0.72778  0.24032  0.99936  1.0000
  H   H25       1.0  0.48421  0.71836  0.94705  1.0000
  H   H26       1.0  0.51580  0.28164  0.05295  1.0000
  C   C1        1.0  0.31131  0.88693  0.78049  1.0000
  C   C2        1.0  0.68868  0.11307  0.21951  1.0000
  C   C3        1.0  0.23834  0.90648  0.61805  1.0000
  C   C4        1.0  0.76166  0.09353  0.38196  1.0000
  C   C5        1.0  0.27320  0.81806  0.33331  1.0000
  C   C6        1.0  0.72680  0.18194  0.66668  1.0000
  C   C7        1.0  0.05721  0.76643  0.24260  1.0000
  C   C8        1.0  0.94278  0.23357  0.75740  1.0000
  C   C9        1.0  0.75527  0.52759  0.13675  1.0000
  C   C10       1.0  0.24474  0.47241  0.86325  1.0000
  C   C11       1.0  0.32370  0.67120  0.89964  1.0000
  C   C12       1.0  0.67631  0.32879  0.10036  1.0000
  I   I1        1.0  0.23727  0.26930  0.26727  1.0000
  I   I2        1.0  0.76273  0.73070  0.73272  1.0000
  N   N1        1.0  0.25940  0.68989  0.73996  1.0000
  N   N2        1.0  0.74062  0.31012  0.26005  1.0000
  O   O1        1.0  0.32042  0.80642  0.49338  1.0000
  O   O2        1.0  0.67958  0.19359  0.50661  1.0000
  O   O3        1.0  0.96205  0.58142  0.20359  1.0000
  O   O4        1.0  0.03795  0.41858  0.79642  1.0000
