data_image0
_chemical_formula_structural       Ca2H20C32O16
_chemical_formula_sum              "Ca2 H20 C32 O16"
_cell_length_a       5.96268
_cell_length_b       7.52472
_cell_length_c       18.4455
_cell_angle_alpha    91.8886
_cell_angle_beta     97.0506
_cell_angle_gamma    96.4777

_space_group_name_H-M_alt    "P 1"
_space_group_IT_number       1

loop_
  _space_group_symop_operation_xyz
  'x, y, z'

loop_
  _atom_site_type_symbol
  _atom_site_label
  _atom_site_symmetry_multiplicity
  _atom_site_fract_x
  _atom_site_fract_y
  _atom_site_fract_z
  _atom_site_occupancy
  Ca  Ca1       1.0  0.02274  0.27215  0.04541  1.0000
  Ca  Ca2       1.0  0.97726  0.72785  0.95459  1.0000
  H   H1        1.0  0.86249  0.39206  0.80056  1.0000
  H   H2        1.0  0.13752  0.60794  0.19945  1.0000
  H   H3        1.0  0.08870  0.05968  0.74186  1.0000
  H   H4        1.0  0.91129  0.94032  0.25814  1.0000
  H   H5        1.0  0.14681  0.10333  0.47759  1.0000
  H   H6        1.0  0.85319  0.89667  0.52241  1.0000
  H   H7        1.0  0.36678  0.20056  0.37754  1.0000
  H   H8        1.0  0.63322  0.79943  0.62246  1.0000
  H   H9        1.0  0.76577  0.35241  0.40666  1.0000
  H   H10       1.0  0.23424  0.64758  0.59334  1.0000
  H   H11       1.0  0.93222  0.41356  0.53772  1.0000
  H   H12       1.0  0.06778  0.58643  0.46228  1.0000
  H   H13       1.0  0.76969  0.54764  0.09888  1.0000
  H   H14       1.0  0.23031  0.45236  0.90112  1.0000
  H   H15       1.0  0.78915  0.42964  0.16965  1.0000
  H   H16       1.0  0.21085  0.57036  0.83035  1.0000
  H   H17       1.0  0.51180  0.26413  0.09931  1.0000
  H   H18       1.0  0.48820  0.73587  0.90069  1.0000
  H   H19       1.0  0.38219  0.06643  0.08185  1.0000
  H   H20       1.0  0.61781  0.93357  0.91815  1.0000
  C   C1        1.0  0.69206  0.32045  0.78852  1.0000
  C   C2        1.0  0.30794  0.67955  0.21148  1.0000
  C   C3        1.0  0.56984  0.26425  0.84490  1.0000
  C   C4        1.0  0.43016  0.73576  0.15510  1.0000
  C   C5        1.0  0.34945  0.17089  0.82816  1.0000
  C   C6        1.0  0.65055  0.82912  0.17184  1.0000
  C   C7        1.0  0.25835  0.13225  0.75549  1.0000
  C   C8        1.0  0.74164  0.86775  0.24451  1.0000
  C   C9        1.0  0.38206  0.18762  0.69883  1.0000
  C   C10       1.0  0.61794  0.81237  0.30117  1.0000
  C   C11       1.0  0.27808  0.14486  0.62200  1.0000
  C   C12       1.0  0.72192  0.85515  0.37800  1.0000
  C   C13       1.0  0.41200  0.20794  0.56336  1.0000
  C   C14       1.0  0.58799  0.79205  0.43663  1.0000
  C   C15       1.0  0.31766  0.17395  0.49023  1.0000
  C   C16       1.0  0.68234  0.82604  0.50977  1.0000
  C   C17       1.0  0.44325  0.22753  0.43420  1.0000
  C   C18       1.0  0.55675  0.77247  0.56580  1.0000
  C   C19       1.0  0.66587  0.31290  0.45050  1.0000
  C   C20       1.0  0.33414  0.68710  0.54950  1.0000
  C   C21       1.0  0.75986  0.34776  0.52317  1.0000
  C   C22       1.0  0.24015  0.65223  0.47683  1.0000
  C   C23       1.0  0.63434  0.29848  0.58008  1.0000
  C   C24       1.0  0.36566  0.70151  0.41992  1.0000
  C   C25       1.0  0.73690  0.34500  0.65664  1.0000
  C   C26       1.0  0.26310  0.65501  0.34336  1.0000
  C   C27       1.0  0.60077  0.28304  0.71538  1.0000
  C   C28       1.0  0.39922  0.71696  0.28462  1.0000
  C   C29       1.0  0.68384  0.28729  0.92233  1.0000
  C   C30       1.0  0.31616  0.71271  0.07766  1.0000
  C   C31       1.0  0.20804  0.12413  0.88855  1.0000
  C   C32       1.0  0.79197  0.87587  0.11145  1.0000
  O   O1        1.0  0.08790  0.05735  0.60853  1.0000
  O   O2        1.0  0.91210  0.94266  0.39148  1.0000
  O   O3        1.0  0.92600  0.43421  0.67178  1.0000
  O   O4        1.0  0.07399  0.56580  0.32823  1.0000
  O   O5        1.0  0.68409  0.14851  0.95983  1.0000
  O   O6        1.0  0.31590  0.85149  0.04017  1.0000
  O   O7        1.0  0.78738  0.43857  0.94652  1.0000
  O   O8        1.0  0.21262  0.56143  0.05348  1.0000
  O   O9        1.0  0.19179  0.25444  0.93352  1.0000
  O   O10       1.0  0.80821  0.74556  0.06648  1.0000
  O   O11       1.0  0.11307  0.96716  0.89021  1.0000
  O   O12       1.0  0.88693  0.03284  0.10979  1.0000
  O   O13       1.0  0.77249  0.42116  0.11648  1.0000
  O   O14       1.0  0.22751  0.57885  0.88352  1.0000
  O   O15       1.0  0.36660  0.18875  0.10118  1.0000
  O   O16       1.0  0.63341  0.81125  0.89882  1.0000
