data_image0
_chemical_formula_structural       Cd2H20C32O16
_chemical_formula_sum              "Cd2 H20 C32 O16"
_cell_length_a       5.90415
_cell_length_b       7.42521
_cell_length_c       18.5719
_cell_angle_alpha    93.4891
_cell_angle_beta     96.2588
_cell_angle_gamma    95.4407

_space_group_name_H-M_alt    "P 1"
_space_group_IT_number       1

loop_
  _space_group_symop_operation_xyz
  'x, y, z'

loop_
  _atom_site_type_symbol
  _atom_site_label
  _atom_site_symmetry_multiplicity
  _atom_site_fract_x
  _atom_site_fract_y
  _atom_site_fract_z
  _atom_site_occupancy
  Cd  Cd1       1.0  0.48132  0.24580  0.95749  1.0000
  Cd  Cd2       1.0  0.51868  0.75421  0.04251  1.0000
  H   H1        1.0  0.40654  0.43798  0.25682  1.0000
  H   H2        1.0  0.59345  0.56203  0.74318  1.0000
  H   H3        1.0  0.63595  0.09543  0.20080  1.0000
  H   H4        1.0  0.36405  0.90457  0.79920  1.0000
  H   H5        1.0  0.56902  0.08403  0.46256  1.0000
  H   H6        1.0  0.43098  0.91597  0.53744  1.0000
  H   H7        1.0  0.73825  0.14896  0.59236  1.0000
  H   H8        1.0  0.26175  0.85104  0.40764  1.0000
  H   H9        1.0  0.13849  0.30078  0.61991  1.0000
  H   H10       1.0  0.86151  0.69921  0.38009  1.0000
  H   H11       1.0  0.35592  0.39724  0.51986  1.0000
  H   H12       1.0  0.64408  0.60276  0.48014  1.0000
  H   H13       1.0  0.01267  0.24004  0.90228  1.0000
  H   H14       1.0  0.98733  0.75996  0.09772  1.0000
  H   H15       1.0  0.69990  0.08282  0.83930  1.0000
  H   H16       1.0  0.30010  0.91718  0.16070  1.0000
  H   H17       1.0  0.14012  0.44235  0.91402  1.0000
  H   H18       1.0  0.85989  0.55765  0.08598  1.0000
  H   H19       1.0  0.73491  0.96280  0.90789  1.0000
  H   H20       1.0  0.26509  0.03720  0.09211  1.0000
  C   C1        1.0  0.23784  0.36290  0.24377  1.0000
  C   C2        1.0  0.76215  0.63711  0.75623  1.0000
  C   C3        1.0  0.14484  0.32288  0.17184  1.0000
  C   C4        1.0  0.85515  0.67712  0.82816  1.0000
  C   C5        1.0  0.92528  0.22704  0.15589  1.0000
  C   C6        1.0  0.07472  0.77296  0.84410  1.0000
  C   C7        1.0  0.80543  0.16962  0.21230  1.0000
  C   C8        1.0  0.19458  0.83037  0.78770  1.0000
  C   C9        1.0  0.89806  0.20935  0.28472  1.0000
  C   C10       1.0  0.10195  0.79065  0.71528  1.0000
  C   C11       1.0  0.76323  0.14865  0.34359  1.0000
  C   C12       1.0  0.23677  0.85134  0.65641  1.0000
  C   C13       1.0  0.86638  0.19881  0.41939  1.0000
  C   C14       1.0  0.13363  0.80119  0.58061  1.0000
  C   C15       1.0  0.74181  0.15063  0.47643  1.0000
  C   C16       1.0  0.25820  0.84936  0.52357  1.0000
  C   C17       1.0  0.83732  0.18730  0.54837  1.0000
  C   C18       1.0  0.16268  0.81270  0.45163  1.0000
  C   C19       1.0  0.06058  0.27326  0.56382  1.0000
  C   C20       1.0  0.93942  0.72674  0.43618  1.0000
  C   C21       1.0  0.18484  0.32602  0.50767  1.0000
  C   C22       1.0  0.81516  0.67398  0.49233  1.0000
  C   C23       1.0  0.08897  0.29043  0.43526  1.0000
  C   C24       1.0  0.91103  0.70957  0.56474  1.0000
  C   C25       1.0  0.22141  0.35276  0.37658  1.0000
  C   C26       1.0  0.77859  0.64725  0.62342  1.0000
  C   C27       1.0  0.11630  0.30704  0.30048  1.0000
  C   C28       1.0  0.88370  0.69296  0.69952  1.0000
  C   C29       1.0  0.80777  0.20300  0.07969  1.0000
  C   C30       1.0  0.19223  0.79700  0.92031  1.0000
  C   C31       1.0  0.28116  0.37485  0.11103  1.0000
  C   C32       1.0  0.71884  0.62516  0.88897  1.0000
  O   O1        1.0  0.57460  0.05769  0.32917  1.0000
  O   O2        1.0  0.42541  0.94231  0.67083  1.0000
  O   O3        1.0  0.70838  0.05138  0.05408  1.0000
  O   O4        1.0  0.29162  0.94862  0.94592  1.0000
  O   O5        1.0  0.80084  0.34635  0.04471  1.0000
  O   O6        1.0  0.19916  0.65365  0.95529  1.0000
  O   O7        1.0  0.41118  0.44202  0.38953  1.0000
  O   O8        1.0  0.58881  0.55798  0.61047  1.0000
  O   O9        1.0  0.29730  0.24481  0.06365  1.0000
  O   O10       1.0  0.70270  0.75520  0.93635  1.0000
  O   O11       1.0  0.36875  0.53587  0.11273  1.0000
  O   O12       1.0  0.63124  0.46413  0.88727  1.0000
  O   O13       1.0  0.15314  0.31593  0.89432  1.0000
  O   O14       1.0  0.84686  0.68407  0.10568  1.0000
  O   O15       1.0  0.74022  0.09078  0.89175  1.0000
  O   O16       1.0  0.25978  0.90922  0.10825  1.0000
