data_image0
_chemical_formula_structural       Cd2H20C32O16
_chemical_formula_sum              "Cd2 H20 C32 O16"
_cell_length_a       5.87907
_cell_length_b       7.3317
_cell_length_c       18.6132
_cell_angle_alpha    94.9229
_cell_angle_beta     94.566
_cell_angle_gamma    96.2915

_space_group_name_H-M_alt    "P 1"
_space_group_IT_number       1

loop_
  _space_group_symop_operation_xyz
  'x, y, z'

loop_
  _atom_site_type_symbol
  _atom_site_label
  _atom_site_symmetry_multiplicity
  _atom_site_fract_x
  _atom_site_fract_y
  _atom_site_fract_z
  _atom_site_occupancy
  Cd  Cd1       1.0  0.98672  0.73807  0.95686  1.0000
  Cd  Cd2       1.0  0.01330  0.26193  0.04314  1.0000
  H   H1        1.0  0.91432  0.94008  0.25387  1.0000
  H   H2        1.0  0.08569  0.05992  0.74613  1.0000
  H   H3        1.0  0.12976  0.59879  0.20064  1.0000
  H   H4        1.0  0.87026  0.40121  0.79936  1.0000
  H   H5        1.0  0.06652  0.58320  0.46234  1.0000
  H   H6        1.0  0.93344  0.41679  0.53764  1.0000
  H   H7        1.0  0.23388  0.65131  0.59127  1.0000
  H   H8        1.0  0.76606  0.34868  0.40872  1.0000
  H   H9        1.0  0.86183  0.89750  0.51669  1.0000
  H   H10       1.0  0.13813  0.10248  0.48331  1.0000
  H   H11       1.0  0.63904  0.80423  0.61694  1.0000
  H   H12       1.0  0.36089  0.19577  0.38306  1.0000
  H   H13       1.0  0.24978  0.47184  0.91216  1.0000
  H   H14       1.0  0.75024  0.52816  0.08784  1.0000
  H   H15       1.0  0.37232  0.65941  0.88763  1.0000
  H   H16       1.0  0.62770  0.34059  0.11237  1.0000
  H   H17       1.0  0.64106  0.93370  0.91184  1.0000
  H   H18       1.0  0.35897  0.06630  0.08816  1.0000
  H   H19       1.0  0.68636  0.81498  0.84094  1.0000
  H   H20       1.0  0.31367  0.18502  0.15906  1.0000
  C   C1        1.0  0.74293  0.86550  0.24145  1.0000
  C   C2        1.0  0.25708  0.13449  0.75855  1.0000
  C   C3        1.0  0.64755  0.82866  0.17018  1.0000
  C   C4        1.0  0.35246  0.17135  0.82983  1.0000
  C   C5        1.0  0.42393  0.73480  0.15532  1.0000
  C   C6        1.0  0.57608  0.26521  0.84468  1.0000
  C   C7        1.0  0.30239  0.67274  0.21165  1.0000
  C   C8        1.0  0.69762  0.32726  0.78835  1.0000
  C   C9        1.0  0.39933  0.70851  0.28342  1.0000
  C   C10       1.0  0.60067  0.29148  0.71658  1.0000
  C   C11       1.0  0.26530  0.64412  0.34299  1.0000
  C   C12       1.0  0.73469  0.35588  0.65701  1.0000
  C   C13       1.0  0.36881  0.69683  0.41819  1.0000
  C   C14       1.0  0.63118  0.30316  0.58181  1.0000
  C   C15       1.0  0.24103  0.65018  0.47557  1.0000
  C   C16       1.0  0.75895  0.34981  0.52442  1.0000
  C   C17       1.0  0.33539  0.68889  0.54700  1.0000
  C   C18       1.0  0.66457  0.31111  0.45299  1.0000
  C   C19       1.0  0.56102  0.77524  0.56139  1.0000
  C   C20       1.0  0.43894  0.22476  0.43861  1.0000
  C   C21       1.0  0.68866  0.82645  0.50490  1.0000
  C   C22       1.0  0.31132  0.17353  0.49510  1.0000
  C   C23       1.0  0.59359  0.78943  0.43301  1.0000
  C   C24       1.0  0.40640  0.21057  0.56699  1.0000
  C   C25       1.0  0.72801  0.85166  0.37384  1.0000
  C   C26       1.0  0.27198  0.14833  0.62616  1.0000
  C   C27       1.0  0.62036  0.80703  0.29836  1.0000
  C   C28       1.0  0.37964  0.19298  0.70165  1.0000
  C   C29       1.0  0.78594  0.88144  0.10896  1.0000
  C   C30       1.0  0.21408  0.11857  0.89105  1.0000
  C   C31       1.0  0.30657  0.71659  0.08022  1.0000
  C   C32       1.0  0.69344  0.28342  0.91978  1.0000
  O   O1        1.0  0.20425  0.56377  0.05233  1.0000
  O   O2        1.0  0.79577  0.43624  0.94767  1.0000
  O   O3        1.0  0.30260  0.86391  0.04786  1.0000
  O   O4        1.0  0.69743  0.13610  0.95214  1.0000
  O   O5        1.0  0.77822  0.75728  0.05588  1.0000
  O   O6        1.0  0.22181  0.24274  0.94413  1.0000
  O   O7        1.0  0.89879  0.03924  0.11623  1.0000
  O   O8        1.0  0.10123  0.96076  0.88378  1.0000
  O   O9        1.0  0.07730  0.54818  0.32969  1.0000
  O   O10       1.0  0.92270  0.45181  0.67030  1.0000
  O   O11       1.0  0.92025  0.94160  0.38589  1.0000
  O   O12       1.0  0.07974  0.05839  0.61412  1.0000
  O   O13       1.0  0.22209  0.58241  0.88710  1.0000
  O   O14       1.0  0.77793  0.41759  0.11290  1.0000
  O   O15       1.0  0.63681  0.80154  0.88912  1.0000
  O   O16       1.0  0.36321  0.19847  0.11088  1.0000
