data_image0
_chemical_formula_structural       Zn2H20C32O16
_chemical_formula_sum              "Zn2 H20 C32 O16"
_cell_length_a       6.9788
_cell_length_b       7.82328
_cell_length_c       14.9086
_cell_angle_alpha    90.3169
_cell_angle_beta     84.8175
_cell_angle_gamma    118.494

_space_group_name_H-M_alt    "P 1"
_space_group_IT_number       1

loop_
  _space_group_symop_operation_xyz
  'x, y, z'

loop_
  _atom_site_type_symbol
  _atom_site_label
  _atom_site_symmetry_multiplicity
  _atom_site_fract_x
  _atom_site_fract_y
  _atom_site_fract_z
  _atom_site_occupancy
  Zn  Zn1       1.0  0.93168  0.69978  0.43412  1.0000
  Zn  Zn2       1.0  0.06835  0.29977  0.56577  1.0000
  H   H1        1.0  0.90746  0.98319  0.86797  1.0000
  H   H2        1.0  0.09265  0.01667  0.13179  1.0000
  H   H3        1.0  0.82543  0.34929  0.76008  1.0000
  H   H4        1.0  0.17493  0.65042  0.24003  1.0000
  H   H5        1.0  0.64956  0.07595  0.06682  1.0000
  H   H6        1.0  0.35065  0.92420  0.93333  1.0000
  H   H7        1.0  0.57424  0.10412  0.23191  1.0000
  H   H8        1.0  0.42616  0.89634  0.76824  1.0000
  H   H9        1.0  0.60779  0.41685  0.28914  1.0000
  H   H10       1.0  0.39246  0.58361  0.71087  1.0000
  H   H11       1.0  0.70047  0.69363  0.18136  1.0000
  H   H12       1.0  0.29969  0.30670  0.81852  1.0000
  H   H13       1.0  0.31752  0.01147  0.42452  1.0000
  H   H14       1.0  0.68021  0.98969  0.57573  1.0000
  H   H15       1.0  0.26370  0.94887  0.52836  1.0000
  H   H16       1.0  0.73444  0.05150  0.47185  1.0000
  H   H17       1.0  0.45510  0.51359  0.42452  1.0000
  H   H18       1.0  0.54493  0.48635  0.57516  1.0000
  H   H19       1.0  0.61448  0.74448  0.39222  1.0000
  H   H20       1.0  0.38605  0.25584  0.60788  1.0000
  C   C1        1.0  0.89049  0.84608  0.84288  1.0000
  C   C2        1.0  0.10960  0.15371  0.15698  1.0000
  C   C3        1.0  0.93965  0.82675  0.75167  1.0000
  C   C4        1.0  0.06037  0.17284  0.24820  1.0000
  C   C5        1.0  0.90790  0.64474  0.72131  1.0000
  C   C6        1.0  0.09236  0.35486  0.27863  1.0000
  C   C7        1.0  0.84325  0.48886  0.78206  1.0000
  C   C8        1.0  0.15700  0.51088  0.21796  1.0000
  C   C9        1.0  0.80532  0.51062  0.87369  1.0000
  C   C10       1.0  0.19487  0.48926  0.12631  1.0000
  C   C11       1.0  0.75240  0.34312  0.93594  1.0000
  C   C12       1.0  0.24781  0.65686  0.06412  1.0000
  C   C13       1.0  0.71295  0.36563  0.03308  1.0000
  C   C14       1.0  0.28728  0.63448  0.96697  1.0000
  C   C15       1.0  0.65856  0.20901  0.09341  1.0000
  C   C16       1.0  0.34169  0.79118  0.90669  1.0000
  C   C17       1.0  0.61768  0.22644  0.18507  1.0000
  C   C18       1.0  0.38264  0.77391  0.81502  1.0000
  C   C19       1.0  0.63512  0.40142  0.21721  1.0000
  C   C20       1.0  0.36515  0.59898  0.78280  1.0000
  C   C21       1.0  0.68861  0.55733  0.15759  1.0000
  C   C22       1.0  0.31163  0.44297  0.84237  1.0000
  C   C23       1.0  0.72600  0.54076  0.06481  1.0000
  C   C24       1.0  0.27426  0.45942  0.93516  1.0000
  C   C25       1.0  0.77537  0.70716  0.00231  1.0000
  C   C26       1.0  0.22490  0.29294  0.99761  1.0000
  C   C27       1.0  0.82445  0.68804  0.90443  1.0000
  C   C28       1.0  0.17576  0.31189  0.09550  1.0000
  C   C29       1.0  0.05150  0.99638  0.68419  1.0000
  C   C30       1.0  0.94815  0.00297  0.31556  1.0000
  C   C31       1.0  0.94331  0.61477  0.62383  1.0000
  C   C32       1.0  0.05700  0.38462  0.37614  1.0000
  O   O1        1.0  0.77044  0.85383  0.03060  1.0000
  O   O2        1.0  0.22992  0.14635  0.96927  1.0000
  O   O3        1.0  0.74717  0.19316  0.90626  1.0000
  O   O4        1.0  0.25310  0.80678  0.09388  1.0000
  O   O5        1.0  0.22857  0.01738  0.64119  1.0000
  O   O6        1.0  0.77099  0.98198  0.35846  1.0000
  O   O7        1.0  0.96587  0.10661  0.67365  1.0000
  O   O8        1.0  0.03358  0.89256  0.32605  1.0000
  O   O9        1.0  0.84412  0.66595  0.56955  1.0000
  O   O10       1.0  0.15596  0.33301  0.43038  1.0000
  O   O11       1.0  0.06571  0.54157  0.60018  1.0000
  O   O12       1.0  0.93495  0.45810  0.39989  1.0000
  O   O13       1.0  0.25970  0.89927  0.46666  1.0000
  O   O14       1.0  0.73916  0.10169  0.53340  1.0000
  O   O15       1.0  0.60566  0.62230  0.41655  1.0000
  O   O16       1.0  0.39413  0.37822  0.58434  1.0000
