data_image0
_chemical_formula_structural       Mn2H20C32O16
_chemical_formula_sum              "Mn2 H20 C32 O16"
_cell_length_a       5.79116
_cell_length_b       7.37852
_cell_length_c       18.5445
_cell_angle_alpha    91.2036
_cell_angle_beta     83.8605
_cell_angle_gamma    83.4105

_space_group_name_H-M_alt    "P 1"
_space_group_IT_number       1

loop_
  _space_group_symop_operation_xyz
  'x, y, z'

loop_
  _atom_site_type_symbol
  _atom_site_label
  _atom_site_symmetry_multiplicity
  _atom_site_fract_x
  _atom_site_fract_y
  _atom_site_fract_z
  _atom_site_occupancy
  Mn  Mn1       1.0  0.47131  0.75310  0.04340  1.0000
  Mn  Mn2       1.0  0.52870  0.24692  0.95660  1.0000
  H   H1        1.0  0.63238  0.91438  0.79868  1.0000
  H   H2        1.0  0.36763  0.08561  0.20132  1.0000
  H   H3        1.0  0.41563  0.55463  0.75102  1.0000
  H   H4        1.0  0.58438  0.44537  0.24898  1.0000
  H   H5        1.0  0.36992  0.59974  0.48539  1.0000
  H   H6        1.0  0.63007  0.40023  0.51461  1.0000
  H   H7        1.0  0.15012  0.69854  0.38389  1.0000
  H   H8        1.0  0.84987  0.30142  0.61611  1.0000
  H   H9        1.0  0.73774  0.85144  0.40841  1.0000
  H   H10       1.0  0.26226  0.14854  0.59159  1.0000
  H   H11       1.0  0.56237  0.91398  0.53732  1.0000
  H   H12       1.0  0.43762  0.08600  0.46268  1.0000
  H   H13       1.0  0.72680  0.02419  0.08988  1.0000
  H   H14       1.0  0.27320  0.97584  0.91012  1.0000
  H   H15       1.0  0.70226  0.89508  0.15786  1.0000
  H   H16       1.0  0.29775  0.10494  0.84214  1.0000
  H   H17       1.0  0.00560  0.73333  0.08634  1.0000
  H   H18       1.0  0.99440  0.26670  0.91366  1.0000
  H   H19       1.0  0.14508  0.53159  0.07244  1.0000
  H   H20       1.0  0.85493  0.46844  0.92756  1.0000
  C   C1        1.0  0.80474  0.83642  0.78905  1.0000
  C   C2        1.0  0.19526  0.16358  0.21095  1.0000
  C   C3        1.0  0.92817  0.78297  0.84699  1.0000
  C   C4        1.0  0.07183  0.21705  0.15301  1.0000
  C   C5        1.0  0.15082  0.68125  0.83339  1.0000
  C   C6        1.0  0.84919  0.31878  0.16662  1.0000
  C   C7        1.0  0.24393  0.63350  0.76222  1.0000
  C   C8        1.0  0.75607  0.36651  0.23778  1.0000
  C   C9        1.0  0.12031  0.68803  0.70402  1.0000
  C   C10       1.0  0.87969  0.31196  0.29598  1.0000
  C   C11       1.0  0.22783  0.63878  0.62876  1.0000
  C   C12       1.0  0.77216  0.36119  0.37124  1.0000
  C   C13       1.0  0.09466  0.70448  0.56863  1.0000
  C   C14       1.0  0.90532  0.29549  0.43138  1.0000
  C   C15       1.0  0.19417  0.67069  0.49672  1.0000
  C   C16       1.0  0.80582  0.32929  0.50328  1.0000
  C   C17       1.0  0.06833  0.72538  0.43941  1.0000
  C   C18       1.0  0.93167  0.27459  0.56059  1.0000
  C   C19       1.0  0.83887  0.81162  0.45314  1.0000
  C   C20       1.0  0.16113  0.18836  0.54686  1.0000
  C   C21       1.0  0.73983  0.84711  0.52453  1.0000
  C   C22       1.0  0.26016  0.15286  0.47547  1.0000
  C   C23       1.0  0.86646  0.79756  0.58259  1.0000
  C   C24       1.0  0.13353  0.20241  0.41741  1.0000
  C   C25       1.0  0.75962  0.84907  0.65739  1.0000
  C   C26       1.0  0.24038  0.15091  0.34261  1.0000
  C   C27       1.0  0.89793  0.78981  0.71759  1.0000
  C   C28       1.0  0.10207  0.21018  0.28241  1.0000
  C   C29       1.0  0.80958  0.82313  0.92251  1.0000
  C   C30       1.0  0.19044  0.17689  0.07749  1.0000
  C   C31       1.0  0.29129  0.63177  0.89514  1.0000
  C   C32       1.0  0.70873  0.36826  0.10486  1.0000
  O   O1        1.0  0.56556  0.94103  0.66991  1.0000
  O   O2        1.0  0.43446  0.05897  0.33009  1.0000
  O   O3        1.0  0.42027  0.54467  0.61758  1.0000
  O   O4        1.0  0.57972  0.45530  0.38242  1.0000
  O   O5        1.0  0.72041  0.98373  0.94025  1.0000
  O   O6        1.0  0.27960  0.01630  0.05974  1.0000
  O   O7        1.0  0.79249  0.68747  0.96382  1.0000
  O   O8        1.0  0.20753  0.31256  0.03618  1.0000
  O   O9        1.0  0.31110  0.76351  0.93944  1.0000
  O   O10       1.0  0.68891  0.23653  0.06056  1.0000
  O   O11       1.0  0.37998  0.46889  0.89827  1.0000
  O   O12       1.0  0.62002  0.53113  0.10174  1.0000
  O   O13       1.0  0.72959  0.89349  0.10513  1.0000
  O   O14       1.0  0.27041  0.10654  0.89487  1.0000
  O   O15       1.0  0.15429  0.65745  0.09155  1.0000
  O   O16       1.0  0.84571  0.34258  0.90846  1.0000
