data_image0
_chemical_formula_structural       Cu2H20C36I6N6O8
_chemical_formula_sum              "Cu2 H20 C36 I6 N6 O8"
_cell_length_a       8.98264
_cell_length_b       9.48907
_cell_length_c       14.2505
_cell_angle_alpha    90.0001
_cell_angle_beta     89.9998
_cell_angle_gamma    107.495

_space_group_name_H-M_alt    "P 1"
_space_group_IT_number       1

loop_
  _space_group_symop_operation_xyz
  'x, y, z'

loop_
  _atom_site_type_symbol
  _atom_site_label
  _atom_site_symmetry_multiplicity
  _atom_site_fract_x
  _atom_site_fract_y
  _atom_site_fract_z
  _atom_site_occupancy
  Cu  Cu1       1.0  0.18798  0.23902  0.57305  1.0000
  Cu  Cu2       1.0  0.81202  0.76099  0.07305  1.0000
  H   H1        1.0  0.08022  0.98848  0.71142  1.0000
  H   H2        1.0  0.91979  0.01153  0.21141  1.0000
  H   H3        1.0  0.86016  0.75160  0.71404  1.0000
  H   H4        1.0  0.13986  0.24840  0.21403  1.0000
  H   H5        1.0  0.65542  0.70643  0.58618  1.0000
  H   H6        1.0  0.34460  0.29356  0.08617  1.0000
  H   H7        1.0  0.68099  0.89744  0.46311  1.0000
  H   H8        1.0  0.31901  0.10254  0.96309  1.0000
  H   H9        1.0  0.70910  0.08291  0.37351  1.0000
  H   H10       1.0  0.29089  0.91708  0.87350  1.0000
  H   H11       1.0  0.79037  0.28956  0.25698  1.0000
  H   H12       1.0  0.20961  0.71042  0.75698  1.0000
  H   H13       1.0  0.05113  0.47745  0.27421  1.0000
  H   H14       1.0  0.94886  0.52252  0.77422  1.0000
  H   H15       1.0  0.22535  0.45240  0.40810  1.0000
  H   H16       1.0  0.77465  0.54758  0.90811  1.0000
  H   H17       1.0  0.87561  0.32975  0.02892  1.0000
  H   H18       1.0  0.12440  0.67025  0.52891  1.0000
  H   H19       1.0  0.96659  0.47226  0.10319  1.0000
  H   H20       1.0  0.03341  0.52775  0.60318  1.0000
  C   C1        1.0  0.98961  0.96212  0.65774  1.0000
  C   C2        1.0  0.01040  0.03788  0.15773  1.0000
  C   C3        1.0  0.86583  0.83206  0.65881  1.0000
  C   C4        1.0  0.13418  0.16794  0.15880  1.0000
  C   C5        1.0  0.75297  0.80781  0.58837  1.0000
  C   C6        1.0  0.24704  0.19218  0.08836  1.0000
  C   C7        1.0  0.76717  0.91391  0.51892  1.0000
  C   C8        1.0  0.23283  0.08608  0.01891  1.0000
  C   C9        1.0  0.89597  0.04043  0.52063  1.0000
  C   C10       1.0  0.10403  0.95956  0.02062  1.0000
  C   C11       1.0  0.92796  0.15644  0.44894  1.0000
  C   C12       1.0  0.07204  0.84355  0.94893  1.0000
  C   C13       1.0  0.82423  0.16375  0.37737  1.0000
  C   C14       1.0  0.17576  0.83624  0.87736  1.0000
  C   C15       1.0  0.86864  0.27955  0.31329  1.0000
  C   C16       1.0  0.13135  0.72043  0.81328  1.0000
  C   C17       1.0  0.01395  0.38541  0.32307  1.0000
  C   C18       1.0  0.98604  0.61457  0.82307  1.0000
  C   C19       1.0  0.11107  0.37259  0.39669  1.0000
  C   C20       1.0  0.88892  0.62739  0.89670  1.0000
  C   C21       1.0  0.19918  0.35418  0.73978  1.0000
  C   C22       1.0  0.80082  0.64582  0.23977  1.0000
  C   C23       1.0  0.21969  0.40422  0.84147  1.0000
  C   C24       1.0  0.78032  0.59579  0.34147  1.0000
  C   C25       1.0  0.09811  0.36002  0.90681  1.0000
  C   C26       1.0  0.90189  0.63999  0.40681  1.0000
  C   C27       1.0  0.10151  0.43357  0.99419  1.0000
  C   C28       1.0  0.89849  0.56644  0.49419  1.0000
  C   C29       1.0  0.24268  0.54513  0.01651  1.0000
  C   C30       1.0  0.75732  0.45488  0.51651  1.0000
  C   C31       1.0  0.37130  0.58225  0.95645  1.0000
  C   C32       1.0  0.62870  0.41776  0.45645  1.0000
  C   C33       1.0  0.35542  0.51556  0.86769  1.0000
  C   C34       1.0  0.64458  0.48445  0.36769  1.0000
  C   C35       1.0  0.52460  0.69264  0.98734  1.0000
  C   C36       1.0  0.47540  0.30737  0.48734  1.0000
  I   I1        1.0  0.25653  0.66814  0.14146  1.0000
  I   I2        1.0  0.74347  0.33187  0.64146  1.0000
  I   I3        1.0  0.89567  0.18388  0.87358  1.0000
  I   I4        1.0  0.10433  0.81613  0.37357  1.0000
  I   I5        1.0  0.52974  0.60073  0.76683  1.0000
  I   I6        1.0  0.47026  0.39929  0.26683  1.0000
  N   N1        1.0  0.00463  0.06274  0.58966  1.0000
  N   N2        1.0  0.99538  0.93726  0.08965  1.0000
  N   N3        1.0  0.06884  0.26034  0.45766  1.0000
  N   N4        1.0  0.93116  0.73964  0.95767  1.0000
  N   N5        1.0  0.97793  0.39695  0.05453  1.0000
  N   N6        1.0  0.02208  0.60306  0.55453  1.0000
  O   O1        1.0  0.24536  0.24485  0.71328  1.0000
  O   O2        1.0  0.75464  0.75515  0.21328  1.0000
  O   O3        1.0  0.13967  0.42698  0.68566  1.0000
  O   O4        1.0  0.86034  0.57304  0.18566  1.0000
  O   O5        1.0  0.61316  0.62697  0.03023  1.0000
  O   O6        1.0  0.38684  0.37304  0.53023  1.0000
  O   O7        1.0  0.55378  0.82683  0.97176  1.0000
  O   O8        1.0  0.44622  0.17318  0.47175  1.0000
