data_image0
_chemical_formula_structural       Zn2H32C36N16O16
_chemical_formula_sum              "Zn2 H32 C36 N16 O16"
_cell_length_a       7.43907
_cell_length_b       11.4798
_cell_length_c       13.611
_cell_angle_alpha    114.772
_cell_angle_beta     91.152
_cell_angle_gamma    89.9919

_space_group_name_H-M_alt    "P 1"
_space_group_IT_number       1

loop_
  _space_group_symop_operation_xyz
  'x, y, z'

loop_
  _atom_site_type_symbol
  _atom_site_label
  _atom_site_symmetry_multiplicity
  _atom_site_fract_x
  _atom_site_fract_y
  _atom_site_fract_z
  _atom_site_occupancy
  Zn  Zn1       1.0  0.50000  0.00000  0.50000  1.0000
  Zn  Zn2       1.0  0.00000  0.50000  0.50000  1.0000
  H   H1        1.0  0.45231  0.06745  0.73310  1.0000
  H   H2        1.0  0.04701  0.33450  0.26765  1.0000
  H   H3        1.0  0.54768  0.93255  0.26690  1.0000
  H   H4        1.0  0.95299  0.66551  0.73235  1.0000
  H   H5        1.0  0.34831  0.25551  0.89909  1.0000
  H   H6        1.0  0.15124  0.35675  0.10139  1.0000
  H   H7        1.0  0.65169  0.74449  0.10091  1.0000
  H   H8        1.0  0.84876  0.64325  0.89861  1.0000
  H   H9        1.0  0.51115  0.29093  0.56394  1.0000
  H   H10       1.0  0.98896  0.72640  0.43582  1.0000
  H   H11       1.0  0.48885  0.70907  0.43606  1.0000
  H   H12       1.0  0.01104  0.27360  0.56418  1.0000
  H   H13       1.0  0.42362  0.48922  0.72298  1.0000
  H   H14       1.0  0.07667  0.76575  0.27646  1.0000
  H   H15       1.0  0.57639  0.51078  0.27702  1.0000
  H   H16       1.0  0.92333  0.23425  0.72354  1.0000
  H   H17       1.0  0.17704  0.94382  0.16808  1.0000
  H   H18       1.0  0.32325  0.77664  0.83152  1.0000
  H   H19       1.0  0.82296  0.05619  0.83192  1.0000
  H   H20       1.0  0.67675  0.22336  0.16848  1.0000
  H   H21       1.0  0.18634  0.15763  0.16201  1.0000
  H   H22       1.0  0.31360  0.99651  0.83760  1.0000
  H   H23       1.0  0.81367  0.84237  0.83799  1.0000
  H   H24       1.0  0.68640  0.00349  0.16240  1.0000
  H   H25       1.0  0.38790  0.15126  0.39741  1.0000
  H   H26       1.0  0.11235  0.75377  0.60241  1.0000
  H   H27       1.0  0.61210  0.84874  0.60259  1.0000
  H   H28       1.0  0.88765  0.24623  0.39759  1.0000
  H   H29       1.0  0.21277  0.07446  0.40099  1.0000
  H   H30       1.0  0.28752  0.67348  0.59894  1.0000
  H   H31       1.0  0.78723  0.92554  0.59901  1.0000
  H   H32       1.0  0.71248  0.32652  0.40106  1.0000
  C   C1        1.0  0.43937  0.16275  0.73488  1.0000
  C   C2        1.0  0.06014  0.42784  0.26559  1.0000
  C   C3        1.0  0.56063  0.83725  0.26512  1.0000
  C   C4        1.0  0.93986  0.57216  0.73441  1.0000
  C   C5        1.0  0.38519  0.26719  0.82660  1.0000
  C   C6        1.0  0.11446  0.44066  0.17374  1.0000
  C   C7        1.0  0.61481  0.73281  0.17340  1.0000
  C   C8        1.0  0.88554  0.55933  0.82626  1.0000
  C   C9        1.0  0.47461  0.28720  0.63956  1.0000
  C   C10       1.0  0.02538  0.64726  0.36036  1.0000
  C   C11       1.0  0.52539  0.71280  0.36044  1.0000
  C   C12       1.0  0.97462  0.35274  0.63964  1.0000
  C   C13       1.0  0.42550  0.39748  0.72838  1.0000
  C   C14       1.0  0.07462  0.66878  0.27136  1.0000
  C   C15       1.0  0.57450  0.60252  0.27162  1.0000
  C   C16       1.0  0.92538  0.33122  0.72864  1.0000
  C   C17       1.0  0.37638  0.38746  0.82309  1.0000
  C   C18       1.0  0.12355  0.56421  0.17693  1.0000
  C   C19       1.0  0.62361  0.61254  0.17691  1.0000
  C   C20       1.0  0.87645  0.43579  0.82307  1.0000
  C   C21       1.0  0.31228  0.50095  0.91701  1.0000
  C   C22       1.0  0.18782  0.58369  0.08283  1.0000
  C   C23       1.0  0.68772  0.49905  0.08299  1.0000
  C   C24       1.0  0.81218  0.41631  0.91717  1.0000
  C   C25       1.0  0.25019  0.71363  0.99974  1.0000
  C   C26       1.0  0.74981  0.28637  0.00025  1.0000
  C   C27       1.0  0.25031  0.84253  0.99980  1.0000
  C   C28       1.0  0.74969  0.15747  0.00020  1.0000
  C   C29       1.0  0.20974  0.95176  0.09349  1.0000
  C   C30       1.0  0.29067  0.85872  0.90611  1.0000
  C   C31       1.0  0.79026  0.04824  0.90651  1.0000
  C   C32       1.0  0.70933  0.14128  0.09389  1.0000
  C   C33       1.0  0.21360  0.07098  0.08929  1.0000
  C   C34       1.0  0.28658  0.98213  0.91035  1.0000
  C   C35       1.0  0.78640  0.92902  0.91072  1.0000
  C   C36       1.0  0.71342  0.01787  0.08965  1.0000
  N   N1        1.0  0.47908  0.17140  0.64203  1.0000
  N   N2        1.0  0.02065  0.52917  0.35819  1.0000
  N   N3        1.0  0.52092  0.82860  0.35797  1.0000
  N   N4        1.0  0.97935  0.47083  0.64181  1.0000
  N   N5        1.0  0.31783  0.61592  0.91333  1.0000
  N   N6        1.0  0.18242  0.70215  0.08624  1.0000
  N   N7        1.0  0.68218  0.38408  0.08667  1.0000
  N   N8        1.0  0.81758  0.29785  0.91376  1.0000
  N   N9        1.0  0.25001  0.47989  0.00002  1.0000
  N   N10       1.0  0.74999  0.52011  0.99998  1.0000
  N   N11       1.0  0.25004  0.08795  0.99982  1.0000
  N   N12       1.0  0.74996  0.91205  0.00018  1.0000
  N   N13       1.0  0.86867  0.03685  0.41123  1.0000
  N   N14       1.0  0.63138  0.62571  0.58872  1.0000
  N   N15       1.0  0.13133  0.96315  0.58877  1.0000
  N   N16       1.0  0.36862  0.37429  0.41128  1.0000
  O   O1        1.0  0.34572  0.07122  0.40138  1.0000
  O   O2        1.0  0.15456  0.66973  0.59828  1.0000
  O   O3        1.0  0.65428  0.92878  0.59862  1.0000
  O   O4        1.0  0.84544  0.33027  0.40172  1.0000
  O   O5        1.0  0.72160  0.09276  0.45137  1.0000
  O   O6        1.0  0.77837  0.64172  0.54855  1.0000
  O   O7        1.0  0.27840  0.90724  0.54863  1.0000
  O   O8        1.0  0.22162  0.35828  0.45145  1.0000
  O   O9        1.0  0.90243  0.92671  0.40128  1.0000
  O   O10       1.0  0.59753  0.52540  0.59855  1.0000
  O   O11       1.0  0.09757  0.07329  0.59872  1.0000
  O   O12       1.0  0.40246  0.47460  0.40145  1.0000
  O   O13       1.0  0.98080  0.09977  0.38106  1.0000
  O   O14       1.0  0.51929  0.71869  0.61905  1.0000
  O   O15       1.0  0.01920  0.90023  0.61894  1.0000
  O   O16       1.0  0.48071  0.28131  0.38095  1.0000
