data_image0
_chemical_formula_structural       Cd2H32C36N16O16
_chemical_formula_sum              "Cd2 H32 C36 N16 O16"
_cell_length_a       7.50559
_cell_length_b       11.3788
_cell_length_c       13.6721
_cell_angle_alpha    114.934
_cell_angle_beta     91.7571
_cell_angle_gamma    89.9734

_space_group_name_H-M_alt    "P 1"
_space_group_IT_number       1

loop_
  _space_group_symop_operation_xyz
  'x, y, z'

loop_
  _atom_site_type_symbol
  _atom_site_label
  _atom_site_symmetry_multiplicity
  _atom_site_fract_x
  _atom_site_fract_y
  _atom_site_fract_z
  _atom_site_occupancy
  Cd  Cd1       1.0  0.50000  1.00000  0.50000  1.0000
  Cd  Cd2       1.0  0.00000  0.50000  0.50000  1.0000
  H   H1        1.0  0.45709  0.08865  0.74314  1.0000
  H   H2        1.0  0.04469  0.34556  0.25527  1.0000
  H   H3        1.0  0.54291  0.91135  0.25686  1.0000
  H   H4        1.0  0.95531  0.65444  0.74473  1.0000
  H   H5        1.0  0.34311  0.27987  0.90293  1.0000
  H   H6        1.0  0.15757  0.37702  0.09659  1.0000
  H   H7        1.0  0.65689  0.72013  0.09707  1.0000
  H   H8        1.0  0.84243  0.62298  0.90341  1.0000
  H   H9        1.0  0.53070  0.31000  0.57242  1.0000
  H   H10       1.0  0.96952  0.73947  0.42854  1.0000
  H   H11       1.0  0.46930  0.69000  0.42757  1.0000
  H   H12       1.0  0.03047  0.26053  0.57146  1.0000
  H   H13       1.0  0.43575  0.51202  0.72669  1.0000
  H   H14       1.0  0.06328  0.78721  0.27531  1.0000
  H   H15       1.0  0.56425  0.48798  0.27331  1.0000
  H   H16       1.0  0.93671  0.21279  0.72469  1.0000
  H   H17       1.0  0.22208  0.97522  0.17381  1.0000
  H   H18       1.0  0.27655  0.79968  0.82787  1.0000
  H   H19       1.0  0.77792  0.02478  0.82619  1.0000
  H   H20       1.0  0.72345  0.20032  0.17213  1.0000
  H   H21       1.0  0.23695  0.19030  0.16727  1.0000
  H   H22       1.0  0.26378  0.02125  0.83408  1.0000
  H   H23       1.0  0.76305  0.80970  0.83273  1.0000
  H   H24       1.0  0.73622  0.97875  0.16592  1.0000
  H   H25       1.0  0.32817  0.15849  0.39586  1.0000
  H   H26       1.0  0.17124  0.76234  0.60468  1.0000
  H   H27       1.0  0.67184  0.84151  0.60414  1.0000
  H   H28       1.0  0.82876  0.23767  0.39532  1.0000
  H   H29       1.0  0.21238  0.03758  0.37433  1.0000
  H   H30       1.0  0.28730  0.66332  0.62609  1.0000
  H   H31       1.0  0.78762  0.96242  0.62567  1.0000
  H   H32       1.0  0.71270  0.33669  0.37391  1.0000
  C   C1        1.0  0.44543  0.18409  0.74313  1.0000
  C   C2        1.0  0.05585  0.44158  0.25634  1.0000
  C   C3        1.0  0.55457  0.81591  0.25687  1.0000
  C   C4        1.0  0.94415  0.55842  0.74366  1.0000
  C   C5        1.0  0.38521  0.29026  0.83132  1.0000
  C   C6        1.0  0.11551  0.45955  0.16852  1.0000
  C   C7        1.0  0.61479  0.70974  0.16868  1.0000
  C   C8        1.0  0.88450  0.54045  0.83148  1.0000
  C   C9        1.0  0.48889  0.30741  0.64700  1.0000
  C   C10       1.0  0.01162  0.66179  0.35377  1.0000
  C   C11       1.0  0.51111  0.69259  0.35300  1.0000
  C   C12       1.0  0.98837  0.33821  0.64623  1.0000
  C   C13       1.0  0.43526  0.41974  0.73291  1.0000
  C   C14       1.0  0.06460  0.68830  0.26831  1.0000
  C   C15       1.0  0.56474  0.58026  0.26709  1.0000
  C   C16       1.0  0.93539  0.31170  0.73169  1.0000
  C   C17       1.0  0.37906  0.41081  0.82616  1.0000
  C   C18       1.0  0.12099  0.58575  0.17451  1.0000
  C   C19       1.0  0.62094  0.58919  0.17384  1.0000
  C   C20       1.0  0.87901  0.41425  0.82549  1.0000
  C   C21       1.0  0.31164  0.52527  0.91830  1.0000
  C   C22       1.0  0.18765  0.60795  0.08268  1.0000
  C   C23       1.0  0.68836  0.47473  0.08170  1.0000
  C   C24       1.0  0.81235  0.39205  0.91732  1.0000
  C   C25       1.0  0.24904  0.73973  0.00081  1.0000
  C   C26       1.0  0.75096  0.26027  0.99919  1.0000
  C   C27       1.0  0.24905  0.86966  0.00083  1.0000
  C   C28       1.0  0.75095  0.13034  0.99917  1.0000
  C   C29       1.0  0.23456  0.98163  0.09711  1.0000
  C   C30       1.0  0.26422  0.88391  0.90449  1.0000
  C   C31       1.0  0.76544  0.01837  0.90289  1.0000
  C   C32       1.0  0.73578  0.11609  0.09551  1.0000
  C   C33       1.0  0.23985  0.10171  0.09267  1.0000
  C   C34       1.0  0.26017  0.00842  0.90876  1.0000
  C   C35       1.0  0.76015  0.89829  0.90733  1.0000
  C   C36       1.0  0.73983  0.99158  0.09124  1.0000
  N   N1        1.0  0.49300  0.19182  0.65173  1.0000
  N   N2        1.0  0.00820  0.54104  0.34833  1.0000
  N   N3        1.0  0.50700  0.80817  0.34827  1.0000
  N   N4        1.0  0.99180  0.45896  0.65167  1.0000
  N   N5        1.0  0.24980  0.50372  0.00032  1.0000
  N   N6        1.0  0.75020  0.49628  0.99967  1.0000
  N   N7        1.0  0.31410  0.64093  0.91420  1.0000
  N   N8        1.0  0.18434  0.72804  0.08725  1.0000
  N   N9        1.0  0.68590  0.35907  0.08580  1.0000
  N   N10       1.0  0.81566  0.27196  0.91274  1.0000
  N   N11       1.0  0.25032  0.11696  0.00070  1.0000
  N   N12       1.0  0.74968  0.88304  0.99930  1.0000
  N   N13       1.0  0.85974  0.02356  0.40268  1.0000
  N   N14       1.0  0.63935  0.62030  0.59755  1.0000
  N   N15       1.0  0.14026  0.97644  0.59732  1.0000
  N   N16       1.0  0.36065  0.37970  0.40245  1.0000
  O   O1        1.0  0.33844  0.06526  0.37914  1.0000
  O   O2        1.0  0.16109  0.68612  0.62155  1.0000
  O   O3        1.0  0.66157  0.93473  0.62086  1.0000
  O   O4        1.0  0.83891  0.31388  0.37845  1.0000
  O   O5        1.0  0.74073  0.11255  0.43474  1.0000
  O   O6        1.0  0.75888  0.67608  0.56510  1.0000
  O   O7        1.0  0.25927  0.88745  0.56526  1.0000
  O   O8        1.0  0.24112  0.32392  0.43490  1.0000
  O   O9        1.0  0.84985  0.93163  0.43001  1.0000
  O   O10       1.0  0.64844  0.50081  0.57072  1.0000
  O   O11       1.0  0.15015  0.06838  0.56999  1.0000
  O   O12       1.0  0.35156  0.49919  0.42928  1.0000
  O   O13       1.0  0.98035  0.03098  0.34322  1.0000
  O   O14       1.0  0.51917  0.68879  0.65688  1.0000
  O   O15       1.0  0.01965  0.96902  0.65678  1.0000
  O   O16       1.0  0.48083  0.31121  0.34312  1.0000
