data_image0
_chemical_formula_structural       Zn8H40C24N48O4
_chemical_formula_sum              "Zn8 H40 C24 N48 O4"
_cell_length_a       10.1907
_cell_length_b       11.6115
_cell_length_c       15.86
_cell_angle_alpha    105.754
_cell_angle_beta     90
_cell_angle_gamma    90

_space_group_name_H-M_alt    "P 1"
_space_group_IT_number       1

loop_
  _space_group_symop_operation_xyz
  'x, y, z'

loop_
  _atom_site_type_symbol
  _atom_site_label
  _atom_site_symmetry_multiplicity
  _atom_site_fract_x
  _atom_site_fract_y
  _atom_site_fract_z
  _atom_site_occupancy
  Zn  Zn1       1.0  0.28708  0.62749  0.82470  1.0000
  Zn  Zn2       1.0  0.78708  0.37250  0.67530  1.0000
  Zn  Zn3       1.0  0.71292  0.37250  0.17530  1.0000
  Zn  Zn4       1.0  0.21291  0.62750  0.32470  1.0000
  Zn  Zn5       1.0  0.26259  0.85157  0.71495  1.0000
  Zn  Zn6       1.0  0.76259  0.14842  0.78505  1.0000
  Zn  Zn7       1.0  0.73741  0.14843  0.28505  1.0000
  Zn  Zn8       1.0  0.23741  0.85157  0.21495  1.0000
  H   H1        1.0  0.29034  0.88617  0.93922  1.0000
  H   H2        1.0  0.79034  0.11383  0.56078  1.0000
  H   H3        1.0  0.70966  0.11383  0.06078  1.0000
  H   H4        1.0  0.20966  0.88618  0.43922  1.0000
  H   H5        1.0  0.32066  0.94965  0.05392  1.0000
  H   H6        1.0  0.82066  0.05035  0.44608  1.0000
  H   H7        1.0  0.67934  0.05034  0.94608  1.0000
  H   H8        1.0  0.17934  0.94966  0.55392  1.0000
  H   H9        1.0  0.15769  0.92308  0.01507  1.0000
  H   H10       1.0  0.65769  0.07693  0.48493  1.0000
  H   H11       1.0  0.84230  0.07690  0.98494  1.0000
  H   H12       1.0  0.34230  0.92310  0.51507  1.0000
  H   H13       1.0  0.98717  0.34323  0.82528  1.0000
  H   H14       1.0  0.48717  0.65677  0.67472  1.0000
  H   H15       1.0  0.01283  0.65677  0.17472  1.0000
  H   H16       1.0  0.51283  0.34323  0.32528  1.0000
  H   H17       1.0  0.12358  0.43059  0.87551  1.0000
  H   H18       1.0  0.62358  0.56940  0.62448  1.0000
  H   H19       1.0  0.87642  0.56940  0.12449  1.0000
  H   H20       1.0  0.37642  0.43060  0.37551  1.0000
  H   H21       1.0  0.14405  0.32801  0.77164  1.0000
  H   H22       1.0  0.64406  0.67198  0.72835  1.0000
  H   H23       1.0  0.85595  0.67197  0.22836  1.0000
  H   H24       1.0  0.35594  0.32802  0.27165  1.0000
  H   H25       1.0  0.32906  0.09120  0.86135  1.0000
  H   H26       1.0  0.82906  0.90880  0.63865  1.0000
  H   H27       1.0  0.67095  0.90881  0.13865  1.0000
  H   H28       1.0  0.17094  0.09120  0.36135  1.0000
  H   H29       1.0  0.43057  0.21301  0.85258  1.0000
  H   H30       1.0  0.93057  0.78699  0.64742  1.0000
  H   H31       1.0  0.56944  0.78699  0.14741  1.0000
  H   H32       1.0  0.06942  0.21301  0.35259  1.0000
  H   H33       1.0  0.49020  0.10896  0.90693  1.0000
  H   H34       1.0  0.99021  0.89103  0.59308  1.0000
  H   H35       1.0  0.50981  0.89104  0.09306  1.0000
  H   H36       1.0  0.00980  0.10896  0.40694  1.0000
  H   H37       1.0  0.43401  0.78752  0.80135  1.0000
  H   H38       1.0  0.93401  0.21248  0.69865  1.0000
  H   H39       1.0  0.56599  0.21248  0.19864  1.0000
  H   H40       1.0  0.06599  0.78753  0.30135  1.0000
  C   C1        1.0  0.26102  0.76602  0.01829  1.0000
  C   C2        1.0  0.76101  0.23399  0.48171  1.0000
  C   C3        1.0  0.73899  0.23397  0.98171  1.0000
  C   C4        1.0  0.23899  0.76602  0.51829  1.0000
  C   C5        1.0  0.25838  0.88798  0.00552  1.0000
  C   C6        1.0  0.75838  0.11202  0.49448  1.0000
  C   C7        1.0  0.74162  0.11201  0.99449  1.0000
  C   C8        1.0  0.24163  0.88799  0.50551  1.0000
  C   C9        1.0  0.03681  0.48650  0.77071  1.0000
  C   C10       1.0  0.53681  0.51349  0.72928  1.0000
  C   C11       1.0  0.96319  0.51349  0.22928  1.0000
  C   C12       1.0  0.46319  0.48651  0.27072  1.0000
  C   C13       1.0  0.07417  0.39130  0.81267  1.0000
  C   C14       1.0  0.57418  0.60869  0.68732  1.0000
  C   C15       1.0  0.92582  0.60869  0.18733  1.0000
  C   C16       1.0  0.42582  0.39131  0.31268  1.0000
  C   C17       1.0  0.48365  0.04459  0.76729  1.0000
  C   C18       1.0  0.98365  0.95541  0.73271  1.0000
  C   C19       1.0  0.51635  0.95541  0.23270  1.0000
  C   C20       1.0  0.01635  0.04459  0.26730  1.0000
  C   C21       1.0  0.42986  0.11804  0.85173  1.0000
  C   C22       1.0  0.92987  0.88196  0.64827  1.0000
  C   C23       1.0  0.57014  0.88196  0.14826  1.0000
  C   C24       1.0  0.07013  0.11804  0.35174  1.0000
  N   N1        1.0  0.26774  0.66205  0.95544  1.0000
  N   N2        1.0  0.76775  0.33795  0.54456  1.0000
  N   N3        1.0  0.73226  0.33794  0.04455  1.0000
  N   N4        1.0  0.23226  0.66206  0.45544  1.0000
  N   N5        1.0  0.25723  0.57238  0.99560  1.0000
  N   N6        1.0  0.75723  0.42762  0.50440  1.0000
  N   N7        1.0  0.74277  0.42761  0.00440  1.0000
  N   N8        1.0  0.24277  0.57239  0.49560  1.0000
  N   N9        1.0  0.24632  0.61946  0.07945  1.0000
  N   N10       1.0  0.74632  0.38054  0.42055  1.0000
  N   N11       1.0  0.75368  0.38053  0.92055  1.0000
  N   N12       1.0  0.25368  0.61946  0.57945  1.0000
  N   N13       1.0  0.24934  0.74070  0.09562  1.0000
  N   N14       1.0  0.74935  0.25930  0.40437  1.0000
  N   N15       1.0  0.75065  0.25929  0.90437  1.0000
  N   N16       1.0  0.25066  0.74070  0.59562  1.0000
  N   N17       1.0  0.10854  0.58473  0.77499  1.0000
  N   N18       1.0  0.60853  0.41526  0.72500  1.0000
  N   N19       1.0  0.89147  0.41526  0.22501  1.0000
  N   N20       1.0  0.39146  0.58474  0.27499  1.0000
  N   N21       1.0  0.04192  0.65216  0.73159  1.0000
  N   N22       1.0  0.54192  0.34784  0.76841  1.0000
  N   N23       1.0  0.95808  0.34784  0.26841  1.0000
  N   N24       1.0  0.45808  0.65216  0.23159  1.0000
  N   N25       1.0  0.93381  0.59733  0.70107  1.0000
  N   N26       1.0  0.43381  0.40267  0.79893  1.0000
  N   N27       1.0  0.06619  0.40267  0.29893  1.0000
  N   N28       1.0  0.56619  0.59733  0.20107  1.0000
  N   N29       1.0  0.92787  0.49255  0.72415  1.0000
  N   N30       1.0  0.42787  0.50745  0.77584  1.0000
  N   N31       1.0  0.07214  0.50744  0.27585  1.0000
  N   N32       1.0  0.57214  0.49256  0.22416  1.0000
  N   N33       1.0  0.41908  0.95929  0.70724  1.0000
  N   N34       1.0  0.91908  0.04071  0.79277  1.0000
  N   N35       1.0  0.58092  0.04071  0.29276  1.0000
  N   N36       1.0  0.08092  0.95929  0.20724  1.0000
  N   N37       1.0  0.50289  0.91696  0.63870  1.0000
  N   N38       1.0  0.00289  0.08305  0.86131  1.0000
  N   N39       1.0  0.49711  0.08304  0.36130  1.0000
  N   N40       1.0  0.99711  0.91697  0.13869  1.0000
  N   N41       1.0  0.61346  0.97373  0.65605  1.0000
  N   N42       1.0  0.11347  0.02627  0.84396  1.0000
  N   N43       1.0  0.38654  0.02627  0.34395  1.0000
  N   N44       1.0  0.88654  0.97374  0.15605  1.0000
  N   N45       1.0  0.60488  0.05396  0.73629  1.0000
  N   N46       1.0  0.10488  0.94604  0.76372  1.0000
  N   N47       1.0  0.39513  0.94604  0.26370  1.0000
  N   N48       1.0  0.89512  0.05396  0.23629  1.0000
  O   O1        1.0  0.33933  0.77946  0.80240  1.0000
  O   O2        1.0  0.83933  0.22055  0.69761  1.0000
  O   O3        1.0  0.66067  0.22054  0.19760  1.0000
  O   O4        1.0  0.16067  0.77946  0.30240  1.0000
