data_image0
_chemical_formula_structural       Ag4H28C48O28
_chemical_formula_sum              "Ag4 H28 C48 O28"
_cell_length_a       5.33654
_cell_length_b       15.2354
_cell_length_c       16.974
_cell_angle_alpha    65.8401
_cell_angle_beta     82.6648
_cell_angle_gamma    86.3377

_space_group_name_H-M_alt    "P 1"
_space_group_IT_number       1

loop_
  _space_group_symop_operation_xyz
  'x, y, z'

loop_
  _atom_site_type_symbol
  _atom_site_label
  _atom_site_symmetry_multiplicity
  _atom_site_fract_x
  _atom_site_fract_y
  _atom_site_fract_z
  _atom_site_occupancy
  Ag  Ag1       1.0  0.53373  0.69990  0.52057  1.0000
  Ag  Ag2       1.0  0.46627  0.30009  0.47943  1.0000
  Ag  Ag3       1.0  0.92379  0.80615  0.52606  1.0000
  Ag  Ag4       1.0  0.07622  0.19384  0.47392  1.0000
  H   H1        1.0  0.36131  0.69873  0.84265  1.0000
  H   H2        1.0  0.63870  0.30127  0.15735  1.0000
  H   H3        1.0  0.39361  0.85993  0.98355  1.0000
  H   H4        1.0  0.60639  0.14007  0.01644  1.0000
  H   H5        1.0  0.70451  0.99515  0.92376  1.0000
  H   H6        1.0  0.29549  0.00485  0.07624  1.0000
  H   H7        1.0  0.08830  0.07300  0.81828  1.0000
  H   H8        1.0  0.91170  0.92701  0.18172  1.0000
  H   H9        1.0  0.43388  0.06637  0.71034  1.0000
  H   H10       1.0  0.56612  0.93363  0.28966  1.0000
  H   H11       1.0  0.82159  0.96902  0.57428  1.0000
  H   H12       1.0  0.17841  0.03097  0.42572  1.0000
  H   H13       1.0  0.77630  0.02014  0.65234  1.0000
  H   H14       1.0  0.22371  0.97986  0.34765  1.0000
  H   H15       1.0  0.00908  0.25353  0.67786  1.0000
  H   H16       1.0  0.99090  0.74647  0.32214  1.0000
  H   H17       1.0  0.88253  0.28031  0.98549  1.0000
  H   H18       1.0  0.11747  0.71968  0.01451  1.0000
  H   H19       1.0  0.18091  0.41550  0.94192  1.0000
  H   H20       1.0  0.81908  0.58451  0.05808  1.0000
  H   H21       1.0  0.55791  0.50635  0.84525  1.0000
  H   H22       1.0  0.44209  0.49365  0.15474  1.0000
  H   H23       1.0  0.91123  0.52211  0.73243  1.0000
  H   H24       1.0  0.08876  0.47789  0.26757  1.0000
  H   H25       1.0  0.27414  0.47487  0.55905  1.0000
  H   H26       1.0  0.72586  0.52512  0.44095  1.0000
  H   H27       1.0  0.25629  0.49447  0.65641  1.0000
  H   H28       1.0  0.74369  0.50552  0.34360  1.0000
  C   C1        1.0  0.18412  0.76121  0.73910  1.0000
  C   C2        1.0  0.81590  0.23880  0.26090  1.0000
  C   C3        1.0  0.16102  0.84910  0.75950  1.0000
  C   C4        1.0  0.83899  0.15090  0.24050  1.0000
  C   C5        1.0  0.96133  0.85759  0.81737  1.0000
  C   C6        1.0  0.03868  0.14241  0.18263  1.0000
  C   C7        1.0  0.57997  0.78577  0.90727  1.0000
  C   C8        1.0  0.42004  0.21424  0.09273  1.0000
  C   C9        1.0  0.55558  0.86182  0.93672  1.0000
  C   C10       1.0  0.44442  0.13818  0.06328  1.0000
  C   C11       1.0  0.72493  0.93540  0.90352  1.0000
  C   C12       1.0  0.27508  0.06460  0.09648  1.0000
  C   C13       1.0  0.93126  0.93669  0.84094  1.0000
  C   C14       1.0  0.06874  0.06331  0.15907  1.0000
  C   C15       1.0  0.10869  0.01124  0.80100  1.0000
  C   C16       1.0  0.89131  0.98876  0.19900  1.0000
  C   C17       1.0  0.30465  0.00632  0.74131  1.0000
  C   C18       1.0  0.69536  0.99368  0.25869  1.0000
  C   C19       1.0  0.33390  0.92493  0.72083  1.0000
  C   C20       1.0  0.66611  0.07507  0.27917  1.0000
  C   C21       1.0  0.67843  0.99441  0.61270  1.0000
  C   C22       1.0  0.32158  0.00558  0.38730  1.0000
  C   C23       1.0  0.52648  0.07771  0.55240  1.0000
  C   C24       1.0  0.47353  0.92229  0.44760  1.0000
  C   C25       1.0  0.63928  0.25828  0.68920  1.0000
  C   C26       1.0  0.36070  0.74172  0.31081  1.0000
  C   C27       1.0  0.63138  0.32213  0.73685  1.0000
  C   C28       1.0  0.36863  0.67787  0.26315  1.0000
  C   C29       1.0  0.43568  0.31366  0.80345  1.0000
  C   C30       1.0  0.56431  0.68634  0.19655  1.0000
  C   C31       1.0  0.06952  0.22400  0.89475  1.0000
  C   C32       1.0  0.93048  0.77600  0.10526  1.0000
  C   C33       1.0  0.04093  0.29105  0.93529  1.0000
  C   C34       1.0  0.95907  0.70896  0.06471  1.0000
  C   C35       1.0  0.20378  0.36508  0.91065  1.0000
  C   C36       1.0  0.79620  0.63493  0.08935  1.0000
  C   C37       1.0  0.40804  0.37890  0.84382  1.0000
  C   C38       1.0  0.59194  0.62109  0.15618  1.0000
  C   C39       1.0  0.58183  0.45423  0.81598  1.0000
  C   C40       1.0  0.41817  0.54576  0.18402  1.0000
  C   C41       1.0  0.77937  0.46333  0.75225  1.0000
  C   C42       1.0  0.22062  0.53666  0.24774  1.0000
  C   C43       1.0  0.80562  0.39722  0.71305  1.0000
  C   C44       1.0  0.19437  0.60278  0.28696  1.0000
  C   C45       1.0  0.14473  0.48629  0.60973  1.0000
  C   C46       1.0  0.85526  0.51370  0.39027  1.0000
  C   C47       1.0  0.98705  0.57759  0.56860  1.0000
  C   C48       1.0  0.01294  0.42241  0.43140  1.0000
  O   O1        1.0  0.30427  0.68524  0.79417  1.0000
  O   O2        1.0  0.69574  0.31477  0.20583  1.0000
  O   O3        1.0  0.09547  0.75721  0.67774  1.0000
  O   O4        1.0  0.90457  0.24281  0.32224  1.0000
  O   O5        1.0  0.78982  0.78447  0.85103  1.0000
  O   O6        1.0  0.21019  0.21554  0.14897  1.0000
  O   O7        1.0  0.42937  0.71897  0.92646  1.0000
  O   O8        1.0  0.57064  0.28104  0.07354  1.0000
  O   O9        1.0  0.52617  0.91253  0.66575  1.0000
  O   O10       1.0  0.47383  0.08747  0.33425  1.0000
  O   O11       1.0  0.64371  0.15711  0.51517  1.0000
  O   O12       1.0  0.35630  0.84289  0.48483  1.0000
  O   O13       1.0  0.30132  0.06376  0.54587  1.0000
  O   O14       1.0  0.69870  0.93624  0.45413  1.0000
  O   O15       1.0  0.44654  0.23537  0.66984  1.0000
  O   O16       1.0  0.55344  0.76463  0.33016  1.0000
  O   O17       1.0  0.86407  0.22430  0.66743  1.0000
  O   O18       1.0  0.13591  0.77569  0.33258  1.0000
  O   O19       1.0  0.27235  0.23917  0.82901  1.0000
  O   O20       1.0  0.72765  0.76083  0.17099  1.0000
  O   O21       1.0  0.93637  0.15462  0.91079  1.0000
  O   O22       1.0  0.06364  0.84538  0.08921  1.0000
  O   O23       1.0  0.99441  0.40122  0.64989  1.0000
  O   O24       1.0  0.00558  0.59877  0.35011  1.0000
  O   O25       1.0  0.76143  0.56818  0.55748  1.0000
  O   O26       1.0  0.23856  0.43181  0.44252  1.0000
  O   O27       1.0  0.09701  0.65571  0.55091  1.0000
  O   O28       1.0  0.90299  0.34428  0.44910  1.0000
