data_image0
_chemical_formula_structural       Cd2H12C10N12Cl4
_chemical_formula_sum              "Cd2 H12 C10 N12 Cl4"
_cell_length_a       7.22852
_cell_length_b       7.96459
_cell_length_c       9.76376
_cell_angle_alpha    67.711
_cell_angle_beta     84.4268
_cell_angle_gamma    81.4409

_space_group_name_H-M_alt    "P 1"
_space_group_IT_number       1

loop_
  _space_group_symop_operation_xyz
  'x, y, z'

loop_
  _atom_site_type_symbol
  _atom_site_label
  _atom_site_symmetry_multiplicity
  _atom_site_fract_x
  _atom_site_fract_y
  _atom_site_fract_z
  _atom_site_occupancy
  Cd  Cd1       1.0  0.75714  0.47784  0.42998  1.0000
  Cd  Cd2       1.0  0.24286  0.52216  0.57002  1.0000
  H   H1        1.0  0.20080  0.21502  0.38369  1.0000
  H   H2        1.0  0.79920  0.78497  0.61632  1.0000
  H   H3        1.0  0.67311  0.21146  0.23464  1.0000
  H   H4        1.0  0.32689  0.78854  0.76536  1.0000
  H   H5        1.0  0.25095  0.89735  0.16884  1.0000
  H   H6        1.0  0.74905  0.10265  0.83116  1.0000
  H   H7        1.0  0.39099  0.98504  0.26188  1.0000
  H   H8        1.0  0.60901  0.01496  0.73812  1.0000
  H   H9        1.0  0.15684  0.13411  0.88657  1.0000
  H   H10       1.0  0.84316  0.86589  0.11343  1.0000
  H   H11       1.0  0.56512  0.47888  0.84472  1.0000
  H   H12       1.0  0.43488  0.52111  0.15528  1.0000
  C   C1        1.0  0.08688  0.19095  0.33064  1.0000
  C   C2        1.0  0.91312  0.80905  0.66936  1.0000
  C   C3        1.0  0.82212  0.18718  0.25220  1.0000
  C   C4        1.0  0.17788  0.81282  0.74780  1.0000
  C   C5        1.0  0.28057  0.02077  0.18270  1.0000
  C   C6        1.0  0.71943  0.97923  0.81730  1.0000
  C   C7        1.0  0.26440  0.20144  0.90883  1.0000
  C   C8        1.0  0.73559  0.79857  0.09117  1.0000
  C   C9        1.0  0.47206  0.37416  0.89223  1.0000
  C   C10       1.0  0.52794  0.62584  0.10776  1.0000
  N   N1        1.0  0.90534  0.24937  0.34111  1.0000
  N   N2        1.0  0.09466  0.75063  0.65889  1.0000
  N   N3        1.0  0.10965  0.09640  0.23978  1.0000
  N   N4        1.0  0.89035  0.90360  0.76022  1.0000
  N   N5        1.0  0.34061  0.15170  0.04139  1.0000
  N   N6        1.0  0.65939  0.84830  0.95861  1.0000
  N   N7        1.0  0.34496  0.34278  0.81227  1.0000
  N   N8        1.0  0.65504  0.65722  0.18774  1.0000
  N   N9        1.0  0.94187  0.09439  0.18739  1.0000
  N   N10       1.0  0.05813  0.90561  0.81261  1.0000
  N   N11       1.0  0.47251  0.26180  0.03330  1.0000
  N   N12       1.0  0.52749  0.73820  0.96670  1.0000
  Cl  Cl1       1.0  0.52915  0.72507  0.50715  1.0000
  Cl  Cl2       1.0  0.47085  0.27493  0.49285  1.0000
  Cl  Cl3       1.0  0.91699  0.36770  0.67833  1.0000
  Cl  Cl4       1.0  0.08301  0.63230  0.32167  1.0000
