data_image0
_chemical_formula_structural       Cu2H24C18N12O8
_chemical_formula_sum              "Cu2 H24 C18 N12 O8"
_cell_length_a       8.91621
_cell_length_b       8.91609
_cell_length_c       9.45652
_cell_angle_alpha    69.0501
_cell_angle_beta     69.0501
_cell_angle_gamma    80.6607

_space_group_name_H-M_alt    "P 1"
_space_group_IT_number       1

loop_
  _space_group_symop_operation_xyz
  'x, y, z'

loop_
  _atom_site_type_symbol
  _atom_site_label
  _atom_site_symmetry_multiplicity
  _atom_site_fract_x
  _atom_site_fract_y
  _atom_site_fract_z
  _atom_site_occupancy
  Cu  Cu1       1.0  1.00000  0.50000  0.00000  1.0000
  Cu  Cu2       1.0  0.50000  0.00000  0.50000  1.0000
  H   H1        1.0  0.89318  0.69349  0.25849  1.0000
  H   H2        1.0  0.30651  0.10683  0.24151  1.0000
  H   H3        1.0  0.10682  0.30651  0.74151  1.0000
  H   H4        1.0  0.69349  0.89318  0.75849  1.0000
  H   H5        1.0  0.31745  0.72682  0.85899  1.0000
  H   H6        1.0  0.27318  0.68255  0.64101  1.0000
  H   H7        1.0  0.68254  0.27318  0.14101  1.0000
  H   H8        1.0  0.72682  0.31745  0.35899  1.0000
  H   H9        1.0  0.93103  0.92249  0.32551  1.0000
  H   H10       1.0  0.07750  0.06898  0.17450  1.0000
  H   H11       1.0  0.06897  0.07751  0.67450  1.0000
  H   H12       1.0  0.92249  0.93103  0.82550  1.0000
  H   H13       1.0  0.60902  0.83189  0.18416  1.0000
  H   H14       1.0  0.16812  0.39097  0.31584  1.0000
  H   H15       1.0  0.39099  0.16810  0.81583  1.0000
  H   H16       1.0  0.83188  0.60903  0.68416  1.0000
  H   H17       1.0  0.49349  0.79222  0.08328  1.0000
  H   H18       1.0  0.20778  0.50650  0.41672  1.0000
  H   H19       1.0  0.50651  0.20777  0.91672  1.0000
  H   H20       1.0  0.79222  0.49350  0.58328  1.0000
  H   H21       1.0  0.50525  0.65029  0.27144  1.0000
  H   H22       1.0  0.34972  0.49474  0.22856  1.0000
  H   H23       1.0  0.49476  0.34971  0.72855  1.0000
  H   H24       1.0  0.65028  0.50526  0.77144  1.0000
  C   C1        1.0  0.05709  0.94292  0.25000  1.0000
  C   C2        1.0  0.94291  0.05709  0.75000  1.0000
  C   C3        1.0  0.00832  0.72516  0.16457  1.0000
  C   C4        1.0  0.27485  0.99168  0.33543  1.0000
  C   C5        1.0  0.99167  0.27485  0.83543  1.0000
  C   C6        1.0  0.72516  0.00832  0.66457  1.0000
  C   C7        1.0  0.22388  0.74819  0.96207  1.0000
  C   C8        1.0  0.25181  0.77611  0.53792  1.0000
  C   C9        1.0  0.77611  0.25182  0.03793  1.0000
  C   C10       1.0  0.74819  0.22388  0.46208  1.0000
  C   C11       1.0  0.72058  0.66042  0.06790  1.0000
  C   C12       1.0  0.33958  0.27942  0.43211  1.0000
  C   C13       1.0  0.27942  0.33957  0.93210  1.0000
  C   C14       1.0  0.66042  0.72058  0.56788  1.0000
  C   C15       1.0  0.57090  0.73651  0.15746  1.0000
  C   C16       1.0  0.26349  0.42909  0.34254  1.0000
  C   C17       1.0  0.42910  0.26348  0.84253  1.0000
  C   C18       1.0  0.73651  0.57091  0.65746  1.0000
  N   N1        1.0  0.09672  0.84199  0.14955  1.0000
  N   N2        1.0  0.15801  0.90328  0.35045  1.0000
  N   N3        1.0  0.90328  0.15801  0.85046  1.0000
  N   N4        1.0  0.84199  0.09672  0.64955  1.0000
  N   N5        1.0  0.08552  0.66412  0.04613  1.0000
  N   N6        1.0  0.33588  0.91448  0.45387  1.0000
  N   N7        1.0  0.91448  0.33588  0.95387  1.0000
  N   N8        1.0  0.66412  0.08552  0.54613  1.0000
  N   N9        1.0  0.23435  0.85900  0.02114  1.0000
  N   N10       1.0  0.14101  0.76565  0.47886  1.0000
  N   N11       1.0  0.76565  0.14100  0.97887  1.0000
  N   N12       1.0  0.85899  0.23434  0.52114  1.0000
  O   O1        1.0  0.78254  0.53330  0.15194  1.0000
  O   O2        1.0  0.46671  0.21746  0.34807  1.0000
  O   O3        1.0  0.21746  0.46670  0.84807  1.0000
  O   O4        1.0  0.53329  0.78254  0.65193  1.0000
  O   O5        1.0  0.78695  0.72316  0.91951  1.0000
  O   O6        1.0  0.27684  0.21304  0.58050  1.0000
  O   O7        1.0  0.21305  0.27683  0.08049  1.0000
  O   O8        1.0  0.72317  0.78696  0.41949  1.0000
