data_image0
_chemical_formula_structural       Ag4H64C48N16O16
_chemical_formula_sum              "Ag4 H64 C48 N16 O16"
_cell_length_a       11.5324
_cell_length_b       11.7892
_cell_length_c       12.1496
_cell_angle_alpha    69.5375
_cell_angle_beta     72.4128
_cell_angle_gamma    72.2008

_space_group_name_H-M_alt    "P 1"
_space_group_IT_number       1

loop_
  _space_group_symop_operation_xyz
  'x, y, z'

loop_
  _atom_site_type_symbol
  _atom_site_label
  _atom_site_symmetry_multiplicity
  _atom_site_fract_x
  _atom_site_fract_y
  _atom_site_fract_z
  _atom_site_occupancy
  Ag  Ag1       1.0  0.13177  0.83452  0.48213  1.0000
  Ag  Ag2       1.0  0.62817  0.48373  0.83511  1.0000
  Ag  Ag3       1.0  0.86822  0.16548  0.51787  1.0000
  Ag  Ag4       1.0  0.37183  0.51627  0.16490  1.0000
  H   H1        1.0  0.56060  0.70204  0.61354  1.0000
  H   H2        1.0  0.05732  0.61851  0.70108  1.0000
  H   H3        1.0  0.43940  0.29796  0.38646  1.0000
  H   H4        1.0  0.94268  0.38149  0.29892  1.0000
  H   H5        1.0  0.29545  0.62006  0.48331  1.0000
  H   H6        1.0  0.79271  0.47742  0.62882  1.0000
  H   H7        1.0  0.70455  0.37994  0.51669  1.0000
  H   H8        1.0  0.20729  0.52259  0.37119  1.0000
  H   H9        1.0  0.30352  0.42036  0.65254  1.0000
  H   H10       1.0  0.80309  0.64435  0.42994  1.0000
  H   H11       1.0  0.69647  0.57964  0.34747  1.0000
  H   H12       1.0  0.19690  0.35565  0.57006  1.0000
  H   H13       1.0  0.35115  0.91035  0.15987  1.0000
  H   H14       1.0  0.84994  0.15282  0.91573  1.0000
  H   H15       1.0  0.64885  0.08965  0.84012  1.0000
  H   H16       1.0  0.15006  0.84718  0.08428  1.0000
  H   H17       1.0  0.31523  0.07563  0.12651  1.0000
  H   H18       1.0  0.81611  0.12086  0.07581  1.0000
  H   H19       1.0  0.68477  0.92436  0.87349  1.0000
  H   H20       1.0  0.18389  0.87914  0.92419  1.0000
  H   H21       1.0  0.20030  0.99014  0.22089  1.0000
  H   H22       1.0  0.69947  0.21604  0.99326  1.0000
  H   H23       1.0  0.79970  0.00986  0.77911  1.0000
  H   H24       1.0  0.30053  0.78396  0.00674  1.0000
  H   H25       1.0  0.43996  0.37427  0.79467  1.0000
  H   H26       1.0  0.94216  0.78983  0.37812  1.0000
  H   H27       1.0  0.56003  0.62574  0.20534  1.0000
  H   H28       1.0  0.05783  0.21017  0.62188  1.0000
  H   H29       1.0  0.27763  0.07375  0.45028  1.0000
  H   H30       1.0  0.77653  0.45606  0.06904  1.0000
  H   H31       1.0  0.72237  0.92625  0.54971  1.0000
  H   H32       1.0  0.22347  0.54394  0.93096  1.0000
  H   H33       1.0  0.16030  0.08221  0.37878  1.0000
  H   H34       1.0  0.65919  0.38208  0.07840  1.0000
  H   H35       1.0  0.83970  0.91780  0.62121  1.0000
  H   H36       1.0  0.34082  0.61792  0.92160  1.0000
  H   H37       1.0  0.27229  0.17448  0.30103  1.0000
  H   H38       1.0  0.77198  0.30269  0.16781  1.0000
  H   H39       1.0  0.72771  0.82552  0.69897  1.0000
  H   H40       1.0  0.22802  0.69731  0.83219  1.0000
  H   H41       1.0  0.47005  0.08618  0.40146  1.0000
  H   H42       1.0  0.96816  0.40656  0.08100  1.0000
  H   H43       1.0  0.52995  0.91382  0.59855  1.0000
  H   H44       1.0  0.03185  0.59343  0.91900  1.0000
  H   H45       1.0  0.49619  0.16140  0.24380  1.0000
  H   H46       1.0  0.99729  0.24409  0.15365  1.0000
  H   H47       1.0  0.50381  0.83860  0.75621  1.0000
  H   H48       1.0  0.00271  0.75591  0.84635  1.0000
  H   H49       1.0  0.62049  0.05233  0.30704  1.0000
  H   H50       1.0  0.11960  0.31054  0.04689  1.0000
  H   H51       1.0  0.37951  0.94766  0.69296  1.0000
  H   H52       1.0  0.88040  0.68946  0.95311  1.0000
  H   H53       1.0  0.55215  0.87000  0.15127  1.0000
  H   H54       1.0  0.05119  0.14518  0.87444  1.0000
  H   H55       1.0  0.44785  0.13000  0.84873  1.0000
  H   H56       1.0  0.94880  0.85482  0.12556  1.0000
  H   H57       1.0  0.66413  0.93362  0.16976  1.0000
  H   H58       1.0  0.16325  0.16615  0.93489  1.0000
  H   H59       1.0  0.33587  0.06638  0.83024  1.0000
  H   H60       1.0  0.83675  0.83385  0.06511  1.0000
  H   H61       1.0  0.54262  0.03264  0.09529  1.0000
  H   H62       1.0  0.04270  0.08976  0.03245  1.0000
  H   H63       1.0  0.45738  0.96736  0.90471  1.0000
  H   H64       1.0  0.95729  0.91024  0.96755  1.0000
  C   C1        1.0  0.41841  0.79678  0.44208  1.0000
  C   C2        1.0  0.91521  0.44269  0.79935  1.0000
  C   C3        1.0  0.58159  0.20322  0.55792  1.0000
  C   C4        1.0  0.08479  0.55730  0.20065  1.0000
  C   C5        1.0  0.48563  0.97004  0.28919  1.0000
  C   C6        1.0  0.98426  0.28932  0.96918  1.0000
  C   C7        1.0  0.51437  0.02996  0.71081  1.0000
  C   C8        1.0  0.01574  0.71068  0.03081  1.0000
  C   C9        1.0  0.42568  0.67779  0.53691  1.0000
  C   C10       1.0  0.92269  0.53648  0.68147  1.0000
  C   C11       1.0  0.57432  0.32221  0.46310  1.0000
  C   C12       1.0  0.07731  0.46351  0.31853  1.0000
  C   C13       1.0  0.50173  0.64287  0.61919  1.0000
  C   C14       1.0  0.99942  0.62088  0.64407  1.0000
  C   C15       1.0  0.49827  0.35713  0.38081  1.0000
  C   C16       1.0  0.00058  0.37912  0.35593  1.0000
  C   C17       1.0  0.34151  0.97955  0.30878  1.0000
  C   C18       1.0  0.83999  0.30867  0.97935  1.0000
  C   C19       1.0  0.65849  0.02045  0.69122  1.0000
  C   C20       1.0  0.16001  0.69133  0.02065  1.0000
  C   C21       1.0  0.35346  0.59631  0.54786  1.0000
  C   C22       1.0  0.85132  0.54372  0.60297  1.0000
  C   C23       1.0  0.64654  0.40370  0.45215  1.0000
  C   C24       1.0  0.14868  0.45628  0.39702  1.0000
  C   C25       1.0  0.35834  0.48591  0.64021  1.0000
  C   C26       1.0  0.85766  0.63461  0.49294  1.0000
  C   C27       1.0  0.64165  0.51409  0.35979  1.0000
  C   C28       1.0  0.14234  0.36538  0.50707  1.0000
  C   C29       1.0  0.30038  0.98917  0.19648  1.0000
  C   C30       1.0  0.79975  0.19164  0.99150  1.0000
  C   C31       1.0  0.69962  0.01083  0.80351  1.0000
  C   C32       1.0  0.20025  0.80836  0.00850  1.0000
  C   C33       1.0  0.43472  0.45900  0.71965  1.0000
  C   C34       1.0  0.93526  0.71600  0.46300  1.0000
  C   C35       1.0  0.56527  0.54101  0.28035  1.0000
  C   C36       1.0  0.06474  0.28401  0.53700  1.0000
  C   C37       1.0  0.25835  0.08429  0.36375  1.0000
  C   C38       1.0  0.75737  0.36668  0.08006  1.0000
  C   C39       1.0  0.74165  0.91571  0.63625  1.0000
  C   C40       1.0  0.24263  0.63332  0.91994  1.0000
  C   C41       1.0  0.51972  0.07378  0.31261  1.0000
  C   C42       1.0  0.01900  0.31527  0.06852  1.0000
  C   C43       1.0  0.48028  0.92622  0.68739  1.0000
  C   C44       1.0  0.98100  0.68472  0.93148  1.0000
  C   C45       1.0  0.56558  0.94947  0.16892  1.0000
  C   C46       1.0  0.06481  0.16471  0.95080  1.0000
  C   C47       1.0  0.43443  0.05053  0.83108  1.0000
  C   C48       1.0  0.93519  0.83529  0.04920  1.0000
  N   N1        1.0  0.31827  0.86129  0.40059  1.0000
  N   N2        1.0  0.81551  0.40076  0.86362  1.0000
  N   N3        1.0  0.68173  0.13871  0.59941  1.0000
  N   N4        1.0  0.18449  0.59924  0.13638  1.0000
  N   N5        1.0  0.51901  0.85214  0.38623  1.0000
  N   N6        1.0  0.01633  0.38767  0.85331  1.0000
  N   N7        1.0  0.48099  0.14785  0.61377  1.0000
  N   N8        1.0  0.98367  0.61233  0.14669  1.0000
  N   N9        1.0  0.50590  0.53588  0.70883  1.0000
  N   N10       1.0  0.00558  0.70852  0.53709  1.0000
  N   N11       1.0  0.49410  0.46412  0.29118  1.0000
  N   N12       1.0  0.99442  0.29148  0.46292  1.0000
  N   N13       1.0  0.09812  0.95505  0.68662  1.0000
  N   N14       1.0  0.59853  0.68860  0.95678  1.0000
  N   N15       1.0  0.90188  0.04495  0.31338  1.0000
  N   N16       1.0  0.40147  0.31140  0.04322  1.0000
  O   O1        1.0  0.62851  0.80850  0.40638  1.0000
  O   O2        1.0  0.12552  0.40838  0.80967  1.0000
  O   O3        1.0  0.37149  0.19150  0.59362  1.0000
  O   O4        1.0  0.87448  0.59162  0.19033  1.0000
  O   O5        1.0  0.02446  0.96639  0.61976  1.0000
  O   O6        1.0  0.52237  0.62295  0.96696  1.0000
  O   O7        1.0  0.97554  0.03363  0.38023  1.0000
  O   O8        1.0  0.47763  0.37704  0.03304  1.0000
  O   O9        1.0  0.19960  0.87481  0.68196  1.0000
  O   O10       1.0  0.69909  0.68285  0.87818  1.0000
  O   O11       1.0  0.80040  0.12519  0.31804  1.0000
  O   O12       1.0  0.30091  0.31716  0.12181  1.0000
  O   O13       1.0  0.06635  0.02402  0.75480  1.0000
  O   O14       1.0  0.57032  0.75693  0.02504  1.0000
  O   O15       1.0  0.93365  0.97599  0.24520  1.0000
  O   O16       1.0  0.42968  0.24307  0.97497  1.0000
