data_image0
_chemical_formula_structural       Zn4H28C24N12O16
_chemical_formula_sum              "Zn4 H28 C24 N12 O16"
_cell_length_a       9.27775
_cell_length_b       9.48257
_cell_length_c       9.53689
_cell_angle_alpha    90.0001
_cell_angle_beta     98.777
_cell_angle_gamma    90.0005

_space_group_name_H-M_alt    "P 1"
_space_group_IT_number       1

loop_
  _space_group_symop_operation_xyz
  'x, y, z'

loop_
  _atom_site_type_symbol
  _atom_site_label
  _atom_site_symmetry_multiplicity
  _atom_site_fract_x
  _atom_site_fract_y
  _atom_site_fract_z
  _atom_site_occupancy
  Zn  Zn1       1.0  0.65435  0.05320  0.64147  1.0000
  Zn  Zn2       1.0  0.34566  0.55320  0.85853  1.0000
  Zn  Zn3       1.0  0.34565  0.94680  0.35853  1.0000
  Zn  Zn4       1.0  0.65434  0.44680  0.14147  1.0000
  H   H1        1.0  0.22728  0.70520  0.55035  1.0000
  H   H2        1.0  0.77272  0.20521  0.94965  1.0000
  H   H3        1.0  0.77272  0.29479  0.44965  1.0000
  H   H4        1.0  0.22728  0.79479  0.05035  1.0000
  H   H5        1.0  0.57566  0.82022  0.86440  1.0000
  H   H6        1.0  0.42435  0.32022  0.63560  1.0000
  H   H7        1.0  0.42434  0.17979  0.13560  1.0000
  H   H8        1.0  0.57565  0.67979  0.36440  1.0000
  H   H9        1.0  0.12828  0.90829  0.74785  1.0000
  H   H10       1.0  0.87173  0.40828  0.75215  1.0000
  H   H11       1.0  0.87172  0.09171  0.25215  1.0000
  H   H12       1.0  0.12827  0.59172  0.24785  1.0000
  H   H13       1.0  0.07272  0.94579  0.91254  1.0000
  H   H14       1.0  0.92728  0.44579  0.58745  1.0000
  H   H15       1.0  0.92727  0.05421  0.08746  1.0000
  H   H16       1.0  0.07272  0.55421  0.41255  1.0000
  H   H17       1.0  0.31054  0.06855  0.86961  1.0000
  H   H18       1.0  0.68946  0.56855  0.63039  1.0000
  H   H19       1.0  0.68946  0.93144  0.13039  1.0000
  H   H20       1.0  0.31054  0.43145  0.36961  1.0000
  H   H21       1.0  0.20942  0.16386  0.73065  1.0000
  H   H22       1.0  0.79058  0.66385  0.76935  1.0000
  H   H23       1.0  0.79058  0.83614  0.26935  1.0000
  H   H24       1.0  0.20942  0.33614  0.23065  1.0000
  H   H25       1.0  0.01472  0.30782  0.02634  1.0000
  H   H26       1.0  0.98528  0.80781  0.47367  1.0000
  H   H27       1.0  0.98528  0.69219  0.97366  1.0000
  H   H28       1.0  0.01472  0.19219  0.52633  1.0000
  C   C1        1.0  0.32127  0.75912  0.60734  1.0000
  C   C2        1.0  0.67873  0.25912  0.89265  1.0000
  C   C3        1.0  0.67873  0.24088  0.39265  1.0000
  C   C4        1.0  0.32127  0.74088  0.10734  1.0000
  C   C5        1.0  0.49595  0.82065  0.76810  1.0000
  C   C6        1.0  0.50405  0.32065  0.73190  1.0000
  C   C7        1.0  0.50405  0.17935  0.23190  1.0000
  C   C8        1.0  0.49595  0.67935  0.26810  1.0000
  C   C9        1.0  0.94038  0.03409  0.73240  1.0000
  C   C10       1.0  0.05962  0.53410  0.76760  1.0000
  C   C11       1.0  0.05962  0.96591  0.26760  1.0000
  C   C12       1.0  0.94038  0.46590  0.23240  1.0000
  C   C13       1.0  0.08851  0.99289  0.81108  1.0000
  C   C14       1.0  0.91150  0.49288  0.68893  1.0000
  C   C15       1.0  0.91149  0.00712  0.18893  1.0000
  C   C16       1.0  0.08850  0.50711  0.31107  1.0000
  C   C17       1.0  0.20135  0.11134  0.83231  1.0000
  C   C18       1.0  0.79865  0.61134  0.66770  1.0000
  C   C19       1.0  0.79865  0.88866  0.16769  1.0000
  C   C20       1.0  0.20135  0.38866  0.33230  1.0000
  C   C21       1.0  0.17268  0.22413  0.93628  1.0000
  C   C22       1.0  0.82732  0.72413  0.56372  1.0000
  C   C23       1.0  0.82732  0.77587  0.06372  1.0000
  C   C24       1.0  0.17268  0.27587  0.43628  1.0000
  N   N1        1.0  0.49633  0.91025  0.66081  1.0000
  N   N2        1.0  0.50367  0.41025  0.83918  1.0000
  N   N3        1.0  0.50367  0.08975  0.33918  1.0000
  N   N4        1.0  0.49633  0.58975  0.16081  1.0000
  N   N5        1.0  0.38398  0.87104  0.55759  1.0000
  N   N6        1.0  0.61602  0.37104  0.94241  1.0000
  N   N7        1.0  0.61602  0.12896  0.44241  1.0000
  N   N8        1.0  0.38398  0.62896  0.05759  1.0000
  N   N9        1.0  0.38796  0.72412  0.73891  1.0000
  N   N10       1.0  0.61205  0.22412  0.76109  1.0000
  N   N11       1.0  0.61204  0.27588  0.26109  1.0000
  N   N12       1.0  0.38795  0.77588  0.23891  1.0000
  O   O1        1.0  0.92649  0.11801  0.62817  1.0000
  O   O2        1.0  0.07351  0.61801  0.87183  1.0000
  O   O3        1.0  0.07351  0.88199  0.37183  1.0000
  O   O4        1.0  0.92648  0.38199  0.12817  1.0000
  O   O5        1.0  0.82722  0.97699  0.77241  1.0000
  O   O6        1.0  0.17277  0.47700  0.72759  1.0000
  O   O7        1.0  0.17277  0.02301  0.22759  1.0000
  O   O8        1.0  0.82722  0.52300  0.27241  1.0000
  O   O9        1.0  0.03258  0.23876  0.94751  1.0000
  O   O10       1.0  0.96742  0.73876  0.55250  1.0000
  O   O11       1.0  0.96742  0.76124  0.05249  1.0000
  O   O12       1.0  0.03258  0.26124  0.44750  1.0000
  O   O13       1.0  0.27035  0.29691  0.00332  1.0000
  O   O14       1.0  0.72965  0.79691  0.49668  1.0000
  O   O15       1.0  0.72965  0.70309  0.99668  1.0000
  O   O16       1.0  0.27035  0.20309  0.50332  1.0000
