data_image0
_chemical_formula_structural       Cd4H20C28N4O20
_chemical_formula_sum              "Cd4 H20 C28 N4 O20"
_cell_length_a       6.88307
_cell_length_b       7.91576
_cell_length_c       14.9254
_cell_angle_alpha    90
_cell_angle_beta     89.9998
_cell_angle_gamma    102.179

_space_group_name_H-M_alt    "P 1"
_space_group_IT_number       1

loop_
  _space_group_symop_operation_xyz
  'x, y, z'

loop_
  _atom_site_type_symbol
  _atom_site_label
  _atom_site_symmetry_multiplicity
  _atom_site_fract_x
  _atom_site_fract_y
  _atom_site_fract_z
  _atom_site_occupancy
  Cd  Cd1       1.0  0.74651  0.38474  0.78060  1.0000
  Cd  Cd2       1.0  0.75349  0.11526  0.28060  1.0000
  Cd  Cd3       1.0  0.25349  0.61526  0.21940  1.0000
  Cd  Cd4       1.0  0.24651  0.88474  0.71940  1.0000
  H   H1        1.0  0.90216  0.10293  0.85707  1.0000
  H   H2        1.0  0.59784  0.39707  0.35707  1.0000
  H   H3        1.0  0.09784  0.89707  0.14293  1.0000
  H   H4        1.0  0.40216  0.60293  0.64293  1.0000
  H   H5        1.0  0.68677  0.05688  0.81920  1.0000
  H   H6        1.0  0.81323  0.44312  0.31920  1.0000
  H   H7        1.0  0.31323  0.94312  0.18080  1.0000
  H   H8        1.0  0.18677  0.55688  0.68080  1.0000
  H   H9        1.0  0.76343  0.32075  0.98818  1.0000
  H   H10       1.0  0.73657  0.17925  0.48818  1.0000
  H   H11       1.0  0.23657  0.67925  0.01182  1.0000
  H   H12       1.0  0.26343  0.82075  0.51182  1.0000
  H   H13       1.0  0.71833  0.93228  0.98764  1.0000
  H   H14       1.0  0.78167  0.56772  0.48764  1.0000
  H   H15       1.0  0.28167  0.06772  0.01236  1.0000
  H   H16       1.0  0.21833  0.43228  0.51236  1.0000
  H   H17       1.0  0.72275  0.76391  0.84751  1.0000
  H   H18       1.0  0.77725  0.73609  0.34751  1.0000
  H   H19       1.0  0.27726  0.23609  0.15249  1.0000
  H   H20       1.0  0.22275  0.26391  0.65249  1.0000
  C   C1        1.0  0.75525  0.45670  0.99107  1.0000
  C   C2        1.0  0.74476  0.04330  0.49107  1.0000
  C   C3        1.0  0.24476  0.54330  0.00893  1.0000
  C   C4        1.0  0.25524  0.95670  0.50894  1.0000
  C   C5        1.0  0.75950  0.54158  0.07310  1.0000
  C   C6        1.0  0.74051  0.95843  0.57310  1.0000
  C   C7        1.0  0.24051  0.45842  0.92690  1.0000
  C   C8        1.0  0.25949  0.04157  0.42690  1.0000
  C   C9        1.0  0.74458  0.71587  0.07349  1.0000
  C   C10       1.0  0.75542  0.78413  0.57349  1.0000
  C   C11       1.0  0.25542  0.28413  0.92651  1.0000
  C   C12       1.0  0.24458  0.21587  0.42651  1.0000
  C   C13       1.0  0.73030  0.79745  0.99155  1.0000
  C   C14       1.0  0.76970  0.70255  0.49155  1.0000
  C   C15       1.0  0.26970  0.20255  0.00845  1.0000
  C   C16       1.0  0.23030  0.29745  0.50845  1.0000
  C   C17       1.0  0.73178  0.70431  0.91264  1.0000
  C   C18       1.0  0.76822  0.79569  0.41263  1.0000
  C   C19       1.0  0.26822  0.29569  0.08737  1.0000
  C   C20       1.0  0.23178  0.20431  0.58736  1.0000
  C   C21       1.0  0.78849  0.44842  0.15800  1.0000
  C   C22       1.0  0.71152  0.05158  0.65800  1.0000
  C   C23       1.0  0.21151  0.55158  0.84200  1.0000
  C   C24       1.0  0.28848  0.94842  0.34200  1.0000
  C   C25       1.0  0.73427  0.81482  0.15882  1.0000
  C   C26       1.0  0.76573  0.68518  0.65882  1.0000
  C   C27       1.0  0.26573  0.18518  0.84118  1.0000
  C   C28       1.0  0.23427  0.31482  0.34118  1.0000
  N   N1        1.0  0.74371  0.53666  0.91230  1.0000
  N   N2        1.0  0.75629  0.96335  0.41230  1.0000
  N   N3        1.0  0.25629  0.46334  0.08770  1.0000
  N   N4        1.0  0.24371  0.03665  0.58770  1.0000
  O   O1        1.0  0.71227  0.28827  0.16120  1.0000
  O   O2        1.0  0.78773  0.21173  0.66120  1.0000
  O   O3        1.0  0.28773  0.71173  0.83880  1.0000
  O   O4        1.0  0.21227  0.78827  0.33880  1.0000
  O   O5        1.0  0.88850  0.53972  0.21991  1.0000
  O   O6        1.0  0.61150  0.96028  0.71991  1.0000
  O   O7        1.0  0.11150  0.46028  0.78009  1.0000
  O   O8        1.0  0.38850  0.03972  0.28009  1.0000
  O   O9        1.0  0.87311  0.94819  0.17171  1.0000
  O   O10       1.0  0.62689  0.55181  0.67171  1.0000
  O   O11       1.0  0.12690  0.05181  0.82829  1.0000
  O   O12       1.0  0.37311  0.44819  0.32829  1.0000
  O   O13       1.0  0.58856  0.77045  0.21087  1.0000
  O   O14       1.0  0.91143  0.72955  0.71087  1.0000
  O   O15       1.0  0.41144  0.22955  0.78913  1.0000
  O   O16       1.0  0.08857  0.27045  0.28913  1.0000
  O   O17       1.0  0.76897  0.13131  0.86550  1.0000
  O   O18       1.0  0.73103  0.36869  0.36550  1.0000
  O   O19       1.0  0.23103  0.86869  0.13450  1.0000
  O   O20       1.0  0.26897  0.63131  0.63450  1.0000
