data_image0
_chemical_formula_structural       Zn2H12C24N8O4
_chemical_formula_sum              "Zn2 H12 C24 N8 O4"
_cell_length_a       4.81954
_cell_length_b       10.5204
_cell_length_c       10.7323
_cell_angle_alpha    90.0001
_cell_angle_beta     89.9999
_cell_angle_gamma    98.7065

_space_group_name_H-M_alt    "P 1"
_space_group_IT_number       1

loop_
  _space_group_symop_operation_xyz
  'x, y, z'

loop_
  _atom_site_type_symbol
  _atom_site_label
  _atom_site_symmetry_multiplicity
  _atom_site_fract_x
  _atom_site_fract_y
  _atom_site_fract_z
  _atom_site_occupancy
  Zn  Zn1       1.0  0.77406  0.20147  0.64412  1.0000
  Zn  Zn2       1.0  0.77406  0.70147  0.35588  1.0000
  H   H1        1.0  0.17825  0.26106  0.45020  1.0000
  H   H2        1.0  0.17825  0.76106  0.54980  1.0000
  H   H3        1.0  0.37328  0.17403  0.26378  1.0000
  H   H4        1.0  0.37329  0.67403  0.73622  1.0000
  H   H5        1.0  0.70261  0.48832  0.21935  1.0000
  H   H6        1.0  0.70262  0.98832  0.78065  1.0000
  H   H7        1.0  0.77477  0.49546  0.99293  1.0000
  H   H8        1.0  0.77477  0.99546  0.00707  1.0000
  H   H9        1.0  0.97417  0.40953  0.80457  1.0000
  H   H10       1.0  0.97416  0.90953  0.19543  1.0000
  H   H11       1.0  0.41302  0.16539  0.03048  1.0000
  H   H12       1.0  0.41302  0.66539  0.96952  1.0000
  C   C1        1.0  0.92559  0.38160  0.34732  1.0000
  C   C2        1.0  0.92560  0.88160  0.65268  1.0000
  C   C3        1.0  0.11646  0.29142  0.35842  1.0000
  C   C4        1.0  0.11646  0.79142  0.64157  1.0000
  C   C5        1.0  0.79781  0.43109  0.45694  1.0000
  C   C6        1.0  0.79782  0.93109  0.54306  1.0000
  C   C7        1.0  0.22778  0.24320  0.25349  1.0000
  C   C8        1.0  0.22778  0.74320  0.74651  1.0000
  C   C9        1.0  0.85591  0.42279  0.23007  1.0000
  C   C10       1.0  0.85591  0.92279  0.76993  1.0000
  C   C11       1.0  0.15965  0.28400  0.13263  1.0000
  C   C12       1.0  0.15965  0.78400  0.86737  1.0000
  C   C13       1.0  0.91147  0.42219  0.00090  1.0000
  C   C14       1.0  0.91147  0.92219  0.99910  1.0000
  C   C15       1.0  0.97347  0.37768  0.12116  1.0000
  C   C16       1.0  0.97347  0.87768  0.87884  1.0000
  C   C17       1.0  0.31233  0.22386  0.79283  1.0000
  C   C18       1.0  0.31233  0.72386  0.20717  1.0000
  C   C19       1.0  0.19840  0.27782  0.90671  1.0000
  C   C20       1.0  0.19840  0.77782  0.09329  1.0000
  C   C21       1.0  0.02115  0.37353  0.89606  1.0000
  C   C22       1.0  0.02115  0.87353  0.10394  1.0000
  C   C23       1.0  0.27108  0.23642  0.02316  1.0000
  C   C24       1.0  0.27109  0.73642  0.97684  1.0000
  N   N1        1.0  0.71143  0.54708  0.46395  1.0000
  N   N2        1.0  0.71143  0.04708  0.53605  1.0000
  N   N3        1.0  0.73675  0.37090  0.56650  1.0000
  N   N4        1.0  0.73675  0.87090  0.43350  1.0000
  N   N5        1.0  0.61206  0.45171  0.63973  1.0000
  N   N6        1.0  0.61207  0.95172  0.36027  1.0000
  N   N7        1.0  0.59697  0.55650  0.57821  1.0000
  N   N8        1.0  0.59698  0.05650  0.42179  1.0000
  O   O1        1.0  0.55626  0.19020  0.80108  1.0000
  O   O2        1.0  0.55625  0.69020  0.19892  1.0000
  O   O3        1.0  0.17659  0.21398  0.69025  1.0000
  O   O4        1.0  0.17659  0.71398  0.30975  1.0000
