data_image0
_chemical_formula_structural       Zn2H56C36S4N8O20F8
_chemical_formula_sum              "Zn2 H56 C36 S4 N8 O20 F8"
_cell_length_a       8.89665
_cell_length_b       9.65132
_cell_length_c       16.2216
_cell_angle_alpha    90
_cell_angle_beta     105.161
_cell_angle_gamma    90

_space_group_name_H-M_alt    "P 1"
_space_group_IT_number       1

loop_
  _space_group_symop_operation_xyz
  'x, y, z'

loop_
  _atom_site_type_symbol
  _atom_site_label
  _atom_site_symmetry_multiplicity
  _atom_site_fract_x
  _atom_site_fract_y
  _atom_site_fract_z
  _atom_site_occupancy
  Zn  Zn1       1.0  0.50000  0.00000  1.00000  1.0000
  Zn  Zn2       1.0  0.00000  0.50000  0.50000  1.0000
  H   H1        1.0  0.20721  0.94442  0.05796  1.0000
  H   H2        1.0  0.29279  0.44442  0.44204  1.0000
  H   H3        1.0  0.79279  0.05558  0.94204  1.0000
  H   H4        1.0  0.70721  0.55558  0.55796  1.0000
  H   H5        1.0  0.06486  0.92761  0.22646  1.0000
  H   H6        1.0  0.43514  0.42760  0.27354  1.0000
  H   H7        1.0  0.93514  0.07240  0.77354  1.0000
  H   H8        1.0  0.56486  0.57240  0.72646  1.0000
  H   H9        1.0  0.01421  0.93175  0.11245  1.0000
  H   H10       1.0  0.48579  0.43175  0.38755  1.0000
  H   H11       1.0  0.98579  0.06825  0.88755  1.0000
  H   H12       1.0  0.51421  0.56825  0.61245  1.0000
  H   H13       1.0  0.98406  0.08082  0.17143  1.0000
  H   H14       1.0  0.51593  0.58082  0.32857  1.0000
  H   H15       1.0  0.01593  0.91918  0.82857  1.0000
  H   H16       1.0  0.48406  0.41918  0.67143  1.0000
  H   H17       1.0  0.30759  0.07617  0.30357  1.0000
  H   H18       1.0  0.19240  0.57617  0.19643  1.0000
  H   H19       1.0  0.69240  0.92383  0.69643  1.0000
  H   H20       1.0  0.80760  0.42383  0.80357  1.0000
  H   H21       1.0  0.22806  0.22497  0.24269  1.0000
  H   H22       1.0  0.27194  0.72497  0.25731  1.0000
  H   H23       1.0  0.77194  0.77503  0.75731  1.0000
  H   H24       1.0  0.72806  0.27503  0.74269  1.0000
  H   H25       1.0  0.41193  0.15623  0.23623  1.0000
  H   H26       1.0  0.08807  0.65623  0.26377  1.0000
  H   H27       1.0  0.58807  0.84377  0.76377  1.0000
  H   H28       1.0  0.91193  0.34377  0.73623  1.0000
  H   H29       1.0  0.63819  0.18886  0.15681  1.0000
  H   H30       1.0  0.86180  0.68886  0.34319  1.0000
  H   H31       1.0  0.36180  0.81114  0.84319  1.0000
  H   H32       1.0  0.13819  0.31114  0.65681  1.0000
  H   H33       1.0  0.96942  0.34478  0.25437  1.0000
  H   H34       1.0  0.53058  0.84478  0.24563  1.0000
  H   H35       1.0  0.03058  0.65522  0.74563  1.0000
  H   H36       1.0  0.46942  0.15522  0.75437  1.0000
  H   H37       1.0  0.77158  0.32320  0.25473  1.0000
  H   H38       1.0  0.72842  0.82320  0.24527  1.0000
  H   H39       1.0  0.22842  0.67680  0.74527  1.0000
  H   H40       1.0  0.27158  0.17680  0.75473  1.0000
  H   H41       1.0  0.83437  0.48063  0.21445  1.0000
  H   H42       1.0  0.66564  0.98063  0.28555  1.0000
  H   H43       1.0  0.16563  0.51937  0.78555  1.0000
  H   H44       1.0  0.33436  0.01937  0.71445  1.0000
  H   H45       1.0  0.92133  0.46325  0.07918  1.0000
  H   H46       1.0  0.57867  0.96325  0.42082  1.0000
  H   H47       1.0  0.07867  0.53675  0.92082  1.0000
  H   H48       1.0  0.42133  0.03675  0.57918  1.0000
  H   H49       1.0  0.86181  0.31222  0.01396  1.0000
  H   H50       1.0  0.63818  0.81222  0.48604  1.0000
  H   H51       1.0  0.13818  0.68778  0.98604  1.0000
  H   H52       1.0  0.36182  0.18778  0.51396  1.0000
  H   H53       1.0  0.02968  0.30606  0.10155  1.0000
  H   H54       1.0  0.47032  0.80606  0.39845  1.0000
  H   H55       1.0  0.97032  0.69394  0.89845  1.0000
  H   H56       1.0  0.52968  0.19394  0.60155  1.0000
  C   C1        1.0  0.61309  0.60723  0.03029  1.0000
  C   C2        1.0  0.88691  0.10723  0.46970  1.0000
  C   C3        1.0  0.38691  0.39277  0.96971  1.0000
  C   C4        1.0  0.11309  0.89276  0.53030  1.0000
  C   C5        1.0  0.60146  0.53936  0.95273  1.0000
  C   C6        1.0  0.89854  0.03936  0.54728  1.0000
  C   C7        1.0  0.39854  0.46064  0.04727  1.0000
  C   C8        1.0  0.10146  0.96064  0.45273  1.0000
  C   C9        1.0  0.50837  0.56487  0.07618  1.0000
  C   C10       1.0  0.99164  0.06487  0.42382  1.0000
  C   C11       1.0  0.49163  0.43513  0.92382  1.0000
  C   C12       1.0  0.00837  0.93513  0.57618  1.0000
  C   C13       1.0  0.28045  0.00954  0.10842  1.0000
  C   C14       1.0  0.21955  0.50954  0.39158  1.0000
  C   C15       1.0  0.71955  0.99046  0.89158  1.0000
  C   C16       1.0  0.78045  0.49046  0.60842  1.0000
  C   C17       1.0  0.06144  0.99260  0.17044  1.0000
  C   C18       1.0  0.43856  0.49260  0.32956  1.0000
  C   C19       1.0  0.93856  0.00740  0.82956  1.0000
  C   C20       1.0  0.56144  0.50739  0.67044  1.0000
  C   C21       1.0  0.29614  0.12979  0.24256  1.0000
  C   C22       1.0  0.20386  0.62979  0.25744  1.0000
  C   C23       1.0  0.70385  0.87021  0.75744  1.0000
  C   C24       1.0  0.79614  0.37021  0.74256  1.0000
  C   C25       1.0  0.70143  0.21447  0.10881  1.0000
  C   C26       1.0  0.79858  0.71446  0.39119  1.0000
  C   C27       1.0  0.29857  0.78553  0.89119  1.0000
  C   C28       1.0  0.20142  0.28553  0.60881  1.0000
  C   C29       1.0  0.84875  0.36786  0.21924  1.0000
  C   C30       1.0  0.65125  0.86786  0.28076  1.0000
  C   C31       1.0  0.15125  0.63214  0.78076  1.0000
  C   C32       1.0  0.34875  0.13214  0.71924  1.0000
  C   C33       1.0  0.91218  0.34989  0.07889  1.0000
  C   C34       1.0  0.58782  0.84989  0.42111  1.0000
  C   C35       1.0  0.08782  0.65011  0.92111  1.0000
  C   C36       1.0  0.41218  0.15011  0.57889  1.0000
  S   S1        1.0  0.75428  0.74207  0.07406  1.0000
  S   S2        1.0  0.74572  0.24207  0.42594  1.0000
  S   S3        1.0  0.24572  0.25793  0.92594  1.0000
  S   S4        1.0  0.25428  0.75793  0.57407  1.0000
  N   N1        1.0  0.21689  0.04136  0.17195  1.0000
  N   N2        1.0  0.28311  0.54136  0.32805  1.0000
  N   N3        1.0  0.78311  0.95864  0.82805  1.0000
  N   N4        1.0  0.71688  0.45864  0.67195  1.0000
  N   N5        1.0  0.81475  0.30762  0.13393  1.0000
  N   N6        1.0  0.68525  0.80762  0.36607  1.0000
  N   N7        1.0  0.18525  0.69238  0.86607  1.0000
  N   N8        1.0  0.31475  0.19238  0.63393  1.0000
  O   O1        1.0  0.65747  0.86231  0.08351  1.0000
  O   O2        1.0  0.84253  0.36231  0.41649  1.0000
  O   O3        1.0  0.34253  0.13769  0.91649  1.0000
  O   O4        1.0  0.15747  0.63769  0.58351  1.0000
  O   O5        1.0  0.84017  0.68804  0.15700  1.0000
  O   O6        1.0  0.65983  0.18804  0.34300  1.0000
  O   O7        1.0  0.15983  0.31196  0.84300  1.0000
  O   O8        1.0  0.34017  0.81196  0.65700  1.0000
  O   O9        1.0  0.84656  0.76278  0.01337  1.0000
  O   O10       1.0  0.65344  0.26277  0.48663  1.0000
  O   O11       1.0  0.15344  0.23723  0.98663  1.0000
  O   O12       1.0  0.34656  0.73723  0.51337  1.0000
  O   O13       1.0  0.41407  0.04746  0.10526  1.0000
  O   O14       1.0  0.08593  0.54746  0.39474  1.0000
  O   O15       1.0  0.58593  0.95254  0.89474  1.0000
  O   O16       1.0  0.91407  0.45254  0.60526  1.0000
  O   O17       1.0  0.66668  0.15868  0.03597  1.0000
  O   O18       1.0  0.83332  0.65868  0.46402  1.0000
  O   O19       1.0  0.33332  0.84132  0.96402  1.0000
  O   O20       1.0  0.16668  0.34132  0.53597  1.0000
  F   F1        1.0  0.69649  0.57039  0.90230  1.0000
  F   F2        1.0  0.80351  0.07039  0.59770  1.0000
  F   F3        1.0  0.30351  0.42961  0.09770  1.0000
  F   F4        1.0  0.19649  0.92961  0.40230  1.0000
  F   F5        1.0  0.50993  0.62550  0.15166  1.0000
  F   F6        1.0  0.99007  0.12550  0.34834  1.0000
  F   F7        1.0  0.49007  0.37450  0.84834  1.0000
  F   F8        1.0  0.00993  0.87450  0.65166  1.0000
