data_image0
_chemical_formula_structural       ZnH28C18S2N4Cl4O10
_chemical_formula_sum              "Zn1 H28 C18 S2 N4 Cl4 O10"
_cell_length_a       8.30174
_cell_length_b       9.02555
_cell_length_c       9.85563
_cell_angle_alpha    90.8126
_cell_angle_beta     92.2912
_cell_angle_gamma    106.749

_space_group_name_H-M_alt    "P 1"
_space_group_IT_number       1

loop_
  _space_group_symop_operation_xyz
  'x, y, z'

loop_
  _atom_site_type_symbol
  _atom_site_label
  _atom_site_symmetry_multiplicity
  _atom_site_fract_x
  _atom_site_fract_y
  _atom_site_fract_z
  _atom_site_occupancy
  Zn  Zn1       1.0  0.50000  0.50000  0.50000  1.0000
  H   H1        1.0  0.40657  0.78799  0.42881  1.0000
  H   H2        1.0  0.59343  0.21201  0.57119  1.0000
  H   H3        1.0  0.03169  0.78973  0.67749  1.0000
  H   H4        1.0  0.96831  0.21027  0.32251  1.0000
  H   H5        1.0  0.92173  0.69109  0.52970  1.0000
  H   H6        1.0  0.07827  0.30892  0.47030  1.0000
  H   H7        1.0  0.05381  0.60516  0.62800  1.0000
  H   H8        1.0  0.94619  0.39484  0.37200  1.0000
  H   H9        1.0  0.31095  0.98242  0.40410  1.0000
  H   H10       1.0  0.68905  0.01758  0.59590  1.0000
  H   H11       1.0  0.08840  0.94502  0.40210  1.0000
  H   H12       1.0  0.91159  0.05498  0.59790  1.0000
  H   H13       1.0  0.21326  0.02477  0.55186  1.0000
  H   H14       1.0  0.78675  0.97524  0.44814  1.0000
  H   H15       1.0  0.79655  0.59305  0.29817  1.0000
  H   H16       1.0  0.20345  0.40695  0.70183  1.0000
  H   H17       1.0  0.68728  0.91021  0.05404  1.0000
  H   H18       1.0  0.31272  0.08978  0.94596  1.0000
  H   H19       1.0  0.79324  0.02243  0.19802  1.0000
  H   H20       1.0  0.20676  0.97757  0.80198  1.0000
  H   H21       1.0  0.59052  0.88736  0.21507  1.0000
  H   H22       1.0  0.40948  0.11264  0.78493  1.0000
  H   H23       1.0  0.91953  0.78819  0.01893  1.0000
  H   H24       1.0  0.08046  0.21181  0.98107  1.0000
  H   H25       1.0  0.04052  0.90500  0.15584  1.0000
  H   H26       1.0  0.95948  0.09501  0.84416  1.0000
  H   H27       1.0  0.99049  0.69836  0.16091  1.0000
  H   H28       1.0  0.00951  0.30164  0.83908  1.0000
  C   C1        1.0  0.55125  0.61305  0.89728  1.0000
  C   C2        1.0  0.44875  0.38695  0.10272  1.0000
  C   C3        1.0  0.64020  0.50487  0.92561  1.0000
  C   C4        1.0  0.35980  0.49512  0.07439  1.0000
  C   C5        1.0  0.41018  0.60739  0.97389  1.0000
  C   C6        1.0  0.58982  0.39261  0.02611  1.0000
  C   C7        1.0  0.30156  0.71920  0.48668  1.0000
  C   C8        1.0  0.69844  0.28080  0.51333  1.0000
  C   C9        1.0  0.03987  0.71457  0.59105  1.0000
  C   C10       1.0  0.96013  0.28543  0.40895  1.0000
  C   C11       1.0  0.19994  0.94346  0.46522  1.0000
  C   C12       1.0  0.80006  0.05654  0.53478  1.0000
  C   C13       1.0  0.72493  0.67790  0.28435  1.0000
  C   C14       1.0  0.27507  0.32209  0.71565  1.0000
  C   C15       1.0  0.70948  0.90869  0.16446  1.0000
  C   C16       1.0  0.29052  0.09131  0.83554  1.0000
  C   C17       1.0  0.94426  0.79521  0.12939  1.0000
  C   C18       1.0  0.05573  0.20479  0.87061  1.0000
  S   S1        1.0  0.63028  0.75707  0.76694  1.0000
  S   S2        1.0  0.36972  0.24293  0.23306  1.0000
  N   N1        1.0  0.18390  0.78821  0.51204  1.0000
  N   N2        1.0  0.81610  0.21180  0.48797  1.0000
  N   N3        1.0  0.78923  0.78862  0.19703  1.0000
  N   N4        1.0  0.21077  0.21138  0.80297  1.0000
  Cl  Cl1       1.0  0.81676  0.50683  0.83978  1.0000
  Cl  Cl2       1.0  0.18324  0.49317  0.16023  1.0000
  Cl  Cl3       1.0  0.29329  0.73522  0.95261  1.0000
  Cl  Cl4       1.0  0.70671  0.26478  0.04739  1.0000
  O   O1        1.0  0.64772  0.66441  0.64650  1.0000
  O   O2        1.0  0.35227  0.33558  0.35350  1.0000
  O   O3        1.0  0.50989  0.84392  0.74321  1.0000
  O   O4        1.0  0.49011  0.15608  0.25679  1.0000
  O   O5        1.0  0.79397  0.84836  0.82533  1.0000
  O   O6        1.0  0.20603  0.15164  0.17467  1.0000
  O   O7        1.0  0.29549  0.58447  0.52314  1.0000
  O   O8        1.0  0.70451  0.41553  0.47686  1.0000
  O   O9        1.0  0.59351  0.66693  0.34773  1.0000
  O   O10       1.0  0.40649  0.33307  0.65227  1.0000
