data_image0
_chemical_formula_structural       Zn2H36C24S4N4O16
_chemical_formula_sum              "Zn2 H36 C24 S4 N4 O16"
_cell_length_a       9.72371
_cell_length_b       9.83862
_cell_length_c       10.1399
_cell_angle_alpha    69.4136
_cell_angle_beta     69.063
_cell_angle_gamma    86.975

_space_group_name_H-M_alt    "P 1"
_space_group_IT_number       1

loop_
  _space_group_symop_operation_xyz
  'x, y, z'

loop_
  _atom_site_type_symbol
  _atom_site_label
  _atom_site_symmetry_multiplicity
  _atom_site_fract_x
  _atom_site_fract_y
  _atom_site_fract_z
  _atom_site_occupancy
  Zn  Zn1       1.0  0.50000  0.50000  0.50000  1.0000
  Zn  Zn2       1.0  0.50000  0.50000  0.00000  1.0000
  H   H1        1.0  0.85349  0.43818  0.27427  1.0000
  H   H2        1.0  0.14651  0.56182  0.72572  1.0000
  H   H3        1.0  0.90963  0.67723  0.80954  1.0000
  H   H4        1.0  0.09037  0.32277  0.19046  1.0000
  H   H5        1.0  0.42801  0.74634  0.23779  1.0000
  H   H6        1.0  0.57199  0.25365  0.76221  1.0000
  H   H7        1.0  0.34745  0.93528  0.10475  1.0000
  H   H8        1.0  0.65255  0.06472  0.89525  1.0000
  H   H9        1.0  0.28767  0.07066  0.18889  1.0000
  H   H10       1.0  0.71233  0.92934  0.81111  1.0000
  H   H11       1.0  0.15529  0.95266  0.18846  1.0000
  H   H12       1.0  0.84471  0.04734  0.81154  1.0000
  H   H13       1.0  0.15517  0.98277  0.46774  1.0000
  H   H14       1.0  0.84483  0.01723  0.53226  1.0000
  H   H15       1.0  0.18592  0.80288  0.57491  1.0000
  H   H16       1.0  0.81408  0.19712  0.42509  1.0000
  H   H17       1.0  0.04356  0.82741  0.49742  1.0000
  H   H18       1.0  0.95644  0.17259  0.50258  1.0000
  H   H19       1.0  0.83760  0.40522  0.77222  1.0000
  H   H20       1.0  0.16240  0.59478  0.22778  1.0000
  H   H21       1.0  0.92586  0.70774  0.31863  1.0000
  H   H22       1.0  0.07414  0.29226  0.68137  1.0000
  H   H23       1.0  0.49092  0.20012  0.22966  1.0000
  H   H24       1.0  0.50907  0.79988  0.77034  1.0000
  H   H25       1.0  0.87084  0.04054  0.04538  1.0000
  H   H26       1.0  0.12916  0.95946  0.95462  1.0000
  H   H27       1.0  0.91876  0.12567  0.15389  1.0000
  H   H28       1.0  0.08124  0.87433  0.84611  1.0000
  H   H29       1.0  0.87765  0.23602  0.99324  1.0000
  H   H30       1.0  0.12235  0.76398  0.00676  1.0000
  H   H31       1.0  0.51879  0.98889  0.36898  1.0000
  H   H32       1.0  0.48121  0.01111  0.63102  1.0000
  H   H33       1.0  0.69398  0.97292  0.39071  1.0000
  H   H34       1.0  0.30602  0.02707  0.60929  1.0000
  H   H35       1.0  0.65661  0.89187  0.27438  1.0000
  H   H36       1.0  0.34339  0.10813  0.72562  1.0000
  C   C1        1.0  0.87081  0.56449  0.04658  1.0000
  C   C2        1.0  0.12919  0.43551  0.95342  1.0000
  C   C3        1.0  0.91890  0.46432  0.15479  1.0000
  C   C4        1.0  0.08110  0.53568  0.84521  1.0000
  C   C5        1.0  0.95051  0.60050  0.89209  1.0000
  C   C6        1.0  0.04949  0.39950  0.10791  1.0000
  C   C7        1.0  0.35190  0.74709  0.34808  1.0000
  C   C8        1.0  0.64810  0.25291  0.65192  1.0000
  C   C9        1.0  0.26361  0.95925  0.19806  1.0000
  C   C10       1.0  0.73639  0.04075  0.80195  1.0000
  C   C11       1.0  0.15482  0.86781  0.47906  1.0000
  C   C12       1.0  0.84518  0.13219  0.52094  1.0000
  C   C13       1.0  0.87077  0.56269  0.55069  1.0000
  C   C14       1.0  0.12923  0.43731  0.44931  1.0000
  C   C15       1.0  0.90949  0.44504  0.65348  1.0000
  C   C16       1.0  0.09051  0.55496  0.34652  1.0000
  C   C17       1.0  0.95992  0.61808  0.39755  1.0000
  C   C18       1.0  0.04008  0.38192  0.60244  1.0000
  C   C19       1.0  0.60633  0.22535  0.15015  1.0000
  C   C20       1.0  0.39367  0.77465  0.84985  1.0000
  C   C21       1.0  0.84970  0.13142  0.08709  1.0000
  C   C22       1.0  0.15030  0.86858  0.91291  1.0000
  C   C23       1.0  0.63735  0.98568  0.31127  1.0000
  C   C24       1.0  0.36265  0.01432  0.68873  1.0000
  S   S1        1.0  0.71148  0.65647  0.10698  1.0000
  S   S2        1.0  0.28852  0.34353  0.89302  1.0000
  S   S3        1.0  0.70732  0.64706  0.61682  1.0000
  S   S4        1.0  0.29268  0.35294  0.38318  1.0000
  N   N1        1.0  0.26247  0.85459  0.34180  1.0000
  N   N2        1.0  0.73753  0.14541  0.65820  1.0000
  N   N3        1.0  0.69421  0.11984  0.18076  1.0000
  N   N4        1.0  0.30579  0.88016  0.81924  1.0000
  O   O1        1.0  0.63003  0.56508  0.26471  1.0000
  O   O2        1.0  0.36997  0.43492  0.73529  1.0000
  O   O3        1.0  0.62816  0.66620  0.00698  1.0000
  O   O4        1.0  0.37184  0.33380  0.99302  1.0000
  O   O5        1.0  0.76564  0.80085  0.08662  1.0000
  O   O6        1.0  0.23436  0.19915  0.91338  1.0000
  O   O7        1.0  0.35028  0.65241  0.47064  1.0000
  O   O8        1.0  0.64972  0.34759  0.52936  1.0000
  O   O9        1.0  0.62642  0.66172  0.51431  1.0000
  O   O10       1.0  0.37358  0.33828  0.48569  1.0000
  O   O11       1.0  0.62789  0.54552  0.77077  1.0000
  O   O12       1.0  0.37211  0.45448  0.22923  1.0000
  O   O13       1.0  0.75462  0.78933  0.60883  1.0000
  O   O14       1.0  0.24538  0.21067  0.39117  1.0000
  O   O15       1.0  0.64820  0.34447  0.04010  1.0000
  O   O16       1.0  0.35179  0.65553  0.95990  1.0000
