data_image0
_chemical_formula_structural       Cu4H32C24S8Cl16O40
_chemical_formula_sum              "Cu4 H32 C24 S8 Cl16 O40"
_cell_length_a       7.22261
_cell_length_b       9.63784
_cell_length_c       21.4781
_cell_angle_alpha    90
_cell_angle_beta     90
_cell_angle_gamma    90

_space_group_name_H-M_alt    "P 1"
_space_group_IT_number       1

loop_
  _space_group_symop_operation_xyz
  'x, y, z'

loop_
  _atom_site_type_symbol
  _atom_site_label
  _atom_site_symmetry_multiplicity
  _atom_site_fract_x
  _atom_site_fract_y
  _atom_site_fract_z
  _atom_site_occupancy
  Cu  Cu1       1.0  0.00000  0.00000  0.50000  1.0000
  Cu  Cu2       1.0  0.50000  0.50000  0.50000  1.0000
  Cu  Cu3       1.0  0.50000  0.50000  0.00000  1.0000
  Cu  Cu4       1.0  0.00000  0.00000  0.00000  1.0000
  H   H1        1.0  0.73401  0.14219  0.45424  1.0000
  H   H2        1.0  0.76599  0.64219  0.54576  1.0000
  H   H3        1.0  0.23402  0.35781  0.04576  1.0000
  H   H4        1.0  0.26599  0.85781  0.95424  1.0000
  H   H5        1.0  0.26599  0.85781  0.54576  1.0000
  H   H6        1.0  0.23401  0.35781  0.45424  1.0000
  H   H7        1.0  0.76599  0.64219  0.95424  1.0000
  H   H8        1.0  0.73402  0.14219  0.04576  1.0000
  H   H9        1.0  0.91942  0.23196  0.45331  1.0000
  H   H10       1.0  0.58058  0.73196  0.54669  1.0000
  H   H11       1.0  0.41943  0.26804  0.04669  1.0000
  H   H12       1.0  0.08057  0.76804  0.95331  1.0000
  H   H13       1.0  0.08058  0.76804  0.54669  1.0000
  H   H14       1.0  0.41943  0.26804  0.45331  1.0000
  H   H15       1.0  0.58058  0.73196  0.95331  1.0000
  H   H16       1.0  0.91943  0.23196  0.04669  1.0000
  H   H17       1.0  0.72330  0.88064  0.44090  1.0000
  H   H18       1.0  0.77670  0.38064  0.55910  1.0000
  H   H19       1.0  0.22331  0.61936  0.05910  1.0000
  H   H20       1.0  0.27669  0.11936  0.94090  1.0000
  H   H21       1.0  0.27669  0.11936  0.55910  1.0000
  H   H22       1.0  0.22331  0.61936  0.44090  1.0000
  H   H23       1.0  0.77669  0.38064  0.94090  1.0000
  H   H24       1.0  0.72331  0.88064  0.05910  1.0000
  H   H25       1.0  0.89817  0.78005  0.44030  1.0000
  H   H26       1.0  0.60182  0.28006  0.55970  1.0000
  H   H27       1.0  0.39818  0.71995  0.05970  1.0000
  H   H28       1.0  0.10182  0.21994  0.94030  1.0000
  H   H29       1.0  0.10183  0.21995  0.55970  1.0000
  H   H30       1.0  0.39818  0.71994  0.44030  1.0000
  H   H31       1.0  0.60183  0.28005  0.94030  1.0000
  H   H32       1.0  0.89818  0.78006  0.05970  1.0000
  C   C1        1.0  0.55910  0.99583  0.68410  1.0000
  C   C2        1.0  0.94090  0.49583  0.31590  1.0000
  C   C3        1.0  0.05910  0.50417  0.81590  1.0000
  C   C4        1.0  0.44090  0.00416  0.18410  1.0000
  C   C5        1.0  0.44089  0.00417  0.31591  1.0000
  C   C6        1.0  0.05910  0.50417  0.68410  1.0000
  C   C7        1.0  0.94090  0.49583  0.18410  1.0000
  C   C8        1.0  0.55910  0.99583  0.81591  1.0000
  C   C9        1.0  0.69486  0.07043  0.71722  1.0000
  C   C10       1.0  0.80514  0.57043  0.28278  1.0000
  C   C11       1.0  0.19486  0.42957  0.78278  1.0000
  C   C12       1.0  0.30514  0.92957  0.21722  1.0000
  C   C13       1.0  0.30514  0.92957  0.28278  1.0000
  C   C14       1.0  0.19486  0.42957  0.71722  1.0000
  C   C15       1.0  0.80514  0.57043  0.21722  1.0000
  C   C16       1.0  0.69486  0.07043  0.78278  1.0000
  C   C17       1.0  0.40845  0.93907  0.71703  1.0000
  C   C18       1.0  0.09154  0.43907  0.28297  1.0000
  C   C19       1.0  0.90846  0.56093  0.78297  1.0000
  C   C20       1.0  0.59155  0.06093  0.21703  1.0000
  C   C21       1.0  0.59154  0.06093  0.28297  1.0000
  C   C22       1.0  0.90845  0.56093  0.71703  1.0000
  C   C23       1.0  0.09154  0.43907  0.21703  1.0000
  C   C24       1.0  0.40846  0.93907  0.78297  1.0000
  S   S1        1.0  0.58524  0.98002  0.60031  1.0000
  S   S2        1.0  0.91476  0.48002  0.39969  1.0000
  S   S3        1.0  0.08524  0.51998  0.89969  1.0000
  S   S4        1.0  0.41476  0.01998  0.10031  1.0000
  S   S5        1.0  0.41476  0.01998  0.39969  1.0000
  S   S6        1.0  0.08524  0.51998  0.60031  1.0000
  S   S7        1.0  0.91476  0.48002  0.10031  1.0000
  S   S8        1.0  0.58524  0.98002  0.89969  1.0000
  Cl  Cl1       1.0  0.85618  0.16977  0.67954  1.0000
  Cl  Cl2       1.0  0.64382  0.66977  0.32046  1.0000
  Cl  Cl3       1.0  0.35618  0.33023  0.82046  1.0000
  Cl  Cl4       1.0  0.14382  0.83023  0.17954  1.0000
  Cl  Cl5       1.0  0.14381  0.83023  0.32046  1.0000
  Cl  Cl6       1.0  0.35618  0.33023  0.67954  1.0000
  Cl  Cl7       1.0  0.64382  0.66977  0.17954  1.0000
  Cl  Cl8       1.0  0.85618  0.16977  0.82046  1.0000
  Cl  Cl9       1.0  0.21422  0.87723  0.68052  1.0000
  Cl  Cl10      1.0  0.28578  0.37723  0.31948  1.0000
  Cl  Cl11      1.0  0.71422  0.62277  0.81948  1.0000
  Cl  Cl12      1.0  0.78578  0.12277  0.18052  1.0000
  Cl  Cl13      1.0  0.78578  0.12277  0.31948  1.0000
  Cl  Cl14      1.0  0.71422  0.62277  0.68052  1.0000
  Cl  Cl15      1.0  0.28578  0.37723  0.18052  1.0000
  Cl  Cl16      1.0  0.21422  0.87723  0.81948  1.0000
  O   O1        1.0  0.84982  0.16119  0.47805  1.0000
  O   O2        1.0  0.65018  0.66119  0.52195  1.0000
  O   O3        1.0  0.34983  0.33881  0.02195  1.0000
  O   O4        1.0  0.15017  0.83881  0.97805  1.0000
  O   O5        1.0  0.15018  0.83881  0.52195  1.0000
  O   O6        1.0  0.34983  0.33880  0.47805  1.0000
  O   O7        1.0  0.65017  0.66119  0.97805  1.0000
  O   O8        1.0  0.84983  0.16120  0.02195  1.0000
  O   O9        1.0  0.86083  0.87880  0.44181  1.0000
  O   O10       1.0  0.63917  0.37881  0.55819  1.0000
  O   O11       1.0  0.36083  0.62120  0.05819  1.0000
  O   O12       1.0  0.13917  0.12119  0.94181  1.0000
  O   O13       1.0  0.13917  0.12120  0.55819  1.0000
  O   O14       1.0  0.36083  0.62119  0.44181  1.0000
  O   O15       1.0  0.63917  0.37880  0.94181  1.0000
  O   O16       1.0  0.86083  0.87881  0.05819  1.0000
  O   O17       1.0  0.77994  0.95475  0.58873  1.0000
  O   O18       1.0  0.72006  0.45475  0.41127  1.0000
  O   O19       1.0  0.27994  0.54525  0.91126  1.0000
  O   O20       1.0  0.22006  0.04525  0.08873  1.0000
  O   O21       1.0  0.22006  0.04525  0.41127  1.0000
  O   O22       1.0  0.27994  0.54525  0.58873  1.0000
  O   O23       1.0  0.72006  0.45475  0.08873  1.0000
  O   O24       1.0  0.77994  0.95475  0.91127  1.0000
  O   O25       1.0  0.51165  0.11061  0.57401  1.0000
  O   O26       1.0  0.98835  0.61061  0.42599  1.0000
  O   O27       1.0  0.01165  0.38939  0.92599  1.0000
  O   O28       1.0  0.48836  0.88938  0.07401  1.0000
  O   O29       1.0  0.48835  0.88939  0.42599  1.0000
  O   O30       1.0  0.01165  0.38939  0.57401  1.0000
  O   O31       1.0  0.98835  0.61062  0.07401  1.0000
  O   O32       1.0  0.51165  0.11061  0.92599  1.0000
  O   O33       1.0  0.47022  0.86047  0.58126  1.0000
  O   O34       1.0  0.02978  0.36047  0.41874  1.0000
  O   O35       1.0  0.97021  0.63953  0.91874  1.0000
  O   O36       1.0  0.52978  0.13953  0.08126  1.0000
  O   O37       1.0  0.52978  0.13953  0.41874  1.0000
  O   O38       1.0  0.97022  0.63953  0.58126  1.0000
  O   O39       1.0  0.02978  0.36047  0.08126  1.0000
  O   O40       1.0  0.47022  0.86047  0.91874  1.0000
