data_image0
_chemical_formula_structural       Na4H8C12S4Cl8O16
_chemical_formula_sum              "Na4 H8 C12 S4 Cl8 O16"
_cell_length_a       5.61844
_cell_length_b       10.6686
_cell_length_c       11.5721
_cell_angle_alpha    91.1004
_cell_angle_beta     90.0006
_cell_angle_gamma    90.0002

_space_group_name_H-M_alt    "P 1"
_space_group_IT_number       1

loop_
  _space_group_symop_operation_xyz
  'x, y, z'

loop_
  _atom_site_type_symbol
  _atom_site_label
  _atom_site_symmetry_multiplicity
  _atom_site_fract_x
  _atom_site_fract_y
  _atom_site_fract_z
  _atom_site_occupancy
  Na  Na1       1.0  0.48150  0.30005  0.38067  1.0000
  Na  Na2       1.0  0.98150  0.19995  0.61934  1.0000
  Na  Na3       1.0  0.51849  0.69994  0.61934  1.0000
  Na  Na4       1.0  0.01850  0.80005  0.38067  1.0000
  H   H1        1.0  0.50429  0.25855  0.61600  1.0000
  H   H2        1.0  0.00429  0.24145  0.38400  1.0000
  H   H3        1.0  0.49571  0.74145  0.38400  1.0000
  H   H4        1.0  0.99570  0.75855  0.61600  1.0000
  H   H5        1.0  0.63615  0.38887  0.61116  1.0000
  H   H6        1.0  0.13614  0.11113  0.38884  1.0000
  H   H7        1.0  0.36386  0.61113  0.38884  1.0000
  H   H8        1.0  0.86384  0.88886  0.61115  1.0000
  C   C1        1.0  0.99440  0.48779  0.12340  1.0000
  C   C2        1.0  0.49440  0.01221  0.87660  1.0000
  C   C3        1.0  0.00561  0.51222  0.87660  1.0000
  C   C4        1.0  0.50560  0.98778  0.12340  1.0000
  C   C5        1.0  0.16450  0.56357  0.06917  1.0000
  C   C6        1.0  0.66450  0.93643  0.93083  1.0000
  C   C7        1.0  0.83551  0.43644  0.93083  1.0000
  C   C8        1.0  0.33550  0.06357  0.06916  1.0000
  C   C9        1.0  0.82675  0.42562  0.05240  1.0000
  C   C10       1.0  0.32674  0.07438  0.94760  1.0000
  C   C11       1.0  0.17326  0.57438  0.94760  1.0000
  C   C12       1.0  0.67325  0.92562  0.05240  1.0000
  S   S1        1.0  0.99226  0.48134  0.28172  1.0000
  S   S2        1.0  0.49226  0.01866  0.71828  1.0000
  S   S3        1.0  0.00774  0.51866  0.71828  1.0000
  S   S4        1.0  0.50774  0.98134  0.28172  1.0000
  Cl  Cl1       1.0  0.36630  0.65055  0.14843  1.0000
  Cl  Cl2       1.0  0.86629  0.84945  0.85158  1.0000
  Cl  Cl3       1.0  0.63370  0.34945  0.85157  1.0000
  Cl  Cl4       1.0  0.13371  0.15054  0.14842  1.0000
  Cl  Cl5       1.0  0.60166  0.33533  0.10608  1.0000
  Cl  Cl6       1.0  0.10165  0.16468  0.89392  1.0000
  Cl  Cl7       1.0  0.39835  0.66468  0.89392  1.0000
  Cl  Cl8       1.0  0.89834  0.83532  0.10609  1.0000
  O   O1        1.0  0.61636  0.30795  0.56982  1.0000
  O   O2        1.0  0.11636  0.19205  0.43018  1.0000
  O   O3        1.0  0.38364  0.69205  0.43018  1.0000
  O   O4        1.0  0.88363  0.80795  0.56982  1.0000
  O   O5        1.0  0.24179  0.46562  0.31744  1.0000
  O   O6        1.0  0.74179  0.03438  0.68256  1.0000
  O   O7        1.0  0.75821  0.53438  0.68256  1.0000
  O   O8        1.0  0.25821  0.96562  0.31744  1.0000
  O   O9        1.0  0.85020  0.37245  0.31410  1.0000
  O   O10       1.0  0.35020  0.12756  0.68590  1.0000
  O   O11       1.0  0.14981  0.62755  0.68590  1.0000
  O   O12       1.0  0.64981  0.87244  0.31410  1.0000
  O   O13       1.0  0.88820  0.60123  0.31717  1.0000
  O   O14       1.0  0.38818  0.89878  0.68282  1.0000
  O   O15       1.0  0.11180  0.39877  0.68283  1.0000
  O   O16       1.0  0.61182  0.10123  0.31718  1.0000
