data_image0
_chemical_formula_structural       Co3H24C28N2O18
_chemical_formula_sum              "Co3 H24 C28 N2 O18"
_cell_length_a       7.41083
_cell_length_b       8.74578
_cell_length_c       12.3966
_cell_angle_alpha    98.699
_cell_angle_beta     91.9828
_cell_angle_gamma    102.988

_space_group_name_H-M_alt    "P 1"
_space_group_IT_number       1

loop_
  _space_group_symop_operation_xyz
  'x, y, z'

loop_
  _atom_site_type_symbol
  _atom_site_label
  _atom_site_symmetry_multiplicity
  _atom_site_fract_x
  _atom_site_fract_y
  _atom_site_fract_z
  _atom_site_occupancy
  Co  Co1       1.0  0.83301  0.59911  0.64942  1.0000
  Co  Co2       1.0  0.16717  0.40085  0.35046  1.0000
  Co  Co3       1.0  0.49981  0.99983  0.50001  1.0000
  H   H1        1.0  0.46952  0.52057  0.59656  1.0000
  H   H2        1.0  0.53065  0.47940  0.40304  1.0000
  H   H3        1.0  0.49718  0.70476  0.63168  1.0000
  H   H4        1.0  0.50298  0.29511  0.36830  1.0000
  H   H5        1.0  0.78086  0.92179  0.60539  1.0000
  H   H6        1.0  0.21910  0.07806  0.39460  1.0000
  H   H7        1.0  0.74802  0.82013  0.49001  1.0000
  H   H8        1.0  0.25184  0.17973  0.50996  1.0000
  H   H9        1.0  0.68859  0.13788  0.32734  1.0000
  H   H10       1.0  0.31211  0.86276  0.67320  1.0000
  H   H11       1.0  0.73095  0.25344  0.44210  1.0000
  H   H12       1.0  0.26822  0.74635  0.55897  1.0000
  H   H13       1.0  0.91782  0.72333  0.90060  1.0000
  H   H14       1.0  0.08217  0.27671  0.09932  1.0000
  H   H15       1.0  0.61713  0.33351  0.04904  1.0000
  H   H16       1.0  0.38280  0.66659  0.95091  1.0000
  H   H17       1.0  0.53988  0.17577  0.85983  1.0000
  H   H18       1.0  0.46011  0.82427  0.14013  1.0000
  H   H19       1.0  0.84791  0.86960  0.04849  1.0000
  H   H20       1.0  0.15203  0.13047  0.95146  1.0000
  H   H21       1.0  0.97098  0.88915  0.39194  1.0000
  H   H22       1.0  0.02890  0.11084  0.60801  1.0000
  H   H23       1.0  0.80609  0.43545  0.18448  1.0000
  H   H24       1.0  0.19397  0.56458  0.81542  1.0000
  C   C1        1.0  0.64577  0.28313  0.66915  1.0000
  C   C2        1.0  0.35440  0.71677  0.33081  1.0000
  C   C3        1.0  0.68286  0.36878  0.78419  1.0000
  C   C4        1.0  0.31721  0.63122  0.21575  1.0000
  C   C5        1.0  0.82892  0.60466  0.89661  1.0000
  C   C6        1.0  0.17107  0.39538  0.10332  1.0000
  C   C7        1.0  0.77316  0.54353  0.99175  1.0000
  C   C8        1.0  0.22681  0.45656  0.00818  1.0000
  C   C9        1.0  0.66643  0.38606  0.97813  1.0000
  C   C10       1.0  0.33354  0.61402  0.02181  1.0000
  C   C11       1.0  0.62214  0.29786  0.87387  1.0000
  C   C12       1.0  0.37786  0.70219  0.12607  1.0000
  C   C13       1.0  0.82660  0.64038  0.10100  1.0000
  C   C14       1.0  0.17337  0.35968  0.89893  1.0000
  C   C15       1.0  0.86517  0.80759  0.11678  1.0000
  C   C16       1.0  0.13475  0.19247  0.88316  1.0000
  C   C17       1.0  0.92090  0.89750  0.22069  1.0000
  C   C18       1.0  0.07899  0.10254  0.77926  1.0000
  C   C19       1.0  0.95110  0.07611  0.23941  1.0000
  C   C20       1.0  0.04882  0.92394  0.76064  1.0000
  C   C21       1.0  0.93042  0.82019  0.31062  1.0000
  C   C22       1.0  0.06946  0.17981  0.68932  1.0000
  C   C23       1.0  0.88248  0.65417  0.29678  1.0000
  C   C24       1.0  0.11748  0.34583  0.70314  1.0000
  C   C25       1.0  0.86929  0.57150  0.39413  1.0000
  C   C26       1.0  0.13085  0.42851  0.60580  1.0000
  C   C27       1.0  0.83532  0.56473  0.19257  1.0000
  C   C28       1.0  0.16466  0.43530  0.80734  1.0000
  N   N1        1.0  0.78396  0.52041  0.79602  1.0000
  N   N2        1.0  0.21609  0.47960  0.20389  1.0000
  O   O1        1.0  0.71766  0.35971  0.59474  1.0000
  O   O2        1.0  0.28289  0.64008  0.40523  1.0000
  O   O3        1.0  0.54884  0.14184  0.65207  1.0000
  O   O4        1.0  0.45109  0.85815  0.34789  1.0000
  O   O5        1.0  0.91436  0.43879  0.38980  1.0000
  O   O6        1.0  0.08598  0.56132  0.61017  1.0000
  O   O7        1.0  0.79917  0.63705  0.47695  1.0000
  O   O8        1.0  0.20088  0.36290  0.52300  1.0000
  O   O9        1.0  0.09729  0.15551  0.30060  1.0000
  O   O10       1.0  0.90278  0.84445  0.69936  1.0000
  O   O11       1.0  0.83102  0.13604  0.19858  1.0000
  O   O12       1.0  0.16880  0.86408  0.80164  1.0000
  O   O13       1.0  0.54428  0.61130  0.64690  1.0000
  O   O14       1.0  0.45580  0.38847  0.35291  1.0000
  O   O15       1.0  0.73575  0.92529  0.52936  1.0000
  O   O16       1.0  0.26400  0.07452  0.47065  1.0000
  O   O17       1.0  0.63631  0.16665  0.39781  1.0000
  O   O18       1.0  0.36348  0.83340  0.60253  1.0000
