data_image0
_chemical_formula_structural       Bi4H36C44S2N12O28
_chemical_formula_sum              "Bi4 H36 C44 S2 N12 O28"
_cell_length_a       8.04235
_cell_length_b       10.0026
_cell_length_c       18.892
_cell_angle_alpha    77.7614
_cell_angle_beta     78.616
_cell_angle_gamma    76.1429

_space_group_name_H-M_alt    "P 1"
_space_group_IT_number       1

loop_
  _space_group_symop_operation_xyz
  'x, y, z'

loop_
  _atom_site_type_symbol
  _atom_site_label
  _atom_site_symmetry_multiplicity
  _atom_site_fract_x
  _atom_site_fract_y
  _atom_site_fract_z
  _atom_site_occupancy
  Bi  Bi1       1.0  0.27515  0.03166  0.74171  1.0000
  Bi  Bi2       1.0  0.72484  0.96834  0.25829  1.0000
  Bi  Bi3       1.0  0.74120  0.84206  0.81727  1.0000
  Bi  Bi4       1.0  0.25880  0.15793  0.18274  1.0000
  H   H1        1.0  0.19083  0.27576  0.46569  1.0000
  H   H2        1.0  0.80917  0.72424  0.53431  1.0000
  H   H3        1.0  0.50956  0.24735  0.41076  1.0000
  H   H4        1.0  0.49043  0.75265  0.58924  1.0000
  H   H5        1.0  0.73205  0.12079  0.49185  1.0000
  H   H6        1.0  0.26794  0.87920  0.50815  1.0000
  H   H7        1.0  0.23542  0.64152  0.59750  1.0000
  H   H8        1.0  0.76459  0.35847  0.40251  1.0000
  H   H9        1.0  0.07103  0.47731  0.57066  1.0000
  H   H10       1.0  0.92898  0.52268  0.42934  1.0000
  H   H11       1.0  0.77803  0.46170  0.64348  1.0000
  H   H12       1.0  0.22198  0.53830  0.35652  1.0000
  H   H13       1.0  0.67058  0.47225  0.07931  1.0000
  H   H14       1.0  0.32943  0.52775  0.92068  1.0000
  H   H15       1.0  0.42030  0.62389  0.14731  1.0000
  H   H16       1.0  0.57970  0.37611  0.85269  1.0000
  H   H17       1.0  0.27889  0.85303  0.07898  1.0000
  H   H18       1.0  0.72112  0.14698  0.92102  1.0000
  H   H19       1.0  0.85678  0.92651  0.96050  1.0000
  H   H20       1.0  0.14322  0.07349  0.03950  1.0000
  H   H21       1.0  0.99334  0.80884  0.92502  1.0000
  H   H22       1.0  0.00666  0.19116  0.07498  1.0000
  H   H23       1.0  0.83943  0.14467  0.73519  1.0000
  H   H24       1.0  0.16057  0.85533  0.26481  1.0000
  H   H25       1.0  0.63998  0.18367  0.76907  1.0000
  H   H26       1.0  0.36003  0.81633  0.23093  1.0000
  H   H27       1.0  0.10419  0.54196  0.83562  1.0000
  H   H28       1.0  0.89582  0.45804  0.16438  1.0000
  H   H29       1.0  0.31547  0.52815  0.77798  1.0000
  H   H30       1.0  0.68452  0.47186  0.22202  1.0000
  H   H31       1.0  0.00225  0.34804  0.88242  1.0000
  H   H32       1.0  0.99775  0.65196  0.11758  1.0000
  H   H33       1.0  0.93475  0.16474  0.82861  1.0000
  H   H34       1.0  0.06525  0.83526  0.17139  1.0000
  H   H35       1.0  0.08559  0.10473  0.88639  1.0000
  H   H36       1.0  0.91441  0.89528  0.11361  1.0000
  C   C1        1.0  0.20164  0.35967  0.79630  1.0000
  C   C2        1.0  0.79836  0.64033  0.20370  1.0000
  C   C3        1.0  0.06082  0.19715  0.61032  1.0000
  C   C4        1.0  0.93917  0.80285  0.38968  1.0000
  C   C5        1.0  0.24727  0.17405  0.57238  1.0000
  C   C6        1.0  0.75272  0.82595  0.42763  1.0000
  C   C7        1.0  0.29323  0.22489  0.49822  1.0000
  C   C8        1.0  0.70676  0.77511  0.50179  1.0000
  C   C9        1.0  0.46865  0.20821  0.46844  1.0000
  C   C10       1.0  0.53135  0.79178  0.53156  1.0000
  C   C11       1.0  0.59374  0.13764  0.51270  1.0000
  C   C12       1.0  0.40626  0.86235  0.48730  1.0000
  C   C13       1.0  0.53853  0.08546  0.58602  1.0000
  C   C14       1.0  0.46147  0.91454  0.41398  1.0000
  C   C15       1.0  0.66404  0.00249  0.63757  1.0000
  C   C16       1.0  0.33596  0.99751  0.36244  1.0000
  C   C17       1.0  0.11996  0.80756  0.70545  1.0000
  C   C18       1.0  0.88004  0.19244  0.29456  1.0000
  C   C19       1.0  0.03358  0.70844  0.68357  1.0000
  C   C20       1.0  0.96643  0.29156  0.31643  1.0000
  C   C21       1.0  0.10833  0.63075  0.62793  1.0000
  C   C22       1.0  0.89168  0.36925  0.37207  1.0000
  C   C23       1.0  0.01682  0.53996  0.61356  1.0000
  C   C24       1.0  0.98319  0.46004  0.38644  1.0000
  C   C25       1.0  0.85289  0.53133  0.65355  1.0000
  C   C26       1.0  0.14712  0.46867  0.34645  1.0000
  C   C27       1.0  0.78541  0.61548  0.70716  1.0000
  C   C28       1.0  0.21459  0.38452  0.29284  1.0000
  C   C29       1.0  0.60613  0.62073  0.75106  1.0000
  C   C30       1.0  0.39387  0.37927  0.24894  1.0000
  C   C31       1.0  0.83177  0.54932  0.93764  1.0000
  C   C32       1.0  0.16823  0.45069  0.06236  1.0000
  C   C33       1.0  0.67449  0.62749  0.98106  1.0000
  C   C34       1.0  0.32552  0.37251  0.01893  1.0000
  C   C35       1.0  0.60979  0.57521  0.05320  1.0000
  C   C36       1.0  0.39020  0.42479  0.94680  1.0000
  C   C37       1.0  0.46885  0.65862  0.08991  1.0000
  C   C38       1.0  0.53115  0.34138  0.91009  1.0000
  C   C39       1.0  0.39034  0.78643  0.05226  1.0000
  C   C40       1.0  0.60966  0.21357  0.94774  1.0000
  C   C41       1.0  0.45640  0.82788  0.97880  1.0000
  C   C42       1.0  0.54360  0.17212  0.02119  1.0000
  C   C43       1.0  0.36851  0.95594  0.93082  1.0000
  C   C44       1.0  0.63149  0.04406  0.06918  1.0000
  S   S1        1.0  0.35617  0.28165  0.73205  1.0000
  S   S2        1.0  0.64382  0.71835  0.26795  1.0000
  N   N1        1.0  0.36934  0.10630  0.61382  1.0000
  N   N2        1.0  0.63066  0.89370  0.38618  1.0000
  N   N3        1.0  0.87676  0.69888  0.72166  1.0000
  N   N4        1.0  0.12325  0.30112  0.27834  1.0000
  N   N5        1.0  0.59890  0.75099  0.94572  1.0000
  N   N6        1.0  0.40110  0.24901  0.05428  1.0000
  N   N7        1.0  0.20783  0.48672  0.80459  1.0000
  N   N8        1.0  0.79217  0.51328  0.19541  1.0000
  N   N9        1.0  0.07058  0.30267  0.83728  1.0000
  N   N10       1.0  0.92942  0.69734  0.16272  1.0000
  N   N11       1.0  0.05720  0.16561  0.83701  1.0000
  N   N12       1.0  0.94281  0.83440  0.16299  1.0000
  O   O1        1.0  0.91695  0.89908  0.91241  1.0000
  O   O2        1.0  0.08305  0.10091  0.08759  1.0000
  O   O3        1.0  0.75419  0.13265  0.78118  1.0000
  O   O4        1.0  0.24581  0.86734  0.21882  1.0000
  O   O5        1.0  0.03977  0.14851  0.68082  1.0000
  O   O6        1.0  0.96022  0.85150  0.31918  1.0000
  O   O7        1.0  0.94349  0.26251  0.57516  1.0000
  O   O8        1.0  0.05650  0.73748  0.42484  1.0000
  O   O9        1.0  0.59078  0.96983  0.70585  1.0000
  O   O10       1.0  0.40921  0.03017  0.29415  1.0000
  O   O11       1.0  0.81980  0.97032  0.61399  1.0000
  O   O12       1.0  0.18020  0.02966  0.38601  1.0000
  O   O13       1.0  0.04800  0.85630  0.76458  1.0000
  O   O14       1.0  0.95200  0.14370  0.23543  1.0000
  O   O15       1.0  0.25601  0.83839  0.66662  1.0000
  O   O16       1.0  0.74399  0.16161  0.33338  1.0000
  O   O17       1.0  0.56124  0.69628  0.80197  1.0000
  O   O18       1.0  0.43875  0.30372  0.19803  1.0000
  O   O19       1.0  0.51320  0.55117  0.73494  1.0000
  O   O20       1.0  0.48681  0.44882  0.26505  1.0000
  O   O21       1.0  0.89799  0.62127  0.87798  1.0000
  O   O22       1.0  0.10200  0.37873  0.12202  1.0000
  O   O23       1.0  0.88869  0.42235  0.95996  1.0000
  O   O24       1.0  0.11130  0.57765  0.04004  1.0000
  O   O25       1.0  0.43535  0.97594  0.86293  1.0000
  O   O26       1.0  0.56464  0.02407  0.13707  1.0000
  O   O27       1.0  0.23298  0.03208  0.95862  1.0000
  O   O28       1.0  0.76702  0.96792  0.04138  1.0000
