data_image0
_chemical_formula_structural       NiMo8H42C48N16O26
_chemical_formula_sum              "Ni1 Mo8 H42 C48 N16 O26"
_cell_length_a       12.0993
_cell_length_b       12.4021
_cell_length_c       12.88
_cell_angle_alpha    68.2156
_cell_angle_beta     64.6891
_cell_angle_gamma    89.663

_space_group_name_H-M_alt    "P 1"
_space_group_IT_number       1

loop_
  _space_group_symop_operation_xyz
  'x, y, z'

loop_
  _atom_site_type_symbol
  _atom_site_label
  _atom_site_symmetry_multiplicity
  _atom_site_fract_x
  _atom_site_fract_y
  _atom_site_fract_z
  _atom_site_occupancy
  Ni  Ni1       1.0  0.50000  1.00000  0.50000  1.0000
  Mo  Mo1       1.0  0.07072  0.61259  0.01501  1.0000
  Mo  Mo2       1.0  0.92928  0.38741  0.98499  1.0000
  Mo  Mo3       1.0  0.32451  0.67326  0.73709  1.0000
  Mo  Mo4       1.0  0.67549  0.32674  0.26291  1.0000
  Mo  Mo5       1.0  0.20419  0.37456  0.01972  1.0000
  Mo  Mo6       1.0  0.79582  0.62544  0.98028  1.0000
  Mo  Mo7       1.0  0.06018  0.72661  0.72506  1.0000
  Mo  Mo8       1.0  0.93982  0.27339  0.27494  1.0000
  H   H1        1.0  0.65829  0.15408  0.55551  1.0000
  H   H2        1.0  0.34171  0.84592  0.44449  1.0000
  H   H3        1.0  0.60861  0.79044  0.64008  1.0000
  H   H4        1.0  0.39140  0.20956  0.35992  1.0000
  H   H5        1.0  0.77560  0.84040  0.71923  1.0000
  H   H6        1.0  0.22440  0.15960  0.28078  1.0000
  H   H7        1.0  0.69675  0.20746  0.69922  1.0000
  H   H8        1.0  0.30324  0.79254  0.30079  1.0000
  H   H9        1.0  0.85986  0.35372  0.66766  1.0000
  H   H10       1.0  0.14014  0.64628  0.33235  1.0000
  H   H11       1.0  0.12671  0.12599  0.58559  1.0000
  H   H12       1.0  0.87329  0.87401  0.41441  1.0000
  H   H13       1.0  0.96668  0.98410  0.61126  1.0000
  H   H14       1.0  0.03332  0.01590  0.38873  1.0000
  H   H15       1.0  0.00005  0.40689  0.73347  1.0000
  H   H16       1.0  0.99994  0.59312  0.26653  1.0000
  H   H17       1.0  0.20684  0.54837  0.62994  1.0000
  H   H18       1.0  0.79316  0.45163  0.37006  1.0000
  H   H19       1.0  0.25309  0.32185  0.43607  1.0000
  H   H20       1.0  0.74691  0.67814  0.56394  1.0000
  H   H21       1.0  0.77030  0.07156  0.27362  1.0000
  H   H22       1.0  0.22970  0.92844  0.72638  1.0000
  H   H23       1.0  0.50638  0.75890  0.44667  1.0000
  H   H24       1.0  0.49363  0.24110  0.55333  1.0000
  H   H25       1.0  0.70431  0.75594  0.23341  1.0000
  H   H26       1.0  0.29570  0.24407  0.76658  1.0000
  H   H27       1.0  0.97135  0.07279  0.16401  1.0000
  H   H28       1.0  0.02865  0.92721  0.83599  1.0000
  H   H29       1.0  0.83297  0.85799  0.03035  1.0000
  H   H30       1.0  0.16704  0.14201  0.96965  1.0000
  H   H31       1.0  0.35839  0.88958  0.83065  1.0000
  H   H32       1.0  0.64160  0.11041  0.16935  1.0000
  H   H33       1.0  0.46217  0.55542  0.92740  1.0000
  H   H34       1.0  0.53784  0.44458  0.07259  1.0000
  H   H35       1.0  0.53470  0.67932  0.03627  1.0000
  H   H36       1.0  0.46531  0.32068  0.96372  1.0000
  H   H37       1.0  0.30250  0.96880  0.99005  1.0000
  H   H38       1.0  0.69750  0.03119  0.00995  1.0000
  H   H39       1.0  0.64854  0.86149  0.97032  1.0000
  H   H40       1.0  0.35146  0.13851  0.02968  1.0000
  H   H41       1.0  0.37613  0.50238  0.44672  1.0000
  H   H42       1.0  0.62387  0.49762  0.55329  1.0000
  C   C1        1.0  0.66090  0.06100  0.59426  1.0000
  C   C2        1.0  0.33910  0.93900  0.40574  1.0000
  C   C3        1.0  0.64496  0.87356  0.63343  1.0000
  C   C4        1.0  0.35504  0.12644  0.36656  1.0000
  C   C5        1.0  0.72675  0.89718  0.67350  1.0000
  C   C6        1.0  0.27325  0.10282  0.32649  1.0000
  C   C7        1.0  0.82282  0.08933  0.65201  1.0000
  C   C8        1.0  0.17718  0.91067  0.34799  1.0000
  C   C9        1.0  0.79156  0.19096  0.67256  1.0000
  C   C10       1.0  0.20844  0.80904  0.32745  1.0000
  C   C11       1.0  0.88262  0.27252  0.65588  1.0000
  C   C12       1.0  0.11738  0.72748  0.34413  1.0000
  C   C13       1.0  0.00372  0.25023  0.62121  1.0000
  C   C14       1.0  0.99628  0.74977  0.37880  1.0000
  C   C15       1.0  0.03305  0.14504  0.60934  1.0000
  C   C16       1.0  0.96695  0.85496  0.39066  1.0000
  C   C17       1.0  0.94228  0.06434  0.62437  1.0000
  C   C18       1.0  0.05772  0.93566  0.37563  1.0000
  C   C19       1.0  0.08543  0.41042  0.65349  1.0000
  C   C20       1.0  0.91456  0.58958  0.34651  1.0000
  C   C21       1.0  0.22142  0.36617  0.49896  1.0000
  C   C22       1.0  0.77858  0.63383  0.50105  1.0000
  C   C23       1.0  0.72449  0.98613  0.29366  1.0000
  C   C24       1.0  0.27551  0.01388  0.70634  1.0000
  C   C25       1.0  0.58909  0.82487  0.37731  1.0000
  C   C26       1.0  0.41091  0.17513  0.62269  1.0000
  C   C27       1.0  0.68754  0.82070  0.27403  1.0000
  C   C28       1.0  0.31246  0.17930  0.72597  1.0000
  C   C29       1.0  0.88848  0.96129  0.10999  1.0000
  C   C30       1.0  0.11152  0.03871  0.89000  1.0000
  C   C31       1.0  0.98284  0.04048  0.09284  1.0000
  C   C32       1.0  0.01716  0.95952  0.90716  1.0000
  C   C33       1.0  0.90546  0.92054  0.01746  1.0000
  C   C34       1.0  0.09454  0.07947  0.98253  1.0000
  C   C35       1.0  0.39309  0.81406  0.87346  1.0000
  C   C36       1.0  0.60691  0.18594  0.12655  1.0000
  C   C37       1.0  0.45070  0.64277  0.92444  1.0000
  C   C38       1.0  0.54930  0.35723  0.07556  1.0000
  C   C39       1.0  0.48583  0.70204  0.97951  1.0000
  C   C40       1.0  0.51417  0.29796  0.02049  1.0000
  C   C41       1.0  0.47347  0.90555  0.97511  1.0000
  C   C42       1.0  0.52653  0.09445  0.02489  1.0000
  C   C43       1.0  0.39014  0.98358  0.99209  1.0000
  C   C44       1.0  0.60985  0.01642  0.00791  1.0000
  C   C45       1.0  0.58334  0.92196  0.98341  1.0000
  C   C46       1.0  0.41666  0.07804  0.01659  1.0000
  C   C47       1.0  0.28041  0.45668  0.50370  1.0000
  C   C48       1.0  0.71959  0.54332  0.49631  1.0000
  N   N1        1.0  0.19407  0.48213  0.59996  1.0000
  N   N2        1.0  0.80593  0.51787  0.40004  1.0000
  N   N3        1.0  0.60500  0.97654  0.58427  1.0000
  N   N4        1.0  0.39500  0.02346  0.41573  1.0000
  N   N5        1.0  0.73504  0.01648  0.64932  1.0000
  N   N6        1.0  0.26496  0.98352  0.35068  1.0000
  N   N7        1.0  0.09970  0.33818  0.59362  1.0000
  N   N8        1.0  0.90029  0.66182  0.40639  1.0000
  N   N9        1.0  0.61256  0.92872  0.38760  1.0000
  N   N10       1.0  0.38744  0.07129  0.61240  1.0000
  N   N11       1.0  0.77296  0.92336  0.22191  1.0000
  N   N12       1.0  0.22704  0.07665  0.77809  1.0000
  N   N13       1.0  0.39401  0.71374  0.85808  1.0000
  N   N14       1.0  0.60599  0.28626  0.14192  1.0000
  N   N15       1.0  0.44824  0.81063  0.94696  1.0000
  N   N16       1.0  0.55176  0.18937  0.05304  1.0000
  O   O1        1.0  0.14018  0.64735  0.09332  1.0000
  O   O2        1.0  0.85982  0.35265  0.90668  1.0000
  O   O3        1.0  0.92205  0.64796  0.07605  1.0000
  O   O4        1.0  0.07795  0.35203  0.92395  1.0000
  O   O5        1.0  0.14927  0.73106  0.84970  1.0000
  O   O6        1.0  0.85073  0.26894  0.15030  1.0000
  O   O7        1.0  0.38537  0.82226  0.64014  1.0000
  O   O8        1.0  0.61463  0.17774  0.35986  1.0000
  O   O9        1.0  0.44245  0.60111  0.67948  1.0000
  O   O10       1.0  0.55755  0.39889  0.32051  1.0000
  O   O11       1.0  0.22466  0.53762  0.90838  1.0000
  O   O12       1.0  0.77534  0.46238  0.09162  1.0000
  O   O13       1.0  0.30696  0.31420  0.92329  1.0000
  O   O14       1.0  0.69304  0.68580  0.07671  1.0000
  O   O15       1.0  0.27754  0.39786  0.09979  1.0000
  O   O16       1.0  0.72246  0.60214  0.90021  1.0000
  O   O17       1.0  0.08310  0.23856  0.15740  1.0000
  O   O18       1.0  0.91690  0.76144  0.84260  1.0000
  O   O19       1.0  0.02434  0.44155  0.10039  1.0000
  O   O20       1.0  0.97566  0.55845  0.89961  1.0000
  O   O21       1.0  0.00004  0.67664  0.64879  1.0000
  O   O22       1.0  0.99996  0.32336  0.35121  1.0000
  O   O23       1.0  0.21217  0.64918  0.67618  1.0000
  O   O24       1.0  0.78783  0.35082  0.32382  1.0000
  O   O25       1.0  0.12800  0.87251  0.62672  1.0000
  O   O26       1.0  0.87201  0.12749  0.37328  1.0000
