data_image0
_chemical_formula_structural       Cu2H12C20N12O16
_chemical_formula_sum              "Cu2 H12 C20 N12 O16"
_cell_length_a       7.86401
_cell_length_b       8.7161
_cell_length_c       11.1872
_cell_angle_alpha    100.314
_cell_angle_beta     106.6
_cell_angle_gamma    104.987

_space_group_name_H-M_alt    "P 1"
_space_group_IT_number       1

loop_
  _space_group_symop_operation_xyz
  'x, y, z'

loop_
  _atom_site_type_symbol
  _atom_site_label
  _atom_site_symmetry_multiplicity
  _atom_site_fract_x
  _atom_site_fract_y
  _atom_site_fract_z
  _atom_site_occupancy
  Cu  Cu1       1.0  0.59224  0.13055  0.97461  1.0000
  Cu  Cu2       1.0  0.40776  0.86946  0.02538  1.0000
  H   H1        1.0  0.05378  0.37227  0.34928  1.0000
  H   H2        1.0  0.94622  0.62772  0.65072  1.0000
  H   H3        1.0  0.66466  0.99141  0.43257  1.0000
  H   H4        1.0  0.33534  0.00859  0.56743  1.0000
  H   H5        1.0  0.19131  0.29677  0.73172  1.0000
  H   H6        1.0  0.80870  0.70322  0.26828  1.0000
  H   H7        1.0  0.01408  0.16671  0.02667  1.0000
  H   H8        1.0  0.98591  0.83329  0.97333  1.0000
  H   H9        1.0  0.16078  0.22275  0.19184  1.0000
  H   H10       1.0  0.83922  0.77726  0.80816  1.0000
  H   H11       1.0  0.29211  0.45725  0.94741  1.0000
  H   H12       1.0  0.70789  0.54276  0.05259  1.0000
  C   C1        1.0  0.13463  0.34845  0.54483  1.0000
  C   C2        1.0  0.86537  0.65155  0.45517  1.0000
  C   C3        1.0  0.01473  0.30547  0.41629  1.0000
  C   C4        1.0  0.98527  0.69452  0.58371  1.0000
  C   C5        1.0  0.84621  0.17406  0.37560  1.0000
  C   C6        1.0  0.15379  0.82593  0.62440  1.0000
  C   C7        1.0  0.79666  0.09235  0.46383  1.0000
  C   C8        1.0  0.20334  0.90764  0.53617  1.0000
  C   C9        1.0  0.92119  0.14005  0.59083  1.0000
  C   C10       1.0  0.07882  0.85994  0.40917  1.0000
  C   C11       1.0  0.09270  0.26629  0.63370  1.0000
  C   C12       1.0  0.90731  0.73370  0.36631  1.0000
  C   C13       1.0  0.71960  0.11360  0.23571  1.0000
  C   C14       1.0  0.28040  0.88639  0.76429  1.0000
  C   C15       1.0  0.15642  0.23731  0.09594  1.0000
  C   C16       1.0  0.84357  0.76269  0.90406  1.0000
  C   C17       1.0  0.29179  0.16036  0.05656  1.0000
  C   C18       1.0  0.70821  0.83965  0.94344  1.0000
  C   C19       1.0  0.25487  0.50232  0.02948  1.0000
  C   C20       1.0  0.74514  0.49769  0.97052  1.0000
  N   N1        1.0  0.16716  0.51156  0.19882  1.0000
  N   N2        1.0  0.83284  0.48845  0.80118  1.0000
  N   N3        1.0  0.87778  0.04515  0.68108  1.0000
  N   N4        1.0  0.12223  0.95485  0.31892  1.0000
  N   N5        1.0  0.31457  0.48553  0.58903  1.0000
  N   N6        1.0  0.68543  0.51447  0.41096  1.0000
  N   N7        1.0  0.26419  0.65637  0.07683  1.0000
  N   N8        1.0  0.73581  0.34363  0.92318  1.0000
  N   N9        1.0  0.20914  0.65821  0.18190  1.0000
  N   N10       1.0  0.79086  0.34180  0.81809  1.0000
  N   N11       1.0  0.19552  0.41169  0.10390  1.0000
  N   N12       1.0  0.80449  0.58832  0.89610  1.0000
  O   O1        1.0  0.75218  0.20554  0.16288  1.0000
  O   O2        1.0  0.24782  0.79446  0.83712  1.0000
  O   O3        1.0  0.42517  0.50973  0.70006  1.0000
  O   O4        1.0  0.57483  0.49026  0.29993  1.0000
  O   O5        1.0  0.34197  0.56829  0.51324  1.0000
  O   O6        1.0  0.65803  0.43170  0.48676  1.0000
  O   O7        1.0  0.00395  0.07493  0.78684  1.0000
  O   O8        1.0  0.99606  0.92507  0.21316  1.0000
  O   O9        1.0  0.72201  0.93731  0.64398  1.0000
  O   O10       1.0  0.27799  0.06270  0.35603  1.0000
  O   O11       1.0  0.41736  0.24345  0.02170  1.0000
  O   O12       1.0  0.58264  0.75656  0.97830  1.0000
  O   O13       1.0  0.25885  0.01166  0.06177  1.0000
  O   O14       1.0  0.74115  0.98834  0.93823  1.0000
  O   O15       1.0  0.59330  0.97383  0.20392  1.0000
  O   O16       1.0  0.40669  0.02616  0.79608  1.0000
