data_image0
_chemical_formula_structural       CuH16C16Br2N4O2
_chemical_formula_sum              "Cu1 H16 C16 Br2 N4 O2"
_cell_length_a       7.59232
_cell_length_b       7.65226
_cell_length_c       8.12939
_cell_angle_alpha    67.1322
_cell_angle_beta     85.4318
_cell_angle_gamma    76.1837

_space_group_name_H-M_alt    "P 1"
_space_group_IT_number       1

loop_
  _space_group_symop_operation_xyz
  'x, y, z'

loop_
  _atom_site_type_symbol
  _atom_site_label
  _atom_site_symmetry_multiplicity
  _atom_site_fract_x
  _atom_site_fract_y
  _atom_site_fract_z
  _atom_site_occupancy
  Cu  Cu1       1.0  1.00000  0.00000  0.50000  1.0000
  H   H1        1.0  0.22484  0.28691  0.37572  1.0000
  H   H2        1.0  0.77516  0.71310  0.62428  1.0000
  H   H3        1.0  0.03815  0.26778  0.97479  1.0000
  H   H4        1.0  0.96185  0.73222  0.02521  1.0000
  H   H5        1.0  0.95269  0.05263  0.84056  1.0000
  H   H6        1.0  0.04731  0.94737  0.15944  1.0000
  H   H7        1.0  0.31824  0.51741  0.48672  1.0000
  H   H8        1.0  0.68175  0.48259  0.51329  1.0000
  H   H9        1.0  0.28524  0.81546  0.88881  1.0000
  H   H10       1.0  0.71476  0.18454  0.11118  1.0000
  H   H11       1.0  0.51527  0.76901  0.82391  1.0000
  H   H12       1.0  0.48474  0.23099  0.17608  1.0000
  H   H13       1.0  0.64277  0.42927  0.80710  1.0000
  H   H14       1.0  0.35723  0.57073  0.19289  1.0000
  H   H15       1.0  0.49146  0.27179  0.85768  1.0000
  H   H16       1.0  0.50855  0.72821  0.14231  1.0000
  C   C1        1.0  0.18723  0.28855  0.50713  1.0000
  C   C2        1.0  0.81276  0.71144  0.49287  1.0000
  C   C3        1.0  0.21150  0.56248  0.80172  1.0000
  C   C4        1.0  0.78849  0.43752  0.19828  1.0000
  C   C5        1.0  0.18523  0.40943  0.73945  1.0000
  C   C6        1.0  0.81477  0.59057  0.26055  1.0000
  C   C7        1.0  0.08352  0.27508  0.84188  1.0000
  C   C8        1.0  0.91648  0.72492  0.15812  1.0000
  C   C9        1.0  0.03658  0.15509  0.76932  1.0000
  C   C10       1.0  0.96342  0.84491  0.23068  1.0000
  C   C11       1.0  0.24031  0.41329  0.57033  1.0000
  C   C12       1.0  0.75969  0.58671  0.42967  1.0000
  C   C13       1.0  0.41055  0.70267  0.91121  1.0000
  C   C14       1.0  0.58946  0.29733  0.08879  1.0000
  C   C15       1.0  0.52936  0.38244  0.89293  1.0000
  C   C16       1.0  0.47064  0.61756  0.10706  1.0000
  Br  Br1       1.0  0.31398  0.91279  0.38879  1.0000
  Br  Br2       1.0  0.68601  0.08722  0.61120  1.0000
  N   N1        1.0  0.08553  0.16288  0.60380  1.0000
  N   N2        1.0  0.91447  0.83712  0.39620  1.0000
  N   N3        1.0  0.37707  0.55003  0.86035  1.0000
  N   N4        1.0  0.62294  0.44997  0.13965  1.0000
  O   O1        1.0  0.07715  0.69749  0.79344  1.0000
  O   O2        1.0  0.92285  0.30251  0.20656  1.0000
