data_image0
_chemical_formula_structural       Ag2H34C50N4O14
_chemical_formula_sum              "Ag2 H34 C50 N4 O14"
_cell_length_a       7.96569
_cell_length_b       10.9773
_cell_length_c       13.5766
_cell_angle_alpha    73.0944
_cell_angle_beta     73.204
_cell_angle_gamma    71.8192

_space_group_name_H-M_alt    "P 1"
_space_group_IT_number       1

loop_
  _space_group_symop_operation_xyz
  'x, y, z'

loop_
  _atom_site_type_symbol
  _atom_site_label
  _atom_site_symmetry_multiplicity
  _atom_site_fract_x
  _atom_site_fract_y
  _atom_site_fract_z
  _atom_site_occupancy
  Ag  Ag1       1.0  0.84651  0.40789  0.02622  1.0000
  Ag  Ag2       1.0  0.15349  0.59211  0.97378  1.0000
  H   H1        1.0  0.40013  0.70279  0.69979  1.0000
  H   H2        1.0  0.59986  0.29722  0.30021  1.0000
  H   H3        1.0  0.05793  0.53353  0.21955  1.0000
  H   H4        1.0  0.94207  0.46647  0.78045  1.0000
  H   H5        1.0  0.54952  0.54393  0.18206  1.0000
  H   H6        1.0  0.45048  0.45607  0.81794  1.0000
  H   H7        1.0  0.32173  0.75517  0.19078  1.0000
  H   H8        1.0  0.67827  0.24484  0.80922  1.0000
  H   H9        1.0  0.48095  0.86418  0.85011  1.0000
  H   H10       1.0  0.51905  0.13582  0.14989  1.0000
  H   H11       1.0  0.70501  0.65059  0.85638  1.0000
  H   H12       1.0  0.29499  0.34941  0.14362  1.0000
  H   H13       1.0  0.08298  0.91105  0.17654  1.0000
  H   H14       1.0  0.91702  0.08895  0.82346  1.0000
  H   H15       1.0  0.89713  0.13738  0.17447  1.0000
  H   H16       1.0  0.10287  0.86262  0.82553  1.0000
  H   H17       1.0  0.17806  0.27674  0.87354  1.0000
  H   H18       1.0  0.82193  0.72326  0.12646  1.0000
  H   H19       1.0  0.38788  0.05898  0.86592  1.0000
  H   H20       1.0  0.61212  0.94102  0.13407  1.0000
  H   H21       1.0  0.38293  0.13411  0.64204  1.0000
  H   H22       1.0  0.61708  0.86590  0.35796  1.0000
  H   H23       1.0  0.80740  0.77529  0.64152  1.0000
  H   H24       1.0  0.19259  0.22471  0.35848  1.0000
  H   H25       1.0  0.03419  0.89978  0.62514  1.0000
  H   H26       1.0  0.96582  0.10022  0.37486  1.0000
  H   H27       1.0  0.93526  0.13760  0.61913  1.0000
  H   H28       1.0  0.06474  0.86239  0.38087  1.0000
  H   H29       1.0  0.64484  0.49692  0.65511  1.0000
  H   H30       1.0  0.35516  0.50308  0.34489  1.0000
  H   H31       1.0  0.78887  0.65625  0.51143  1.0000
  H   H32       1.0  0.21113  0.34375  0.48857  1.0000
  H   H33       1.0  0.71959  0.26485  0.43260  1.0000
  H   H34       1.0  0.28041  0.73515  0.56740  1.0000
  C   C1        1.0  0.52880  0.61808  0.11038  1.0000
  C   C2        1.0  0.47120  0.38193  0.88962  1.0000
  C   C3        1.0  0.40125  0.73718  0.11427  1.0000
  C   C4        1.0  0.59875  0.26282  0.88573  1.0000
  C   C5        1.0  0.38163  0.83198  0.02062  1.0000
  C   C6        1.0  0.61837  0.16802  0.97938  1.0000
  C   C7        1.0  0.49042  0.79748  0.92633  1.0000
  C   C8        1.0  0.50958  0.20251  0.07367  1.0000
  C   C9        1.0  0.61572  0.67662  0.92857  1.0000
  C   C10       1.0  0.38428  0.32338  0.07143  1.0000
  C   C11       1.0  0.25671  0.96351  0.02142  1.0000
  C   C12       1.0  0.74330  0.03648  0.97859  1.0000
  C   C13       1.0  0.11387  0.98866  0.10799  1.0000
  C   C14       1.0  0.88613  0.01134  0.89201  1.0000
  C   C15       1.0  0.00511  0.11560  0.10658  1.0000
  C   C16       1.0  0.99490  0.88440  0.89342  1.0000
  C   C17       1.0  0.16324  0.19330  0.93934  1.0000
  C   C18       1.0  0.83676  0.80669  0.06066  1.0000
  C   C19       1.0  0.27944  0.07007  0.93565  1.0000
  C   C20       1.0  0.72055  0.92993  0.06435  1.0000
  C   C21       1.0  0.65440  0.14898  0.62987  1.0000
  C   C22       1.0  0.34561  0.85102  0.37013  1.0000
  C   C23       1.0  0.52558  0.08307  0.63856  1.0000
  C   C24       1.0  0.47442  0.91693  0.36145  1.0000
  C   C25       1.0  0.58289  0.94711  0.64324  1.0000
  C   C26       1.0  0.41711  0.05289  0.35676  1.0000
  C   C27       1.0  0.76574  0.88058  0.63762  1.0000
  C   C28       1.0  0.23426  0.11942  0.36238  1.0000
  C   C29       1.0  0.89192  0.94941  0.62805  1.0000
  C   C30       1.0  0.10808  0.05059  0.37195  1.0000
  C   C31       1.0  0.83719  0.08405  0.62437  1.0000
  C   C32       1.0  0.16281  0.91595  0.37563  1.0000
  C   C33       1.0  0.44344  0.87546  0.65882  1.0000
  C   C34       1.0  0.55656  0.12454  0.34118  1.0000
  C   C35       1.0  0.67963  0.36816  0.55304  1.0000
  C   C36       1.0  0.32037  0.63184  0.44696  1.0000
  C   C37       1.0  0.69350  0.48058  0.57533  1.0000
  C   C38       1.0  0.30650  0.51943  0.42467  1.0000
  C   C39       1.0  0.77535  0.56885  0.49498  1.0000
  C   C40       1.0  0.22465  0.43115  0.50502  1.0000
  C   C41       1.0  0.84661  0.54899  0.39169  1.0000
  C   C42       1.0  0.15339  0.45101  0.60831  1.0000
  C   C43       1.0  0.82147  0.43833  0.36874  1.0000
  C   C44       1.0  0.17853  0.56167  0.63126  1.0000
  C   C45       1.0  0.73890  0.34950  0.45017  1.0000
  C   C46       1.0  0.26109  0.65050  0.54983  1.0000
  C   C47       1.0  0.94432  0.64999  0.31901  1.0000
  C   C48       1.0  0.05568  0.35001  0.68099  1.0000
  C   C49       1.0  0.86578  0.41039  0.26041  1.0000
  C   C50       1.0  0.13422  0.58961  0.73959  1.0000
  N   N1        1.0  0.63759  0.58787  0.01950  1.0000
  N   N2        1.0  0.36242  0.41213  0.98050  1.0000
  N   N3        1.0  0.02793  0.21703  0.02339  1.0000
  N   N4        1.0  0.97207  0.78297  0.97661  1.0000
  O   O1        1.0  0.50795  0.74414  0.67719  1.0000
  O   O2        1.0  0.49205  0.25587  0.32281  1.0000
  O   O3        1.0  0.28287  0.93049  0.65889  1.0000
  O   O4        1.0  0.71713  0.06952  0.34112  1.0000
  O   O5        1.0  0.59662  0.28222  0.63370  1.0000
  O   O6        1.0  0.40338  0.71777  0.36630  1.0000
  O   O7        1.0  0.76239  0.35828  0.23950  1.0000
  O   O8        1.0  0.23761  0.64172  0.76050  1.0000
  O   O9        1.0  0.00413  0.43953  0.19207  1.0000
  O   O10       1.0  0.99587  0.56047  0.80793  1.0000
  O   O11       1.0  0.06998  0.61880  0.23505  1.0000
  O   O12       1.0  0.93002  0.38120  0.76495  1.0000
  O   O13       1.0  0.91552  0.75841  0.33908  1.0000
  O   O14       1.0  0.08448  0.24159  0.66092  1.0000
