data_image0
_chemical_formula_structural       Mn2H32C30N12O10
_chemical_formula_sum              "Mn2 H32 C30 N12 O10"
_cell_length_a       10.2797
_cell_length_b       10.2407
_cell_length_c       10.8795
_cell_angle_alpha    78.9523
_cell_angle_beta     62.4994
_cell_angle_gamma    64.5744

_space_group_name_H-M_alt    "P 1"
_space_group_IT_number       1

loop_
  _space_group_symop_operation_xyz
  'x, y, z'

loop_
  _atom_site_type_symbol
  _atom_site_label
  _atom_site_symmetry_multiplicity
  _atom_site_fract_x
  _atom_site_fract_y
  _atom_site_fract_z
  _atom_site_occupancy
  Mn  Mn1       1.0  0.03056  0.58984  0.20396  1.0000
  Mn  Mn2       1.0  0.96944  0.41016  0.79604  1.0000
  H   H1        1.0  0.87267  0.12528  0.82874  1.0000
  H   H2        1.0  0.12733  0.87472  0.17126  1.0000
  H   H3        1.0  0.72878  0.04924  0.91152  1.0000
  H   H4        1.0  0.27122  0.95076  0.08848  1.0000
  H   H5        1.0  0.82018  0.08040  0.65320  1.0000
  H   H6        1.0  0.17982  0.91960  0.34681  1.0000
  H   H7        1.0  0.01411  0.95200  0.62712  1.0000
  H   H8        1.0  0.98589  0.04800  0.37288  1.0000
  H   H9        1.0  0.90933  0.75770  0.73125  1.0000
  H   H10       1.0  0.09067  0.24230  0.26875  1.0000
  H   H11       1.0  0.71047  0.88721  0.77964  1.0000
  H   H12       1.0  0.28954  0.11279  0.22036  1.0000
  H   H13       1.0  0.27438  0.73766  0.93014  1.0000
  H   H14       1.0  0.72562  0.26234  0.06986  1.0000
  H   H15       1.0  0.79030  0.82888  0.06399  1.0000
  H   H16       1.0  0.20971  0.17112  0.93601  1.0000
  H   H17       1.0  0.73299  0.93848  0.32973  1.0000
  H   H18       1.0  0.26701  0.06152  0.67027  1.0000
  H   H19       1.0  0.03680  0.63257  0.50105  1.0000
  H   H20       1.0  0.96320  0.36744  0.49895  1.0000
  H   H21       1.0  0.54800  0.61548  0.20246  1.0000
  H   H22       1.0  0.45200  0.38452  0.79754  1.0000
  H   H23       1.0  0.74321  0.28388  0.45151  1.0000
  H   H24       1.0  0.25680  0.71612  0.54848  1.0000
  H   H25       1.0  0.54118  0.18453  0.50295  1.0000
  H   H26       1.0  0.45883  0.81546  0.49705  1.0000
  H   H27       1.0  0.34480  0.30137  0.39911  1.0000
  H   H28       1.0  0.65520  0.69863  0.60090  1.0000
  H   H29       1.0  0.19922  0.40431  0.95375  1.0000
  H   H30       1.0  0.80079  0.59569  0.04625  1.0000
  H   H31       1.0  0.29023  0.38161  0.04734  1.0000
  H   H32       1.0  0.70978  0.61839  0.95265  1.0000
  C   C1        1.0  0.85355  0.02591  0.83767  1.0000
  C   C2        1.0  0.14645  0.97409  0.16233  1.0000
  C   C3        1.0  0.88654  0.98313  0.69622  1.0000
  C   C4        1.0  0.11346  0.01687  0.30378  1.0000
  C   C5        1.0  0.83486  0.86141  0.70313  1.0000
  C   C6        1.0  0.16514  0.13859  0.29686  1.0000
  C   C7        1.0  0.15425  0.78597  0.93744  1.0000
  C   C8        1.0  0.84575  0.21403  0.06256  1.0000
  C   C9        1.0  0.90865  0.82955  0.00833  1.0000
  C   C10       1.0  0.09135  0.17045  0.99167  1.0000
  C   C11       1.0  0.78808  0.88332  0.39956  1.0000
  C   C12       1.0  0.21192  0.11668  0.60044  1.0000
  C   C13       1.0  0.94558  0.72655  0.48187  1.0000
  C   C14       1.0  0.05442  0.27346  0.51812  1.0000
  C   C15       1.0  0.43631  0.46422  0.29298  1.0000
  C   C16       1.0  0.56369  0.53577  0.70702  1.0000
  C   C17       1.0  0.54938  0.51944  0.26624  1.0000
  C   C18       1.0  0.45062  0.48056  0.73376  1.0000
  C   C19       1.0  0.66126  0.45392  0.32176  1.0000
  C   C20       1.0  0.33874  0.54608  0.67824  1.0000
  C   C21       1.0  0.65664  0.33363  0.40779  1.0000
  C   C22       1.0  0.34336  0.66637  0.59221  1.0000
  C   C23       1.0  0.54306  0.27845  0.43619  1.0000
  C   C24       1.0  0.45694  0.72155  0.56380  1.0000
  C   C25       1.0  0.43415  0.34287  0.37835  1.0000
  C   C26       1.0  0.56585  0.65713  0.62165  1.0000
  C   C27       1.0  0.31871  0.53518  0.23064  1.0000
  C   C28       1.0  0.68129  0.46481  0.76936  1.0000
  C   C29       1.0  0.78647  0.50937  0.28567  1.0000
  C   C30       1.0  0.21353  0.49063  0.71433  1.0000
  N   N1        1.0  0.95168  0.91540  0.90074  1.0000
  N   N2        1.0  0.04832  0.08460  0.09926  1.0000
  N   N3        1.0  0.10870  0.88954  0.85415  1.0000
  N   N4        1.0  0.89130  0.11046  0.14585  1.0000
  N   N5        1.0  0.03449  0.74564  0.03481  1.0000
  N   N6        1.0  0.96551  0.25436  0.96519  1.0000
  N   N7        1.0  0.84457  0.83899  0.57036  1.0000
  N   N8        1.0  0.15543  0.16101  0.42964  1.0000
  N   N9        1.0  0.74267  0.94061  0.51960  1.0000
  N   N10       1.0  0.25732  0.05939  0.48039  1.0000
  N   N11       1.0  0.91280  0.75140  0.37168  1.0000
  N   N12       1.0  0.08720  0.24861  0.62832  1.0000
  O   O1        1.0  0.21734  0.47687  0.26248  1.0000
  O   O2        1.0  0.78266  0.52312  0.73752  1.0000
  O   O3        1.0  0.32247  0.64349  0.15413  1.0000
  O   O4        1.0  0.67753  0.35650  0.84587  1.0000
  O   O5        1.0  0.80072  0.60808  0.19264  1.0000
  O   O6        1.0  0.19928  0.39192  0.80736  1.0000
  O   O7        1.0  0.88186  0.45836  0.34267  1.0000
  O   O8        1.0  0.11814  0.54164  0.65732  1.0000
  O   O9        1.0  0.18678  0.40116  0.05167  1.0000
  O   O10       1.0  0.81323  0.59884  0.94833  1.0000
