data_image0
_chemical_formula_structural       Cu2H24C40N4O8
_chemical_formula_sum              "Cu2 H24 C40 N4 O8"
_cell_length_a       5.39996
_cell_length_b       11.3032
_cell_length_c       14.454
_cell_angle_alpha    89.9993
_cell_angle_beta     87.2604
_cell_angle_gamma    90.0023

_space_group_name_H-M_alt    "P 1"
_space_group_IT_number       1

loop_
  _space_group_symop_operation_xyz
  'x, y, z'

loop_
  _atom_site_type_symbol
  _atom_site_label
  _atom_site_symmetry_multiplicity
  _atom_site_fract_x
  _atom_site_fract_y
  _atom_site_fract_z
  _atom_site_occupancy
  Cu  Cu1       1.0  1.00000  0.50000  0.00000  1.0000
  Cu  Cu2       1.0  0.00000  1.00000  0.50000  1.0000
  H   H1        1.0  0.70879  0.70556  0.01763  1.0000
  H   H2        1.0  0.29121  0.20557  0.48238  1.0000
  H   H3        1.0  0.29119  0.29444  0.98237  1.0000
  H   H4        1.0  0.70882  0.79443  0.51762  1.0000
  H   H5        1.0  0.63598  0.87490  0.12712  1.0000
  H   H6        1.0  0.36400  0.37490  0.37289  1.0000
  H   H7        1.0  0.36403  0.12510  0.87288  1.0000
  H   H8        1.0  0.63600  0.62510  0.62711  1.0000
  H   H9        1.0  0.88309  0.88723  0.26857  1.0000
  H   H10       1.0  0.11693  0.38723  0.23144  1.0000
  H   H11       1.0  0.11693  0.11277  0.73143  1.0000
  H   H12       1.0  0.88308  0.61277  0.76856  1.0000
  H   H13       1.0  0.37623  0.49583  0.11649  1.0000
  H   H14       1.0  0.62377  0.99583  0.38351  1.0000
  H   H15       1.0  0.62376  0.50416  0.88351  1.0000
  H   H16       1.0  0.37623  0.00417  0.61649  1.0000
  H   H17       1.0  0.64107  0.50308  0.25132  1.0000
  H   H18       1.0  0.35895  0.00309  0.24868  1.0000
  H   H19       1.0  0.35894  0.49692  0.74867  1.0000
  H   H20       1.0  0.64105  0.99691  0.75132  1.0000
  H   H21       1.0  0.56590  0.65587  0.37462  1.0000
  H   H22       1.0  0.43409  0.15587  0.12539  1.0000
  H   H23       1.0  0.43411  0.34413  0.62538  1.0000
  H   H24       1.0  0.56590  0.84413  0.87462  1.0000
  C   C1        1.0  0.82223  0.71652  0.07757  1.0000
  C   C2        1.0  0.17778  0.21653  0.42243  1.0000
  C   C3        1.0  0.17777  0.28348  0.92243  1.0000
  C   C4        1.0  0.82223  0.78347  0.57756  1.0000
  C   C5        1.0  0.78101  0.81076  0.13983  1.0000
  C   C6        1.0  0.21899  0.31077  0.36017  1.0000
  C   C7        1.0  0.21899  0.18924  0.86017  1.0000
  C   C8        1.0  0.78103  0.68924  0.63982  1.0000
  C   C9        1.0  0.91778  0.81818  0.21742  1.0000
  C   C10       1.0  0.08224  0.31819  0.28259  1.0000
  C   C11       1.0  0.08223  0.18182  0.78258  1.0000
  C   C12       1.0  0.91776  0.68181  0.71741  1.0000
  C   C13       1.0  0.10554  0.73361  0.23291  1.0000
  C   C14       1.0  0.89448  0.23361  0.26710  1.0000
  C   C15       1.0  0.89445  0.26639  0.76709  1.0000
  C   C16       1.0  0.10552  0.76639  0.73290  1.0000
  C   C17       1.0  0.14533  0.64308  0.16390  1.0000
  C   C18       1.0  0.85467  0.14309  0.33610  1.0000
  C   C19       1.0  0.85467  0.35691  0.83611  1.0000
  C   C20       1.0  0.14533  0.85691  0.66390  1.0000
  C   C21       1.0  0.34142  0.56126  0.17100  1.0000
  C   C22       1.0  0.65858  0.06126  0.32900  1.0000
  C   C23       1.0  0.65859  0.43873  0.82900  1.0000
  C   C24       1.0  0.34141  0.93874  0.67100  1.0000
  C   C25       1.0  0.48844  0.56566  0.24640  1.0000
  C   C26       1.0  0.51155  0.06567  0.25360  1.0000
  C   C27       1.0  0.51156  0.43433  0.75360  1.0000
  C   C28       1.0  0.48845  0.93433  0.74640  1.0000
  C   C29       1.0  0.44697  0.65162  0.31589  1.0000
  C   C30       1.0  0.55304  0.15162  0.18411  1.0000
  C   C31       1.0  0.55303  0.34838  0.68411  1.0000
  C   C32       1.0  0.44696  0.84838  0.81589  1.0000
  C   C33       1.0  0.26051  0.73546  0.31083  1.0000
  C   C34       1.0  0.73949  0.23545  0.18919  1.0000
  C   C35       1.0  0.73947  0.26454  0.68917  1.0000
  C   C36       1.0  0.26050  0.76455  0.81081  1.0000
  C   C37       1.0  0.24079  0.82607  0.38839  1.0000
  C   C38       1.0  0.75923  0.32606  0.11164  1.0000
  C   C39       1.0  0.75921  0.17392  0.61161  1.0000
  C   C40       1.0  0.24076  0.67394  0.88838  1.0000
  N   N1        1.0  0.99633  0.63562  0.08959  1.0000
  N   N2        1.0  0.00367  0.13565  0.41040  1.0000
  N   N3        1.0  0.00366  0.36438  0.91042  1.0000
  N   N4        1.0  0.99634  0.86436  0.58959  1.0000
  O   O1        1.0  0.03704  0.88692  0.39581  1.0000
  O   O2        1.0  0.96291  0.38693  0.10418  1.0000
  O   O3        1.0  0.96296  0.11308  0.60419  1.0000
  O   O4        1.0  0.03707  0.61307  0.89581  1.0000
  O   O5        1.0  0.41757  0.83769  0.44028  1.0000
  O   O6        1.0  0.58243  0.33772  0.05973  1.0000
  O   O7        1.0  0.58242  0.16230  0.55973  1.0000
  O   O8        1.0  0.41757  0.66229  0.94027  1.0000
