data_image0
_chemical_formula_structural       Cu4P4H20C20O16
_chemical_formula_sum              "Cu4 P4 H20 C20 O16"
_cell_length_a       7.63458
_cell_length_b       7.45407
_cell_length_c       11.6453
_cell_angle_alpha    89.9999
_cell_angle_beta     103.259
_cell_angle_gamma    89.9999

_space_group_name_H-M_alt    "P 1"
_space_group_IT_number       1

loop_
  _space_group_symop_operation_xyz
  'x, y, z'

loop_
  _atom_site_type_symbol
  _atom_site_label
  _atom_site_symmetry_multiplicity
  _atom_site_fract_x
  _atom_site_fract_y
  _atom_site_fract_z
  _atom_site_occupancy
  Cu  Cu1       1.0  0.41815  0.30954  0.47359  1.0000
  Cu  Cu2       1.0  0.08185  0.80955  0.52641  1.0000
  Cu  Cu3       1.0  0.58185  0.69045  0.52641  1.0000
  Cu  Cu4       1.0  0.91815  0.19045  0.47359  1.0000
  P   P1        1.0  0.30549  0.95096  0.35827  1.0000
  P   P2        1.0  0.19451  0.45096  0.64172  1.0000
  P   P3        1.0  0.69450  0.04904  0.64172  1.0000
  P   P4        1.0  0.80549  0.54904  0.35828  1.0000
  H   H1        1.0  0.99833  0.14453  0.21989  1.0000
  H   H2        1.0  0.50167  0.64453  0.78011  1.0000
  H   H3        1.0  0.00167  0.85547  0.78011  1.0000
  H   H4        1.0  0.49833  0.35547  0.21989  1.0000
  H   H5        1.0  0.37602  0.74219  0.16086  1.0000
  H   H6        1.0  0.12398  0.24219  0.83914  1.0000
  H   H7        1.0  0.62398  0.25781  0.83914  1.0000
  H   H8        1.0  0.87602  0.75781  0.16086  1.0000
  H   H9        1.0  0.23046  0.73934  0.94718  1.0000
  H   H10       1.0  0.26954  0.23935  0.05282  1.0000
  H   H11       1.0  0.76954  0.26065  0.05282  1.0000
  H   H12       1.0  0.73047  0.76065  0.94718  1.0000
  H   H13       1.0  0.13906  0.42397  0.34366  1.0000
  H   H14       1.0  0.36094  0.92397  0.65634  1.0000
  H   H15       1.0  0.86094  0.57603  0.65634  1.0000
  H   H16       1.0  0.63907  0.07603  0.34366  1.0000
  H   H17       1.0  0.30253  0.55874  0.34313  1.0000
  H   H18       1.0  0.19747  0.05874  0.65687  1.0000
  H   H19       1.0  0.69747  0.44126  0.65687  1.0000
  H   H20       1.0  0.80253  0.94126  0.34314  1.0000
  C   C1        1.0  0.05172  0.05758  0.16088  1.0000
  C   C2        1.0  0.44829  0.55759  0.83912  1.0000
  C   C3        1.0  0.94828  0.94242  0.83911  1.0000
  C   C4        1.0  0.55172  0.44242  0.16089  1.0000
  C   C5        1.0  0.19691  0.94544  0.20378  1.0000
  C   C6        1.0  0.30309  0.44545  0.79622  1.0000
  C   C7        1.0  0.80309  0.05456  0.79621  1.0000
  C   C8        1.0  0.69691  0.55456  0.20379  1.0000
  C   C9        1.0  0.26244  0.83016  0.12582  1.0000
  C   C10       1.0  0.23755  0.33017  0.87419  1.0000
  C   C11       1.0  0.73755  0.16983  0.87418  1.0000
  C   C12       1.0  0.76245  0.66983  0.12582  1.0000
  C   C13       1.0  0.18150  0.82804  0.00730  1.0000
  C   C14       1.0  0.31849  0.32804  0.99270  1.0000
  C   C15       1.0  0.81849  0.17196  0.99270  1.0000
  C   C16       1.0  0.68151  0.67196  0.00730  1.0000
  C   C17       1.0  0.03300  0.94144  0.96085  1.0000
  C   C18       1.0  0.46700  0.44144  0.03914  1.0000
  C   C19       1.0  0.96700  0.05856  0.03914  1.0000
  C   C20       1.0  0.53300  0.55856  0.96085  1.0000
  O   O1        1.0  0.44849  0.10328  0.37673  1.0000
  O   O2        1.0  0.05151  0.60329  0.62327  1.0000
  O   O3        1.0  0.55151  0.89671  0.62327  1.0000
  O   O4        1.0  0.94849  0.39671  0.37673  1.0000
  O   O5        1.0  0.16397  0.99453  0.43007  1.0000
  O   O6        1.0  0.33603  0.49454  0.56993  1.0000
  O   O7        1.0  0.83603  0.00546  0.56993  1.0000
  O   O8        1.0  0.66397  0.50547  0.43007  1.0000
  O   O9        1.0  0.39761  0.76627  0.38657  1.0000
  O   O10       1.0  0.10239  0.26627  0.61343  1.0000
  O   O11       1.0  0.60239  0.23373  0.61343  1.0000
  O   O12       1.0  0.89761  0.73373  0.38657  1.0000
  O   O13       1.0  0.26585  0.43011  0.33170  1.0000
  O   O14       1.0  0.23415  0.93011  0.66829  1.0000
  O   O15       1.0  0.73415  0.56989  0.66830  1.0000
  O   O16       1.0  0.76585  0.06988  0.33171  1.0000
