data_image0
_chemical_formula_structural       Zn2H54C38N2O18
_chemical_formula_sum              "Zn2 H54 C38 N2 O18"
_cell_length_a       10.4267
_cell_length_b       10.8756
_cell_length_c       10.8805
_cell_angle_alpha    85.2321
_cell_angle_beta     74.9911
_cell_angle_gamma    67.6283

_space_group_name_H-M_alt    "P 1"
_space_group_IT_number       1

loop_
  _space_group_symop_operation_xyz
  'x, y, z'

loop_
  _atom_site_type_symbol
  _atom_site_label
  _atom_site_symmetry_multiplicity
  _atom_site_fract_x
  _atom_site_fract_y
  _atom_site_fract_z
  _atom_site_occupancy
  Zn  Zn1       1.0  0.15492  0.44741  0.96312  1.0000
  Zn  Zn2       1.0  0.84508  0.55259  0.03688  1.0000
  H   H1        1.0  0.94340  0.87527  0.19687  1.0000
  H   H2        1.0  0.05660  0.12473  0.80313  1.0000
  H   H3        1.0  0.20501  0.93390  0.66603  1.0000
  H   H4        1.0  0.79499  0.06610  0.33397  1.0000
  H   H5        1.0  0.04029  0.02072  0.62161  1.0000
  H   H6        1.0  0.95971  0.97928  0.37839  1.0000
  H   H7        1.0  0.05131  0.80386  0.54390  1.0000
  H   H8        1.0  0.94869  0.19614  0.45610  1.0000
  H   H9        1.0  0.20129  0.84307  0.46245  1.0000
  H   H10       1.0  0.79871  0.15693  0.53755  1.0000
  H   H11       1.0  0.19418  0.65200  0.68720  1.0000
  H   H12       1.0  0.80582  0.34800  0.31280  1.0000
  H   H13       1.0  0.26608  0.60180  0.52382  1.0000
  H   H14       1.0  0.73392  0.39820  0.47618  1.0000
  H   H15       1.0  0.48736  0.48366  0.61421  1.0000
  H   H16       1.0  0.51264  0.51634  0.38578  1.0000
  H   H17       1.0  0.39846  0.57420  0.76127  1.0000
  H   H18       1.0  0.60154  0.42580  0.23873  1.0000
  H   H19       1.0  0.55721  0.59387  0.66322  1.0000
  H   H20       1.0  0.44279  0.40613  0.33678  1.0000
  H   H21       1.0  0.83472  0.69149  0.64390  1.0000
  H   H22       1.0  0.16528  0.30851  0.35610  1.0000
  H   H23       1.0  0.31894  0.33213  0.60925  1.0000
  H   H24       1.0  0.68106  0.66787  0.39075  1.0000
  H   H25       1.0  0.36773  0.21377  0.48367  1.0000
  H   H26       1.0  0.63227  0.78623  0.51633  1.0000
  H   H27       1.0  0.30523  0.15783  0.77070  1.0000
  H   H28       1.0  0.69477  0.84217  0.22930  1.0000
  H   H29       1.0  0.35843  0.03761  0.64748  1.0000
  H   H30       1.0  0.64157  0.96239  0.35252  1.0000
  H   H31       1.0  0.59125  0.07149  0.56667  1.0000
  H   H32       1.0  0.40875  0.92851  0.43333  1.0000
  H   H33       1.0  0.53729  0.19138  0.69060  1.0000
  H   H34       1.0  0.46271  0.80862  0.30940  1.0000
  H   H35       1.0  0.78923  0.93052  0.64972  1.0000
  H   H36       1.0  0.21077  0.06948  0.35028  1.0000
  H   H37       1.0  0.75183  0.88578  0.81399  1.0000
  H   H38       1.0  0.24817  0.11422  0.18601  1.0000
  H   H39       1.0  0.73809  0.05212  0.77259  1.0000
  H   H40       1.0  0.26191  0.94788  0.22741  1.0000
  H   H41       1.0  0.38066  0.23909  0.05342  1.0000
  H   H42       1.0  0.61934  0.76091  0.94658  1.0000
  H   H43       1.0  0.74461  0.25767  0.82845  1.0000
  H   H44       1.0  0.25539  0.74233  0.17155  1.0000
  H   H45       1.0  0.70728  0.36982  0.95432  1.0000
  H   H46       1.0  0.29272  0.63018  0.04568  1.0000
  H   H47       1.0  0.58951  0.40877  0.84935  1.0000
  H   H48       1.0  0.41049  0.59123  0.15065  1.0000
  H   H49       1.0  0.56401  0.11902  0.12316  1.0000
  H   H50       1.0  0.43599  0.88098  0.87684  1.0000
  H   H51       1.0  0.67873  0.20534  0.12938  1.0000
  H   H52       1.0  0.32127  0.79466  0.87062  1.0000
  H   H53       1.0  0.73260  0.08106  0.00959  1.0000
  H   H54       1.0  0.26740  0.91893  0.99041  1.0000
  C   C1        1.0  0.98309  0.74443  0.98282  1.0000
  C   C2        1.0  0.01691  0.25557  0.01718  1.0000
  C   C3        1.0  0.96768  0.93115  0.11193  1.0000
  C   C4        1.0  0.03232  0.06885  0.88807  1.0000
  C   C5        1.0  0.98777  0.87891  0.99230  1.0000
  C   C6        1.0  0.01223  0.12109  0.00770  1.0000
  C   C7        1.0  0.01935  0.94669  0.88035  1.0000
  C   C8        1.0  0.98065  0.05331  0.11965  1.0000
  C   C9        1.0  0.10848  0.92391  0.65212  1.0000
  C   C10       1.0  0.89152  0.07610  0.34788  1.0000
  C   C11       1.0  0.14871  0.81410  0.55527  1.0000
  C   C12       1.0  0.85129  0.18589  0.44473  1.0000
  C   C13       1.0  0.24574  0.68002  0.59319  1.0000
  C   C14       1.0  0.75426  0.31998  0.40681  1.0000
  C   C15       1.0  0.45879  0.57928  0.66268  1.0000
  C   C16       1.0  0.54121  0.42072  0.33732  1.0000
  C   C17       1.0  0.98742  0.49169  0.76797  1.0000
  C   C18       1.0  0.01258  0.50831  0.23203  1.0000
  C   C19       1.0  0.90597  0.60749  0.58027  1.0000
  C   C20       1.0  0.09403  0.39251  0.41973  1.0000
  C   C21       1.0  0.99117  0.49166  0.63022  1.0000
  C   C22       1.0  0.00883  0.50834  0.36978  1.0000
  C   C23       1.0  0.08475  0.38239  0.54982  1.0000
  C   C24       1.0  0.91525  0.61761  0.45018  1.0000
  C   C25       1.0  0.31027  0.24006  0.58421  1.0000
  C   C26       1.0  0.68973  0.75994  0.41579  1.0000
  C   C27       1.0  0.36868  0.12898  0.67248  1.0000
  C   C28       1.0  0.63132  0.87102  0.32752  1.0000
  C   C29       1.0  0.52476  0.10093  0.66471  1.0000
  C   C30       1.0  0.47524  0.89907  0.33529  1.0000
  C   C31       1.0  0.72048  0.96496  0.74593  1.0000
  C   C32       1.0  0.27952  0.03504  0.25407  1.0000
  C   C33       1.0  0.43528  0.29479  0.98515  1.0000
  C   C34       1.0  0.56472  0.70521  0.01485  1.0000
  C   C35       1.0  0.65814  0.32937  0.89852  1.0000
  C   C36       1.0  0.34186  0.67063  0.10148  1.0000
  C   C37       1.0  0.64052  0.16104  0.06621  1.0000
  C   C38       1.0  0.35948  0.83896  0.93379  1.0000
  N   N1        1.0  0.57216  0.26261  0.98250  1.0000
  N   N2        1.0  0.42784  0.73739  0.01750  1.0000
  O   O1        1.0  0.10404  0.64923  0.95428  1.0000
  O   O2        1.0  0.89596  0.35077  0.04572  1.0000
  O   O3        1.0  0.86045  0.73716  0.00678  1.0000
  O   O4        1.0  0.13955  0.26283  0.99322  1.0000
  O   O5        1.0  0.03314  0.88589  0.76976  1.0000
  O   O6        1.0  0.96686  0.11411  0.23024  1.0000
  O   O7        1.0  0.37796  0.68900  0.59794  1.0000
  O   O8        1.0  0.62204  0.31100  0.40206  1.0000
  O   O9        1.0  0.10866  0.44904  0.79433  1.0000
  O   O10       1.0  0.89134  0.55096  0.20567  1.0000
  O   O11       1.0  0.86507  0.53830  0.84542  1.0000
  O   O12       1.0  0.13493  0.46170  0.15458  1.0000
  O   O13       1.0  0.15998  0.26397  0.60028  1.0000
  O   O14       1.0  0.84002  0.73603  0.39972  1.0000
  O   O15       1.0  0.57402  0.99637  0.75004  1.0000
  O   O16       1.0  0.42597  0.00363  0.24996  1.0000
  O   O17       1.0  0.37018  0.38264  0.91537  1.0000
  O   O18       1.0  0.62983  0.61736  0.08463  1.0000
