data_image0
_chemical_formula_structural       Ga4P8H44C40N8O32
_chemical_formula_sum              "Ga4 P8 H44 C40 N8 O32"
_cell_length_a       8.39345
_cell_length_b       10.9148
_cell_length_c       15.8253
_cell_angle_alpha    90
_cell_angle_beta     90
_cell_angle_gamma    108.889

_space_group_name_H-M_alt    "P 1"
_space_group_IT_number       1

loop_
  _space_group_symop_operation_xyz
  'x, y, z'

loop_
  _atom_site_type_symbol
  _atom_site_label
  _atom_site_symmetry_multiplicity
  _atom_site_fract_x
  _atom_site_fract_y
  _atom_site_fract_z
  _atom_site_occupancy
  Ga  Ga1       1.0  0.54466  0.67059  0.38699  1.0000
  Ga  Ga2       1.0  0.04466  0.67059  0.11301  1.0000
  Ga  Ga3       1.0  0.45534  0.32941  0.61301  1.0000
  Ga  Ga4       1.0  0.95534  0.32941  0.88699  1.0000
  P   P1        1.0  0.62834  0.64702  0.58373  1.0000
  P   P2        1.0  0.12834  0.64702  0.91627  1.0000
  P   P3        1.0  0.37166  0.35298  0.41627  1.0000
  P   P4        1.0  0.87166  0.35298  0.08373  1.0000
  P   P5        1.0  0.31565  0.56221  0.21237  1.0000
  P   P6        1.0  0.81565  0.56221  0.28763  1.0000
  P   P7        1.0  0.68435  0.43779  0.78763  1.0000
  P   P8        1.0  0.18435  0.43779  0.71237  1.0000
  H   H1        1.0  0.43024  0.62665  0.68263  1.0000
  H   H2        1.0  0.93024  0.62665  0.81737  1.0000
  H   H3        1.0  0.56976  0.37335  0.31737  1.0000
  H   H4        1.0  0.06976  0.37335  0.18263  1.0000
  H   H5        1.0  0.80913  0.64356  0.68051  1.0000
  H   H6        1.0  0.30913  0.64356  0.81949  1.0000
  H   H7        1.0  0.19087  0.35644  0.31949  1.0000
  H   H8        1.0  0.69087  0.35644  0.18051  1.0000
  H   H9        1.0  0.51995  0.48338  0.19112  1.0000
  H   H10       1.0  0.01996  0.48338  0.30888  1.0000
  H   H11       1.0  0.48004  0.51663  0.80888  1.0000
  H   H12       1.0  0.98004  0.51662  0.69112  1.0000
  H   H13       1.0  0.87345  0.85244  0.31083  1.0000
  H   H14       1.0  0.37345  0.85245  0.18917  1.0000
  H   H15       1.0  0.12655  0.14756  0.68917  1.0000
  H   H16       1.0  0.62655  0.14756  0.81083  1.0000
  H   H17       1.0  0.00376  0.09435  0.29043  1.0000
  H   H18       1.0  0.50376  0.09435  0.20957  1.0000
  H   H19       1.0  0.99624  0.90565  0.70957  1.0000
  H   H20       1.0  0.49624  0.90565  0.79043  1.0000
  H   H21       1.0  0.82919  0.23665  0.32643  1.0000
  H   H22       1.0  0.32919  0.23666  0.17357  1.0000
  H   H23       1.0  0.17081  0.76335  0.67357  1.0000
  H   H24       1.0  0.67081  0.76334  0.82643  1.0000
  H   H25       1.0  0.54191  0.13663  0.38089  1.0000
  H   H26       1.0  0.04191  0.13663  0.11911  1.0000
  H   H27       1.0  0.45809  0.86337  0.61911  1.0000
  H   H28       1.0  0.95809  0.86337  0.88089  1.0000
  H   H29       1.0  0.28868  0.03393  0.41154  1.0000
  H   H30       1.0  0.78868  0.03393  0.08846  1.0000
  H   H31       1.0  0.71132  0.96607  0.58846  1.0000
  H   H32       1.0  0.21132  0.96607  0.91154  1.0000
  H   H33       1.0  0.00837  0.89907  0.46885  1.0000
  H   H34       1.0  0.50837  0.89907  0.03115  1.0000
  H   H35       1.0  0.99163  0.10092  0.53116  1.0000
  H   H36       1.0  0.49163  0.10093  0.96884  1.0000
  H   H37       1.0  0.95834  0.66670  0.50082  1.0000
  H   H38       1.0  0.45834  0.66670  0.99918  1.0000
  H   H39       1.0  0.04166  0.33330  0.49918  1.0000
  H   H40       1.0  0.54166  0.33330  0.00082  1.0000
  H   H41       1.0  0.19246  0.57352  0.47306  1.0000
  H   H42       1.0  0.69245  0.57352  0.02694  1.0000
  H   H43       1.0  0.80755  0.42648  0.52694  1.0000
  H   H44       1.0  0.30755  0.42648  0.97306  1.0000
  C   C1        1.0  0.80624  0.92008  0.32583  1.0000
  C   C2        1.0  0.30624  0.92008  0.17417  1.0000
  C   C3        1.0  0.19376  0.07992  0.67417  1.0000
  C   C4        1.0  0.69376  0.07992  0.82583  1.0000
  C   C5        1.0  0.87567  0.05315  0.31365  1.0000
  C   C6        1.0  0.37567  0.05315  0.18635  1.0000
  C   C7        1.0  0.12433  0.94685  0.68635  1.0000
  C   C8        1.0  0.62433  0.94685  0.81365  1.0000
  C   C9        1.0  0.77924  0.13183  0.33384  1.0000
  C   C10       1.0  0.27924  0.13183  0.16616  1.0000
  C   C11       1.0  0.22076  0.86817  0.66616  1.0000
  C   C12       1.0  0.72076  0.86817  0.83384  1.0000
  C   C13       1.0  0.61691  0.07522  0.36515  1.0000
  C   C14       1.0  0.11691  0.07523  0.13485  1.0000
  C   C15       1.0  0.38309  0.92477  0.63485  1.0000
  C   C16       1.0  0.88309  0.92478  0.86515  1.0000
  C   C17       1.0  0.55528  0.94133  0.37666  1.0000
  C   C18       1.0  0.05527  0.94133  0.12334  1.0000
  C   C19       1.0  0.44472  0.05867  0.62334  1.0000
  C   C20       1.0  0.94472  0.05867  0.87666  1.0000
  C   C21       1.0  0.38580  0.87246  0.41067  1.0000
  C   C22       1.0  0.88580  0.87246  0.08933  1.0000
  C   C23       1.0  0.61420  0.12754  0.58933  1.0000
  C   C24       1.0  0.11420  0.12754  0.91067  1.0000
  C   C25       1.0  0.26310  0.93152  0.42506  1.0000
  C   C26       1.0  0.76310  0.93152  0.07494  1.0000
  C   C27       1.0  0.73690  0.06848  0.57494  1.0000
  C   C28       1.0  0.23690  0.06848  0.92506  1.0000
  C   C29       1.0  0.10740  0.85677  0.45732  1.0000
  C   C30       1.0  0.60740  0.85677  0.04268  1.0000
  C   C31       1.0  0.89260  0.14323  0.54268  1.0000
  C   C32       1.0  0.39260  0.14323  0.95732  1.0000
  C   C33       1.0  0.07848  0.72662  0.47557  1.0000
  C   C34       1.0  0.57848  0.72662  0.02443  1.0000
  C   C35       1.0  0.92152  0.27338  0.52443  1.0000
  C   C36       1.0  0.42152  0.27338  0.97557  1.0000
  C   C37       1.0  0.20626  0.67421  0.45997  1.0000
  C   C38       1.0  0.70626  0.67421  0.04003  1.0000
  C   C39       1.0  0.79375  0.32578  0.54003  1.0000
  C   C40       1.0  0.29374  0.32579  0.95997  1.0000
  N   N1        1.0  0.65095  0.86666  0.35753  1.0000
  N   N2        1.0  0.15095  0.86666  0.14247  1.0000
  N   N3        1.0  0.34905  0.13334  0.64247  1.0000
  N   N4        1.0  0.84905  0.13334  0.85753  1.0000
  N   N5        1.0  0.35459  0.74538  0.42736  1.0000
  N   N6        1.0  0.85459  0.74538  0.07264  1.0000
  N   N7        1.0  0.64541  0.25462  0.57264  1.0000
  N   N8        1.0  0.14541  0.25462  0.92736  1.0000
  O   O1        1.0  0.43741  0.65443  0.27349  1.0000
  O   O2        1.0  0.93741  0.65443  0.22650  1.0000
  O   O3        1.0  0.56259  0.34557  0.72650  1.0000
  O   O4        1.0  0.06259  0.34557  0.77350  1.0000
  O   O5        1.0  0.65503  0.71871  0.50008  1.0000
  O   O6        1.0  0.15503  0.71871  0.99992  1.0000
  O   O7        1.0  0.34497  0.28129  0.49992  1.0000
  O   O8        1.0  0.84497  0.28129  0.00008  1.0000
  O   O9        1.0  0.59429  0.50136  0.57873  1.0000
  O   O10       1.0  0.09429  0.50136  0.92127  1.0000
  O   O11       1.0  0.40571  0.49864  0.42127  1.0000
  O   O12       1.0  0.90571  0.49864  0.07873  1.0000
  O   O13       1.0  0.24572  0.63529  0.14770  1.0000
  O   O14       1.0  0.74572  0.63529  0.35230  1.0000
  O   O15       1.0  0.75428  0.36471  0.85230  1.0000
  O   O16       1.0  0.25428  0.36471  0.64770  1.0000
  O   O17       1.0  0.48194  0.68084  0.63061  1.0000
  O   O18       1.0  0.98194  0.68084  0.86939  1.0000
  O   O19       1.0  0.51806  0.31916  0.36939  1.0000
  O   O20       1.0  0.01806  0.31916  0.13061  1.0000
  O   O21       1.0  0.79548  0.70877  0.63665  1.0000
  O   O22       1.0  0.29548  0.70877  0.86335  1.0000
  O   O23       1.0  0.20452  0.29123  0.36335  1.0000
  O   O24       1.0  0.70452  0.29123  0.13665  1.0000
  O   O25       1.0  0.41535  0.48603  0.15985  1.0000
  O   O26       1.0  0.91535  0.48603  0.34015  1.0000
  O   O27       1.0  0.58464  0.51397  0.84015  1.0000
  O   O28       1.0  0.08464  0.51397  0.65985  1.0000
  O   O29       1.0  0.16656  0.45702  0.25702  1.0000
  O   O30       1.0  0.66656  0.45702  0.24298  1.0000
  O   O31       1.0  0.83344  0.54298  0.74298  1.0000
  O   O32       1.0  0.33344  0.54298  0.75702  1.0000
