data_image0
_chemical_formula_structural       Zn2H48Ir2C40N16F12
_chemical_formula_sum              "Zn2 H48 Ir2 C40 N16 F12"
_cell_length_a       8.27923
_cell_length_b       12.399
_cell_length_c       12.4001
_cell_angle_alpha    90.023
_cell_angle_beta     90.0017
_cell_angle_gamma    90.0017

_space_group_name_H-M_alt    "P 1"
_space_group_IT_number       1

loop_
  _space_group_symop_operation_xyz
  'x, y, z'

loop_
  _atom_site_type_symbol
  _atom_site_label
  _atom_site_symmetry_multiplicity
  _atom_site_fract_x
  _atom_site_fract_y
  _atom_site_fract_z
  _atom_site_occupancy
  Zn  Zn1       1.0  0.75001  0.25000  0.25000  1.0000
  Zn  Zn2       1.0  0.24999  0.75000  0.74999  1.0000
  H   H1        1.0  0.98100  0.38190  0.43236  1.0000
  H   H2        1.0  0.48102  0.56762  0.88178  1.0000
  H   H3        1.0  0.48101  0.93238  0.61818  1.0000
  H   H4        1.0  0.98100  0.11809  0.06765  1.0000
  H   H5        1.0  0.01902  0.61808  0.56765  1.0000
  H   H6        1.0  0.51897  0.43238  0.11821  1.0000
  H   H7        1.0  0.51898  0.06762  0.38180  1.0000
  H   H8        1.0  0.01900  0.88190  0.93234  1.0000
  H   H9        1.0  0.84018  0.46765  0.61939  1.0000
  H   H10       1.0  0.34017  0.38063  0.96766  1.0000
  H   H11       1.0  0.34013  0.11936  0.53231  1.0000
  H   H12       1.0  0.84017  0.03235  0.88062  1.0000
  H   H13       1.0  0.15983  0.53234  0.38062  1.0000
  H   H14       1.0  0.65983  0.61937  0.03233  1.0000
  H   H15       1.0  0.65985  0.88063  0.46767  1.0000
  H   H16       1.0  0.15984  0.96764  0.11938  1.0000
  H   H17       1.0  0.56304  0.47170  0.69409  1.0000
  H   H18       1.0  0.06296  0.30593  0.97177  1.0000
  H   H19       1.0  0.06295  0.19409  0.52823  1.0000
  H   H20       1.0  0.56302  0.02831  0.80591  1.0000
  H   H21       1.0  0.43697  0.52831  0.30592  1.0000
  H   H22       1.0  0.93703  0.69408  0.02825  1.0000
  H   H23       1.0  0.93704  0.80592  0.47176  1.0000
  H   H24       1.0  0.43698  0.97169  0.19409  1.0000
  H   H25       1.0  0.31089  0.33343  0.56905  1.0000
  H   H26       1.0  0.81086  0.43085  0.83352  1.0000
  H   H27       1.0  0.81086  0.06915  0.66648  1.0000
  H   H28       1.0  0.31090  0.16656  0.93096  1.0000
  H   H29       1.0  0.68911  0.66656  0.43096  1.0000
  H   H30       1.0  0.18913  0.56915  0.16649  1.0000
  H   H31       1.0  0.18913  0.93085  0.33351  1.0000
  H   H32       1.0  0.68911  0.83344  0.06905  1.0000
  H   H33       1.0  0.28170  0.40966  0.69717  1.0000
  H   H34       1.0  0.78161  0.30284  0.90978  1.0000
  H   H35       1.0  0.78160  0.19717  0.59024  1.0000
  H   H36       1.0  0.28168  0.09034  0.80282  1.0000
  H   H37       1.0  0.71830  0.59035  0.30284  1.0000
  H   H38       1.0  0.21838  0.69718  0.09024  1.0000
  H   H39       1.0  0.21839  0.80283  0.40975  1.0000
  H   H40       1.0  0.71832  0.90965  0.19718  1.0000
  H   H41       1.0  0.48462  0.30576  0.43460  1.0000
  H   H42       1.0  0.98469  0.56534  0.80570  1.0000
  H   H43       1.0  0.98469  0.93467  0.69431  1.0000
  H   H44       1.0  0.48462  0.19424  0.06540  1.0000
  H   H45       1.0  0.51537  0.69425  0.56540  1.0000
  H   H46       1.0  0.01531  0.43468  0.19430  1.0000
  H   H47       1.0  0.01532  0.06534  0.30571  1.0000
  H   H48       1.0  0.51537  0.80576  0.93460  1.0000
  Ir  Ir1       1.0  0.24998  0.25001  0.25000  1.0000
  Ir  Ir2       1.0  0.75002  0.75000  0.75000  1.0000
  C   C1        1.0  0.85695  0.37979  0.46036  1.0000
  C   C2        1.0  0.35700  0.53959  0.87973  1.0000
  C   C3        1.0  0.35698  0.96042  0.62025  1.0000
  C   C4        1.0  0.85695  0.12021  0.03965  1.0000
  C   C5        1.0  0.14306  0.62020  0.53965  1.0000
  C   C6        1.0  0.64300  0.46042  0.12026  1.0000
  C   C7        1.0  0.64302  0.03958  0.37974  1.0000
  C   C8        1.0  0.14306  0.87979  0.96035  1.0000
  C   C9        1.0  0.79078  0.42125  0.55317  1.0000
  C   C10       1.0  0.29079  0.44683  0.92125  1.0000
  C   C11       1.0  0.29078  0.05318  0.57873  1.0000
  C   C12       1.0  0.79078  0.07874  0.94684  1.0000
  C   C13       1.0  0.20922  0.57873  0.44684  1.0000
  C   C14       1.0  0.70920  0.55318  0.07875  1.0000
  C   C15       1.0  0.70921  0.94682  0.42126  1.0000
  C   C16       1.0  0.20923  0.92126  0.05316  1.0000
  C   C17       1.0  0.51390  0.41892  0.63203  1.0000
  C   C18       1.0  0.01389  0.36796  0.91898  1.0000
  C   C19       1.0  0.01389  0.13204  0.58102  1.0000
  C   C20       1.0  0.51389  0.08109  0.86797  1.0000
  C   C21       1.0  0.48611  0.58109  0.36797  1.0000
  C   C22       1.0  0.98610  0.63204  0.08104  1.0000
  C   C23       1.0  0.98611  0.86795  0.41897  1.0000
  C   C24       1.0  0.48611  0.91891  0.13202  1.0000
  C   C25       1.0  0.36115  0.38449  0.63214  1.0000
  C   C26       1.0  0.86111  0.36781  0.88459  1.0000
  C   C27       1.0  0.86111  0.13219  0.61541  1.0000
  C   C28       1.0  0.36114  0.11551  0.86785  1.0000
  C   C29       1.0  0.63887  0.61551  0.36787  1.0000
  C   C30       1.0  0.13888  0.63220  0.11542  1.0000
  C   C31       1.0  0.13888  0.86781  0.38457  1.0000
  C   C32       1.0  0.63886  0.88448  0.13214  1.0000
  C   C33       1.0  0.60169  0.33683  0.45836  1.0000
  C   C34       1.0  0.10174  0.54155  0.83678  1.0000
  C   C35       1.0  0.10173  0.95846  0.66322  1.0000
  C   C36       1.0  0.60170  0.16317  0.04165  1.0000
  C   C37       1.0  0.39831  0.66318  0.54164  1.0000
  C   C38       1.0  0.89825  0.45846  0.16322  1.0000
  C   C39       1.0  0.89826  0.04154  0.33679  1.0000
  C   C40       1.0  0.39830  0.83682  0.95835  1.0000
  N   N1        1.0  0.73763  0.32757  0.40240  1.0000
  N   N2        1.0  0.23768  0.59749  0.82750  1.0000
  N   N3        1.0  0.23768  0.90251  0.67249  1.0000
  N   N4        1.0  0.73763  0.17243  0.09761  1.0000
  N   N5        1.0  0.26237  0.67242  0.59761  1.0000
  N   N6        1.0  0.76232  0.40250  0.17250  1.0000
  N   N7        1.0  0.76232  0.09749  0.32751  1.0000
  N   N8        1.0  0.26237  0.82758  0.90239  1.0000
  N   N9        1.0  0.62853  0.39294  0.55141  1.0000
  N   N10       1.0  0.12853  0.44855  0.89294  1.0000
  N   N11       1.0  0.12852  0.05146  0.60704  1.0000
  N   N12       1.0  0.62852  0.10706  0.94860  1.0000
  N   N13       1.0  0.37147  0.60706  0.44861  1.0000
  N   N14       1.0  0.87147  0.55146  0.10706  1.0000
  N   N15       1.0  0.87147  0.94855  0.39295  1.0000
  N   N16       1.0  0.37148  0.89293  0.05140  1.0000
  F   F1        1.0  0.25032  0.24631  0.40733  1.0000
  F   F2        1.0  0.75031  0.59271  0.74623  1.0000
  F   F3        1.0  0.75032  0.90729  0.75378  1.0000
  F   F4        1.0  0.25033  0.25369  0.09267  1.0000
  F   F5        1.0  0.74969  0.75371  0.59272  1.0000
  F   F6        1.0  0.24968  0.40733  0.25375  1.0000
  F   F7        1.0  0.24968  0.09268  0.24624  1.0000
  F   F8        1.0  0.74970  0.74629  0.90728  1.0000
  F   F9        1.0  0.00822  0.25000  0.25000  1.0000
  F   F10       1.0  0.50831  0.75000  0.75000  1.0000
  F   F11       1.0  0.99176  0.75000  0.74999  1.0000
  F   F12       1.0  0.49171  0.25000  0.24999  1.0000
