data_image0
_chemical_formula_structural       Ag2H14C16N6O6F6
_chemical_formula_sum              "Ag2 H14 C16 N6 O6 F6"
_cell_length_a       7.16722
_cell_length_b       8.62469
_cell_length_c       9.84434
_cell_angle_alpha    79.4037
_cell_angle_beta     81.3732
_cell_angle_gamma    66.3581

_space_group_name_H-M_alt    "P 1"
_space_group_IT_number       1

loop_
  _space_group_symop_operation_xyz
  'x, y, z'

loop_
  _atom_site_type_symbol
  _atom_site_label
  _atom_site_symmetry_multiplicity
  _atom_site_fract_x
  _atom_site_fract_y
  _atom_site_fract_z
  _atom_site_occupancy
  Ag  Ag1       1.0  0.33348  0.10101  0.84663  1.0000
  Ag  Ag2       1.0  0.66652  0.89899  0.15337  1.0000
  H   H1        1.0  0.17532  0.23045  0.12276  1.0000
  H   H2        1.0  0.82468  0.76955  0.87724  1.0000
  H   H3        1.0  0.54299  0.28176  0.99983  1.0000
  H   H4        1.0  0.45701  0.71825  0.00016  1.0000
  H   H5        1.0  0.67866  0.11799  0.61019  1.0000
  H   H6        1.0  0.32134  0.88201  0.38981  1.0000
  H   H7        1.0  0.04964  0.07189  0.61854  1.0000
  H   H8        1.0  0.95036  0.92811  0.38146  1.0000
  H   H9        1.0  0.91961  0.27509  0.29867  1.0000
  H   H10       1.0  0.08039  0.72491  0.70133  1.0000
  H   H11       1.0  0.68883  0.46331  0.29024  1.0000
  H   H12       1.0  0.31117  0.53669  0.70976  1.0000
  H   H13       1.0  0.92211  0.47341  0.20239  1.0000
  H   H14       1.0  0.07789  0.52659  0.79761  1.0000
  C   C1        1.0  0.65463  0.23733  0.91298  1.0000
  C   C2        1.0  0.34537  0.76267  0.08702  1.0000
  C   C3        1.0  0.73041  0.14336  0.69953  1.0000
  C   C4        1.0  0.26959  0.85663  0.30047  1.0000
  C   C5        1.0  0.93357  0.12125  0.70188  1.0000
  C   C6        1.0  0.06643  0.87874  0.29811  1.0000
  C   C7        1.0  0.85744  0.21888  0.91321  1.0000
  C   C8        1.0  0.14256  0.78112  0.08679  1.0000
  C   C9        1.0  0.93234  0.25994  0.02968  1.0000
  C   C10       1.0  0.06766  0.74007  0.97032  1.0000
  C   C11       1.0  0.83265  0.39299  0.23384  1.0000
  C   C12       1.0  0.16735  0.60701  0.76616  1.0000
  C   C13       1.0  0.52751  0.81758  0.65967  1.0000
  C   C14       1.0  0.47248  0.18242  0.34033  1.0000
  C   C15       1.0  0.69200  0.66044  0.59539  1.0000
  C   C16       1.0  0.30800  0.33957  0.40461  1.0000
  N   N1        1.0  0.59155  0.19812  0.80657  1.0000
  N   N2        1.0  0.40845  0.80188  0.19343  1.0000
  N   N3        1.0  0.99739  0.15814  0.80826  1.0000
  N   N4        1.0  0.00261  0.84186  0.19174  1.0000
  N   N5        1.0  0.12493  0.20502  0.04009  1.0000
  N   N6        1.0  0.87507  0.79498  0.95991  1.0000
  O   O1        1.0  0.77707  0.35316  0.11353  1.0000
  O   O2        1.0  0.22293  0.64684  0.88647  1.0000
  O   O3        1.0  0.57970  0.84318  0.76899  1.0000
  O   O4        1.0  0.42030  0.15682  0.23102  1.0000
  O   O5        1.0  0.36957  0.89871  0.59870  1.0000
  O   O6        1.0  0.63043  0.10129  0.40130  1.0000
  F   F1        1.0  0.85963  0.69359  0.53564  1.0000
  F   F2        1.0  0.14037  0.30641  0.46436  1.0000
  F   F3        1.0  0.76000  0.52077  0.69424  1.0000
  F   F4        1.0  0.24000  0.47923  0.30576  1.0000
  F   F5        1.0  0.62204  0.61196  0.49601  1.0000
  F   F6        1.0  0.37797  0.38805  0.50398  1.0000
