data_image0
_chemical_formula_structural       Ag8H32C40N8O8
_chemical_formula_sum              "Ag8 H32 C40 N8 O8"
_cell_length_a       10.7505
_cell_length_b       11.0363
_cell_length_c       11.5124
_cell_angle_alpha    118.655
_cell_angle_beta     117.832
_cell_angle_gamma    89.9857

_space_group_name_H-M_alt    "P 1"
_space_group_IT_number       1

loop_
  _space_group_symop_operation_xyz
  'x, y, z'

loop_
  _atom_site_type_symbol
  _atom_site_label
  _atom_site_symmetry_multiplicity
  _atom_site_fract_x
  _atom_site_fract_y
  _atom_site_fract_z
  _atom_site_occupancy
  Ag  Ag1       1.0  0.53802  0.66913  0.16710  1.0000
  Ag  Ag2       1.0  0.46173  0.50206  0.83309  1.0000
  Ag  Ag3       1.0  0.62870  0.16899  0.16695  1.0000
  Ag  Ag4       1.0  0.37133  0.00218  0.83293  1.0000
  Ag  Ag5       1.0  0.66558  0.90081  0.06130  1.0000
  Ag  Ag6       1.0  0.33422  0.83962  0.93841  1.0000
  Ag  Ag7       1.0  0.39560  0.40092  0.06124  1.0000
  Ag  Ag8       1.0  0.60435  0.33957  0.93876  1.0000
  H   H1        1.0  0.59954  0.92374  0.45413  1.0000
  H   H2        1.0  0.40033  0.46956  0.54580  1.0000
  H   H3        1.0  0.85438  0.42343  0.45382  1.0000
  H   H4        1.0  0.14563  0.96974  0.54622  1.0000
  H   H5        1.0  0.53839  0.12464  0.62629  1.0000
  H   H6        1.0  0.46171  0.49808  0.37371  1.0000
  H   H7        1.0  0.08764  0.62424  0.62592  1.0000
  H   H8        1.0  0.91224  0.99817  0.37391  1.0000
  H   H9        1.0  0.52902  0.34446  0.61277  1.0000
  H   H10       1.0  0.47122  0.73141  0.38719  1.0000
  H   H11       1.0  0.08343  0.84408  0.61247  1.0000
  H   H12       1.0  0.91621  0.23125  0.38692  1.0000
  H   H13       1.0  0.57602  0.35067  0.42069  1.0000
  H   H14       1.0  0.42418  0.92991  0.57919  1.0000
  H   H15       1.0  0.84435  0.85053  0.42065  1.0000
  H   H16       1.0  0.15511  0.42974  0.57881  1.0000
  H   H17       1.0  0.05925  0.69115  0.86207  1.0000
  H   H18       1.0  0.94066  0.82884  0.13814  1.0000
  H   H19       1.0  0.80288  0.19100  0.86218  1.0000
  H   H20       1.0  0.19768  0.32930  0.13829  1.0000
  H   H21       1.0  0.82378  0.50121  0.71216  1.0000
  H   H22       1.0  0.17620  0.78873  0.28775  1.0000
  H   H23       1.0  0.88855  0.00104  0.71236  1.0000
  H   H24       1.0  0.11195  0.28926  0.28807  1.0000
  H   H25       1.0  0.83244  0.27063  0.70744  1.0000
  H   H26       1.0  0.16770  0.56292  0.29256  1.0000
  H   H27       1.0  0.87527  0.77052  0.70772  1.0000
  H   H28       1.0  0.12480  0.06315  0.29236  1.0000
  H   H29       1.0  0.07824  0.24464  0.85747  1.0000
  H   H30       1.0  0.92191  0.38704  0.14290  1.0000
  H   H31       1.0  0.77939  0.74457  0.85769  1.0000
  H   H32       1.0  0.22070  0.88709  0.14234  1.0000
  C   C1        1.0  0.61103  0.02601  0.33810  1.0000
  C   C2        1.0  0.38891  0.68795  0.66174  1.0000
  C   C3        1.0  0.72685  0.52588  0.33801  1.0000
  C   C4        1.0  0.27297  0.18802  0.66184  1.0000
  C   C5        1.0  0.58942  0.01898  0.44792  1.0000
  C   C6        1.0  0.41047  0.57096  0.55194  1.0000
  C   C7        1.0  0.85824  0.51874  0.44775  1.0000
  C   C8        1.0  0.14165  0.07107  0.55216  1.0000
  C   C9        1.0  0.55711  0.13049  0.54357  1.0000
  C   C10       1.0  0.44295  0.58672  0.45636  1.0000
  C   C11       1.0  0.98618  0.63014  0.54326  1.0000
  C   C12       1.0  0.01364  0.08676  0.45650  1.0000
  C   C13       1.0  0.55060  0.25349  0.53585  1.0000
  C   C14       1.0  0.44955  0.71744  0.46410  1.0000
  C   C15       1.0  0.98495  0.75316  0.53556  1.0000
  C   C16       1.0  0.01476  0.21736  0.46395  1.0000
  C   C17       1.0  0.57686  0.25730  0.43085  1.0000
  C   C18       1.0  0.42326  0.82637  0.56902  1.0000
  C   C19       1.0  0.85369  0.75711  0.43073  1.0000
  C   C20       1.0  0.14590  0.32629  0.56880  1.0000
  C   C21       1.0  0.19524  0.56962  0.94019  1.0000
  C   C22       1.0  0.80473  0.62924  0.06015  1.0000
  C   C23       1.0  0.74499  0.06954  0.94035  1.0000
  C   C24       1.0  0.25517  0.12941  0.05978  1.0000
  C   C25       1.0  0.05832  0.59011  0.85734  1.0000
  C   C26       1.0  0.94161  0.73255  0.14290  1.0000
  C   C27       1.0  0.79922  0.09004  0.85762  1.0000
  C   C28       1.0  0.20124  0.23285  0.14277  1.0000
  C   C29       1.0  0.92853  0.48491  0.77518  1.0000
  C   C30       1.0  0.07147  0.70949  0.22495  1.0000
  C   C31       1.0  0.84688  0.98481  0.77547  1.0000
  C   C32       1.0  0.15352  0.20981  0.22489  1.0000
  C   C33       1.0  0.93217  0.35663  0.77255  1.0000
  C   C34       1.0  0.06791  0.58387  0.22762  1.0000
  C   C35       1.0  0.84065  0.85656  0.77285  1.0000
  C   C36       1.0  0.15950  0.08401  0.22727  1.0000
  C   C37       1.0  0.06777  0.34192  0.85512  1.0000
  C   C38       1.0  0.93235  0.48669  0.14528  1.0000
  C   C39       1.0  0.78742  0.84182  0.85526  1.0000
  C   C40       1.0  0.21260  0.98675  0.14474  1.0000
  N   N1        1.0  0.60552  0.14763  0.33385  1.0000
  N   N2        1.0  0.39451  0.81381  0.66600  1.0000
  N   N3        1.0  0.72806  0.64752  0.33381  1.0000
  N   N4        1.0  0.27160  0.31378  0.66590  1.0000
  N   N5        1.0  0.19596  0.44446  0.93734  1.0000
  N   N6        1.0  0.80411  0.50697  0.06305  1.0000
  N   N7        1.0  0.74137  0.94436  0.93744  1.0000
  N   N8        1.0  0.25865  0.00708  0.06258  1.0000
  O   O1        1.0  0.63542  0.91758  0.24367  1.0000
  O   O2        1.0  0.36445  0.67401  0.75615  1.0000
  O   O3        1.0  0.60806  0.41746  0.24354  1.0000
  O   O4        1.0  0.39179  0.17414  0.75635  1.0000
  O   O5        1.0  0.31756  0.66966  0.01746  1.0000
  O   O6        1.0  0.68236  0.65196  0.98286  1.0000
  O   O7        1.0  0.69982  0.16957  0.01754  1.0000
  O   O8        1.0  0.30016  0.15207  0.98241  1.0000
