data_image0
_chemical_formula_structural       Hg4H56C56N16Cl8O4
_chemical_formula_sum              "Hg4 H56 C56 N16 Cl8 O4"
_cell_length_a       8.00544
_cell_length_b       13.6658
_cell_length_c       14.611
_cell_angle_alpha    90
_cell_angle_beta     90
_cell_angle_gamma    93.7703

_space_group_name_H-M_alt    "P 1"
_space_group_IT_number       1

loop_
  _space_group_symop_operation_xyz
  'x, y, z'

loop_
  _atom_site_type_symbol
  _atom_site_label
  _atom_site_symmetry_multiplicity
  _atom_site_fract_x
  _atom_site_fract_y
  _atom_site_fract_z
  _atom_site_occupancy
  Hg  Hg1       1.0  0.71444  0.26196  0.46903  1.0000
  Hg  Hg2       1.0  0.78556  0.23804  0.96903  1.0000
  Hg  Hg3       1.0  0.28555  0.73804  0.53097  1.0000
  Hg  Hg4       1.0  0.21444  0.76197  0.03097  1.0000
  H   H1        1.0  0.59694  0.04172  0.91507  1.0000
  H   H2        1.0  0.90308  0.45828  0.41508  1.0000
  H   H3        1.0  0.40307  0.95827  0.08492  1.0000
  H   H4        1.0  0.09695  0.54171  0.58492  1.0000
  H   H5        1.0  0.73291  0.88496  0.93018  1.0000
  H   H6        1.0  0.76710  0.61504  0.43019  1.0000
  H   H7        1.0  0.26709  0.11503  0.06982  1.0000
  H   H8        1.0  0.23292  0.38496  0.56982  1.0000
  H   H9        1.0  0.84613  0.80467  0.79136  1.0000
  H   H10       1.0  0.65385  0.69533  0.29136  1.0000
  H   H11       1.0  0.15386  0.19533  0.20864  1.0000
  H   H12       1.0  0.34616  0.30467  0.70865  1.0000
  H   H13       1.0  0.82361  0.87973  0.64186  1.0000
  H   H14       1.0  0.67638  0.62026  0.14186  1.0000
  H   H15       1.0  0.17640  0.12026  0.35813  1.0000
  H   H16       1.0  0.32362  0.37974  0.85815  1.0000
  H   H17       1.0  0.72615  0.84230  0.41730  1.0000
  H   H18       1.0  0.77384  0.65770  0.91730  1.0000
  H   H19       1.0  0.27384  0.15770  0.58270  1.0000
  H   H20       1.0  0.22616  0.34230  0.08270  1.0000
  H   H21       1.0  0.93692  0.88728  0.40432  1.0000
  H   H22       1.0  0.56307  0.61272  0.90432  1.0000
  H   H23       1.0  0.06308  0.11272  0.59568  1.0000
  H   H24       1.0  0.43692  0.38729  0.09568  1.0000
  H   H25       1.0  0.81396  0.85326  0.30655  1.0000
  H   H26       1.0  0.68603  0.64674  0.80656  1.0000
  H   H27       1.0  0.18603  0.14675  0.69344  1.0000
  H   H28       1.0  0.31398  0.35326  0.19344  1.0000
  H   H29       1.0  0.91258  0.94335  0.20622  1.0000
  H   H30       1.0  0.58742  0.55665  0.70622  1.0000
  H   H31       1.0  0.08742  0.05666  0.79378  1.0000
  H   H32       1.0  0.41258  0.44335  0.29378  1.0000
  H   H33       1.0  0.90775  0.03492  0.06171  1.0000
  H   H34       1.0  0.59224  0.46508  0.56171  1.0000
  H   H35       1.0  0.09223  0.96508  0.93829  1.0000
  H   H36       1.0  0.40777  0.53492  0.43829  1.0000
  H   H37       1.0  0.59896  0.23741  0.17013  1.0000
  H   H38       1.0  0.90104  0.26259  0.67013  1.0000
  H   H39       1.0  0.40102  0.76259  0.82986  1.0000
  H   H40       1.0  0.09896  0.73741  0.32987  1.0000
  H   H41       1.0  0.58604  0.15292  0.32039  1.0000
  H   H42       1.0  0.91397  0.34708  0.82039  1.0000
  H   H43       1.0  0.41396  0.84708  0.67961  1.0000
  H   H44       1.0  0.08604  0.65292  0.17962  1.0000
  H   H45       1.0  0.51726  0.17157  0.82227  1.0000
  H   H46       1.0  0.98275  0.32843  0.32227  1.0000
  H   H47       1.0  0.48274  0.82843  0.17772  1.0000
  H   H48       1.0  0.01726  0.67157  0.67773  1.0000
  H   H49       1.0  0.55532  0.17300  0.70257  1.0000
  H   H50       1.0  0.94469  0.32700  0.20258  1.0000
  H   H51       1.0  0.44468  0.82700  0.29743  1.0000
  H   H52       1.0  0.05532  0.67300  0.79742  1.0000
  H   H53       1.0  0.75598  0.92941  0.52908  1.0000
  H   H54       1.0  0.74403  0.57058  0.02908  1.0000
  H   H55       1.0  0.24403  0.07058  0.47092  1.0000
  H   H56       1.0  0.25598  0.42943  0.97092  1.0000
  C   C1        1.0  0.63137  0.05324  0.76875  1.0000
  C   C2        1.0  0.86865  0.44675  0.26875  1.0000
  C   C3        1.0  0.36864  0.94676  0.23125  1.0000
  C   C4        1.0  0.13136  0.55325  0.73125  1.0000
  C   C5        1.0  0.64863  0.00709  0.85501  1.0000
  C   C6        1.0  0.85139  0.49291  0.35501  1.0000
  C   C7        1.0  0.35138  0.99291  0.14499  1.0000
  C   C8        1.0  0.14861  0.50709  0.64500  1.0000
  C   C9        1.0  0.72319  0.91917  0.86306  1.0000
  C   C10       1.0  0.77683  0.58082  0.36307  1.0000
  C   C11       1.0  0.27683  0.08083  0.13694  1.0000
  C   C12       1.0  0.22315  0.41917  0.63694  1.0000
  C   C13       1.0  0.78527  0.87324  0.78512  1.0000
  C   C14       1.0  0.71474  0.62676  0.28512  1.0000
  C   C15       1.0  0.21472  0.12677  0.21488  1.0000
  C   C16       1.0  0.28525  0.37323  0.71489  1.0000
  C   C17       1.0  0.77080  0.91659  0.70026  1.0000
  C   C18       1.0  0.72919  0.58340  0.20027  1.0000
  C   C19       1.0  0.22919  0.08341  0.29973  1.0000
  C   C20       1.0  0.27081  0.41660  0.79974  1.0000
  C   C21       1.0  0.69390  0.00605  0.68885  1.0000
  C   C22       1.0  0.80611  0.49394  0.18886  1.0000
  C   C23       1.0  0.30610  0.99394  0.31114  1.0000
  C   C24       1.0  0.19391  0.50607  0.81114  1.0000
  C   C25       1.0  0.67577  0.05125  0.59880  1.0000
  C   C26       1.0  0.82423  0.44875  0.09881  1.0000
  C   C27       1.0  0.32421  0.94875  0.40120  1.0000
  C   C28       1.0  0.17578  0.55126  0.90119  1.0000
  C   C29       1.0  0.81144  0.88836  0.37373  1.0000
  C   C30       1.0  0.68855  0.61163  0.87373  1.0000
  C   C31       1.0  0.18855  0.11164  0.62627  1.0000
  C   C32       1.0  0.31144  0.38837  0.12627  1.0000
  C   C33       1.0  0.75646  0.99079  0.36771  1.0000
  C   C34       1.0  0.74355  0.50920  0.86771  1.0000
  C   C35       1.0  0.24354  0.00921  0.63229  1.0000
  C   C36       1.0  0.25645  0.49080  0.13229  1.0000
  C   C37       1.0  0.75269  0.04144  0.27877  1.0000
  C   C38       1.0  0.74731  0.45855  0.77877  1.0000
  C   C39       1.0  0.24730  0.95856  0.72123  1.0000
  C   C40       1.0  0.25269  0.54145  0.22124  1.0000
  C   C41       1.0  0.83980  0.00770  0.20293  1.0000
  C   C42       1.0  0.66020  0.49230  0.70294  1.0000
  C   C43       1.0  0.16019  0.99230  0.79707  1.0000
  C   C44       1.0  0.33980  0.50770  0.29707  1.0000
  C   C45       1.0  0.83820  0.05905  0.12088  1.0000
  C   C46       1.0  0.66181  0.44095  0.62089  1.0000
  C   C47       1.0  0.16180  0.94095  0.87912  1.0000
  C   C48       1.0  0.33819  0.55905  0.37912  1.0000
  C   C49       1.0  0.66819  0.17242  0.18179  1.0000
  C   C50       1.0  0.83181  0.32757  0.68179  1.0000
  C   C51       1.0  0.33179  0.82758  0.81821  1.0000
  C   C52       1.0  0.16819  0.67243  0.31822  1.0000
  C   C53       1.0  0.66288  0.12546  0.26595  1.0000
  C   C54       1.0  0.83711  0.37453  0.76595  1.0000
  C   C55       1.0  0.33710  0.87454  0.73405  1.0000
  C   C56       1.0  0.16289  0.62547  0.23406  1.0000
  N   N1        1.0  0.55333  0.13794  0.76397  1.0000
  N   N2        1.0  0.94669  0.36206  0.26397  1.0000
  N   N3        1.0  0.44668  0.86205  0.23603  1.0000
  N   N4        1.0  0.05333  0.63794  0.73602  1.0000
  N   N5        1.0  0.72188  0.99974  0.52219  1.0000
  N   N6        1.0  0.77813  0.50026  0.02220  1.0000
  N   N7        1.0  0.27812  0.00026  0.47780  1.0000
  N   N8        1.0  0.22187  0.49974  0.97780  1.0000
  N   N9        1.0  0.71404  0.04138  0.43866  1.0000
  N   N10       1.0  0.78596  0.45862  0.93867  1.0000
  N   N11       1.0  0.28595  0.95862  0.56133  1.0000
  N   N12       1.0  0.21404  0.54138  0.06133  1.0000
  N   N13       1.0  0.75560  0.14056  0.11025  1.0000
  N   N14       1.0  0.74439  0.35944  0.61026  1.0000
  N   N15       1.0  0.24439  0.85944  0.88974  1.0000
  N   N16       1.0  0.25561  0.64056  0.38975  1.0000
  Cl  Cl1       1.0  0.43916  0.29357  0.42173  1.0000
  Cl  Cl2       1.0  0.06085  0.20643  0.92173  1.0000
  Cl  Cl3       1.0  0.56084  0.70643  0.57827  1.0000
  Cl  Cl4       1.0  0.93916  0.79357  0.07827  1.0000
  Cl  Cl5       1.0  0.00915  0.24271  0.45455  1.0000
  Cl  Cl6       1.0  0.49085  0.25729  0.95454  1.0000
  Cl  Cl7       1.0  0.99084  0.75729  0.54545  1.0000
  Cl  Cl8       1.0  0.50914  0.74271  0.04545  1.0000
  O   O1        1.0  0.62070  0.13479  0.58898  1.0000
  O   O2        1.0  0.87931  0.36521  0.08897  1.0000
  O   O3        1.0  0.37929  0.86521  0.41102  1.0000
  O   O4        1.0  0.12069  0.63479  0.91102  1.0000
