data_image0
_chemical_formula_structural       Hg2H28C28N8Cl4O2
_chemical_formula_sum              "Hg2 H28 C28 N8 Cl4 O2"
_cell_length_a       7.72676
_cell_length_b       10.2535
_cell_length_c       12.4232
_cell_angle_alpha    75.217
_cell_angle_beta     92.0257
_cell_angle_gamma    65.7127

_space_group_name_H-M_alt    "P 1"
_space_group_IT_number       1

loop_
  _space_group_symop_operation_xyz
  'x, y, z'

loop_
  _atom_site_type_symbol
  _atom_site_label
  _atom_site_symmetry_multiplicity
  _atom_site_fract_x
  _atom_site_fract_y
  _atom_site_fract_z
  _atom_site_occupancy
  Hg  Hg1       1.0  0.60964  0.15106  0.00332  1.0000
  Hg  Hg2       1.0  0.39036  0.84896  0.99668  1.0000
  H   H1        1.0  0.06707  0.64636  0.99368  1.0000
  H   H2        1.0  0.93292  0.35366  0.00632  1.0000
  H   H3        1.0  0.15891  0.41486  0.93494  1.0000
  H   H4        1.0  0.84107  0.58515  0.06507  1.0000
  H   H5        1.0  0.23359  0.41555  0.74205  1.0000
  H   H6        1.0  0.76642  0.58443  0.25798  1.0000
  H   H7        1.0  0.21356  0.64601  0.60862  1.0000
  H   H8        1.0  0.78647  0.35395  0.39140  1.0000
  H   H9        1.0  0.49472  0.72840  0.46911  1.0000
  H   H10       1.0  0.50531  0.27160  0.53089  1.0000
  H   H11       1.0  0.61894  0.80659  0.37737  1.0000
  H   H12       1.0  0.38108  0.19342  0.62262  1.0000
  H   H13       1.0  0.40614  0.80265  0.32240  1.0000
  H   H14       1.0  0.59389  0.19734  0.67760  1.0000
  H   H15       1.0  0.20576  0.26312  0.40862  1.0000
  H   H16       1.0  0.79425  0.73687  0.59138  1.0000
  H   H17       1.0  0.23467  0.47763  0.26787  1.0000
  H   H18       1.0  0.76532  0.52237  0.73213  1.0000
  H   H19       1.0  0.41018  0.42750  0.10815  1.0000
  H   H20       1.0  0.58981  0.57250  0.89186  1.0000
  H   H21       1.0  0.52021  0.97922  0.21133  1.0000
  H   H22       1.0  0.47978  0.02079  0.78866  1.0000
  H   H23       1.0  0.96777  0.90289  0.93928  1.0000
  H   H24       1.0  0.03224  0.09712  0.06072  1.0000
  H   H25       1.0  0.00552  0.00170  0.81349  1.0000
  H   H26       1.0  0.99448  0.99831  0.18650  1.0000
  H   H27       1.0  0.30804  0.78469  0.55570  1.0000
  H   H28       1.0  0.69195  0.21530  0.44428  1.0000
  C   C1        1.0  0.09037  0.77870  0.83514  1.0000
  C   C2        1.0  0.90963  0.22131  0.16485  1.0000
  C   C3        1.0  0.10059  0.64510  0.90931  1.0000
  C   C4        1.0  0.89940  0.35491  0.09069  1.0000
  C   C5        1.0  0.15308  0.51647  0.87658  1.0000
  C   C6        1.0  0.84691  0.48353  0.12344  1.0000
  C   C7        1.0  0.19539  0.51646  0.76780  1.0000
  C   C8        1.0  0.80460  0.48353  0.23221  1.0000
  C   C9        1.0  0.18716  0.64651  0.69430  1.0000
  C   C10       1.0  0.81284  0.35347  0.30571  1.0000
  C   C11       1.0  0.13881  0.77885  0.72564  1.0000
  C   C12       1.0  0.86119  0.22114  0.27436  1.0000
  C   C13       1.0  0.13935  0.91572  0.64891  1.0000
  C   C14       1.0  0.86064  0.08427  0.35109  1.0000
  C   C15       1.0  0.47458  0.81972  0.39358  1.0000
  C   C16       1.0  0.52544  0.18027  0.60642  1.0000
  C   C17       1.0  0.35935  0.97256  0.40586  1.0000
  C   C18       1.0  0.64065  0.02743  0.59413  1.0000
  C   C19       1.0  0.36397  0.10269  0.32388  1.0000
  C   C20       1.0  0.63603  0.89730  0.67612  1.0000
  C   C21       1.0  0.28079  0.24700  0.33711  1.0000
  C   C22       1.0  0.71921  0.75299  0.66289  1.0000
  C   C23       1.0  0.29653  0.36460  0.26006  1.0000
  C   C24       1.0  0.70347  0.63540  0.73994  1.0000
  C   C25       1.0  0.39253  0.33833  0.16928  1.0000
  C   C26       1.0  0.60746  0.66167  0.83072  1.0000
  C   C27       1.0  0.45423  0.08633  0.22927  1.0000
  C   C28       1.0  0.54576  0.91367  0.77072  1.0000
  N   N1        1.0  0.04479  0.90161  0.87418  1.0000
  N   N2        1.0  0.95521  0.09840  0.12581  1.0000
  N   N3        1.0  0.24018  0.89133  0.56030  1.0000
  N   N4        1.0  0.75982  0.10866  0.43969  1.0000
  N   N5        1.0  0.25382  0.00371  0.48341  1.0000
  N   N6        1.0  0.74617  0.99628  0.51658  1.0000
  N   N7        1.0  0.46683  0.20147  0.15453  1.0000
  N   N8        1.0  0.53316  0.79853  0.84547  1.0000
  Cl  Cl1       1.0  0.70247  0.27337  0.84009  1.0000
  Cl  Cl2       1.0  0.29753  0.72664  0.15991  1.0000
  Cl  Cl3       1.0  0.74145  0.86176  0.07348  1.0000
  Cl  Cl4       1.0  0.25854  0.13826  0.92652  1.0000
  O   O1        1.0  0.06258  0.04203  0.66225  1.0000
  O   O2        1.0  0.93740  0.95795  0.33774  1.0000
