data_image0
_chemical_formula_structural       Zn2H24C24S4N4O12
_chemical_formula_sum              "Zn2 H24 C24 S4 N4 O12"
_cell_length_a       5.01886
_cell_length_b       9.97618
_cell_length_c       14.6518
_cell_angle_alpha    90
_cell_angle_beta     90.0002
_cell_angle_gamma    103.254

_space_group_name_H-M_alt    "P 1"
_space_group_IT_number       1

loop_
  _space_group_symop_operation_xyz
  'x, y, z'

loop_
  _atom_site_type_symbol
  _atom_site_label
  _atom_site_symmetry_multiplicity
  _atom_site_fract_x
  _atom_site_fract_y
  _atom_site_fract_z
  _atom_site_occupancy
  Zn  Zn1       1.0  0.00000  0.00000  1.00000  1.0000
  Zn  Zn2       1.0  1.00000  0.50000  0.50000  1.0000
  H   H1        1.0  0.50951  0.61809  0.01116  1.0000
  H   H2        1.0  0.50951  0.11809  0.48884  1.0000
  H   H3        1.0  0.49048  0.38191  0.98885  1.0000
  H   H4        1.0  0.49049  0.88191  0.51116  1.0000
  H   H5        1.0  0.00142  0.63305  0.24771  1.0000
  H   H6        1.0  0.00140  0.13304  0.25229  1.0000
  H   H7        1.0  0.99858  0.36696  0.75229  1.0000
  H   H8        1.0  0.99859  0.86695  0.74771  1.0000
  H   H9        1.0  0.85420  0.82884  0.17500  1.0000
  H   H10       1.0  0.85417  0.32882  0.32500  1.0000
  H   H11       1.0  0.14582  0.17118  0.82500  1.0000
  H   H12       1.0  0.14582  0.67117  0.67500  1.0000
  H   H13       1.0  0.55058  0.47452  0.15010  1.0000
  H   H14       1.0  0.55058  0.97452  0.34991  1.0000
  H   H15       1.0  0.44941  0.52548  0.84991  1.0000
  H   H16       1.0  0.44942  0.02548  0.65009  1.0000
  H   H17       1.0  0.20031  0.38753  0.15447  1.0000
  H   H18       1.0  0.20032  0.88752  0.34553  1.0000
  H   H19       1.0  0.79968  0.61248  0.84553  1.0000
  H   H20       1.0  0.79969  0.11247  0.65446  1.0000
  H   H21       1.0  0.35042  0.48672  0.24875  1.0000
  H   H22       1.0  0.35043  0.98672  0.25125  1.0000
  H   H23       1.0  0.64956  0.51328  0.75125  1.0000
  H   H24       1.0  0.64958  0.01328  0.74875  1.0000
  C   C1        1.0  0.27002  0.77051  0.01500  1.0000
  C   C2        1.0  0.27002  0.27051  0.48500  1.0000
  C   C3        1.0  0.72998  0.22950  0.98499  1.0000
  C   C4        1.0  0.72998  0.72949  0.51500  1.0000
  C   C5        1.0  0.36058  0.65934  0.04963  1.0000
  C   C6        1.0  0.36058  0.15934  0.45037  1.0000
  C   C7        1.0  0.63940  0.34066  0.95037  1.0000
  C   C8        1.0  0.63942  0.84066  0.54963  1.0000
  C   C9        1.0  0.26286  0.60429  0.13452  1.0000
  C   C10       1.0  0.26285  0.10429  0.36549  1.0000
  C   C11       1.0  0.73714  0.39572  0.86549  1.0000
  C   C12       1.0  0.73716  0.89572  0.63451  1.0000
  C   C13       1.0  0.07844  0.66751  0.18021  1.0000
  C   C14       1.0  0.07842  0.16750  0.31980  1.0000
  C   C15       1.0  0.92156  0.33250  0.81980  1.0000
  C   C16       1.0  0.92157  0.83249  0.68020  1.0000
  C   C17       1.0  0.99658  0.77801  0.14068  1.0000
  C   C18       1.0  0.99656  0.27799  0.35932  1.0000
  C   C19       1.0  0.00343  0.22201  0.85932  1.0000
  C   C20       1.0  0.00343  0.72200  0.64068  1.0000
  C   C21       1.0  0.34832  0.48284  0.17402  1.0000
  C   C22       1.0  0.34832  0.98284  0.32598  1.0000
  C   C23       1.0  0.65167  0.51716  0.82598  1.0000
  C   C24       1.0  0.65169  0.01716  0.67402  1.0000
  S   S1        1.0  0.39382  0.84284  0.90635  1.0000
  S   S2        1.0  0.39381  0.34284  0.59365  1.0000
  S   S3        1.0  0.60619  0.15716  0.09365  1.0000
  S   S4        1.0  0.60619  0.65716  0.40635  1.0000
  N   N1        1.0  0.09075  0.82902  0.05853  1.0000
  N   N2        1.0  0.09073  0.32901  0.44147  1.0000
  N   N3        1.0  0.90926  0.17098  0.94147  1.0000
  N   N4        1.0  0.90926  0.67098  0.55853  1.0000
  O   O1        1.0  0.30610  0.97498  0.90169  1.0000
  O   O2        1.0  0.30609  0.47498  0.59831  1.0000
  O   O3        1.0  0.69391  0.02502  0.09831  1.0000
  O   O4        1.0  0.69391  0.52502  0.40169  1.0000
  O   O5        1.0  0.27088  0.74271  0.83774  1.0000
  O   O6        1.0  0.27088  0.24271  0.66226  1.0000
  O   O7        1.0  0.72912  0.25729  0.16226  1.0000
  O   O8        1.0  0.72911  0.75729  0.33774  1.0000
  O   O9        1.0  0.69410  0.86374  0.91055  1.0000
  O   O10       1.0  0.69409  0.36374  0.58945  1.0000
  O   O11       1.0  0.30591  0.13626  0.08945  1.0000
  O   O12       1.0  0.30591  0.63625  0.41055  1.0000
