data_image0
_chemical_formula_structural       Ag2P2H28C20N6O4
_chemical_formula_sum              "Ag2 P2 H28 C20 N6 O4"
_cell_length_a       6.94455
_cell_length_b       9.73908
_cell_length_c       9.8087
_cell_angle_alpha    96.1625
_cell_angle_beta     108.229
_cell_angle_gamma    106.691

_space_group_name_H-M_alt    "P 1"
_space_group_IT_number       1

loop_
  _space_group_symop_operation_xyz
  'x, y, z'

loop_
  _atom_site_type_symbol
  _atom_site_label
  _atom_site_symmetry_multiplicity
  _atom_site_fract_x
  _atom_site_fract_y
  _atom_site_fract_z
  _atom_site_occupancy
  Ag  Ag1       1.0  0.53573  0.90171  0.85495  1.0000
  Ag  Ag2       1.0  0.46425  0.09828  0.14503  1.0000
  P   P1        1.0  0.74107  0.82294  0.74328  1.0000
  P   P2        1.0  0.25892  0.17705  0.25671  1.0000
  H   H1        1.0  0.87718  0.53100  0.02236  1.0000
  H   H2        1.0  0.12281  0.46900  0.97766  1.0000
  H   H3        1.0  0.21093  0.25674  0.88958  1.0000
  H   H4        1.0  0.78906  0.74327  0.11043  1.0000
  H   H5        1.0  0.11476  0.97865  0.88229  1.0000
  H   H6        1.0  0.88524  0.02134  0.11772  1.0000
  H   H7        1.0  0.05340  0.80895  0.93839  1.0000
  H   H8        1.0  0.94659  0.19104  0.06160  1.0000
  H   H9        1.0  0.60332  0.87195  0.49729  1.0000
  H   H10       1.0  0.39666  0.12804  0.50271  1.0000
  H   H11       1.0  0.84037  0.01746  0.61592  1.0000
  H   H12       1.0  0.15963  0.98255  0.38408  1.0000
  H   H13       1.0  0.66710  0.56282  0.74629  1.0000
  H   H14       1.0  0.33292  0.43718  0.25371  1.0000
  H   H15       1.0  0.49804  0.58978  0.58002  1.0000
  H   H16       1.0  0.50197  0.41021  0.41998  1.0000
  H   H17       1.0  0.18560  0.99538  0.66154  1.0000
  H   H18       1.0  0.81441  0.00462  0.33846  1.0000
  H   H19       1.0  0.21118  0.84055  0.56121  1.0000
  H   H20       1.0  0.78882  0.15946  0.43879  1.0000
  H   H21       1.0  0.12754  0.60789  0.63177  1.0000
  H   H22       1.0  0.87247  0.39213  0.36822  1.0000
  H   H23       1.0  0.03367  0.58835  0.78150  1.0000
  H   H24       1.0  0.96635  0.41164  0.21849  1.0000
  H   H25       1.0  0.89555  0.64300  0.40428  1.0000
  H   H26       1.0  0.10446  0.35701  0.59571  1.0000
  H   H27       1.0  0.63532  0.64879  0.39018  1.0000
  H   H28       1.0  0.36469  0.35121  0.60982  1.0000
  C   C1        1.0  0.60453  0.24717  0.89760  1.0000
  C   C2        1.0  0.39550  0.75284  0.10241  1.0000
  C   C3        1.0  0.54991  0.37798  0.94966  1.0000
  C   C4        1.0  0.45011  0.62204  0.05034  1.0000
  C   C5        1.0  0.71105  0.51637  0.01162  1.0000
  C   C6        1.0  0.28892  0.48364  0.98840  1.0000
  C   C7        1.0  0.33817  0.36325  0.93857  1.0000
  C   C8        1.0  0.66182  0.63672  0.06142  1.0000
  C   C9        1.0  0.03220  0.85943  0.84212  1.0000
  C   C10       1.0  0.96781  0.14057  0.15789  1.0000
  C   C11       1.0  0.76520  0.89735  0.58043  1.0000
  C   C12       1.0  0.23480  0.10265  0.41957  1.0000
  C   C13       1.0  0.66436  0.62599  0.65973  1.0000
  C   C14       1.0  0.33566  0.37401  0.34027  1.0000
  C   C15       1.0  0.11603  0.87612  0.61971  1.0000
  C   C16       1.0  0.88397  0.12388  0.38029  1.0000
  C   C17       1.0  0.03084  0.64303  0.68903  1.0000
  C   C18       1.0  0.96918  0.35697  0.31097  1.0000
  C   C19       1.0  0.80292  0.67813  0.46517  1.0000
  C   C20       1.0  0.19709  0.32187  0.53482  1.0000
  N   N1        1.0  0.13401  0.80404  0.74679  1.0000
  N   N2        1.0  0.86600  0.19596  0.25321  1.0000
  N   N3        1.0  0.89617  0.83798  0.51557  1.0000
  N   N4        1.0  0.10383  0.16202  0.48442  1.0000
  N   N5        1.0  0.80823  0.59883  0.58535  1.0000
  N   N6        1.0  0.19178  0.40118  0.41465  1.0000
  O   O1        1.0  0.48380  0.12126  0.90692  1.0000
  O   O2        1.0  0.51614  0.87873  0.09304  1.0000
  O   O3        1.0  0.75700  0.26598  0.85156  1.0000
  O   O4        1.0  0.24299  0.73402  0.14848  1.0000
