data_image0
_chemical_formula_structural       Cu12H24C36I8N12O8
_chemical_formula_sum              "Cu12 H24 C36 I8 N12 O8"
_cell_length_a       9.79678
_cell_length_b       10.8375
_cell_length_c       13.0253
_cell_angle_alpha    94.8824
_cell_angle_beta     90.0001
_cell_angle_gamma    90.0002

_space_group_name_H-M_alt    "P 1"
_space_group_IT_number       1

loop_
  _space_group_symop_operation_xyz
  'x, y, z'

loop_
  _atom_site_type_symbol
  _atom_site_label
  _atom_site_symmetry_multiplicity
  _atom_site_fract_x
  _atom_site_fract_y
  _atom_site_fract_z
  _atom_site_occupancy
  Cu  Cu1       1.0  0.32215  0.52618  0.53571  1.0000
  Cu  Cu2       1.0  0.82216  0.47382  0.96429  1.0000
  Cu  Cu3       1.0  0.67784  0.47381  0.46428  1.0000
  Cu  Cu4       1.0  0.17785  0.52618  0.03571  1.0000
  Cu  Cu5       1.0  0.06223  0.61377  0.50382  1.0000
  Cu  Cu6       1.0  0.56224  0.38623  0.99618  1.0000
  Cu  Cu7       1.0  0.93776  0.38622  0.49618  1.0000
  Cu  Cu8       1.0  0.43776  0.61378  0.00382  1.0000
  Cu  Cu9       1.0  0.10217  0.48235  0.64493  1.0000
  Cu  Cu10      1.0  0.60218  0.51765  0.85507  1.0000
  Cu  Cu11      1.0  0.89782  0.51764  0.35507  1.0000
  Cu  Cu12      1.0  0.39782  0.48235  0.14493  1.0000
  H   H1        1.0  0.12194  0.17424  0.30151  1.0000
  H   H2        1.0  0.62193  0.82576  0.19848  1.0000
  H   H3        1.0  0.87807  0.82576  0.69849  1.0000
  H   H4        1.0  0.37806  0.17424  0.80152  1.0000
  H   H5        1.0  0.11590  0.98571  0.39836  1.0000
  H   H6        1.0  0.61589  0.01429  0.10163  1.0000
  H   H7        1.0  0.88411  0.01429  0.60163  1.0000
  H   H8        1.0  0.38410  0.98571  0.89837  1.0000
  H   H9        1.0  0.88046  0.79521  0.15580  1.0000
  H   H10       1.0  0.38046  0.20478  0.34419  1.0000
  H   H11       1.0  0.11955  0.20479  0.84420  1.0000
  H   H12       1.0  0.61954  0.79522  0.65581  1.0000
  H   H13       1.0  0.88780  0.98288  0.05666  1.0000
  H   H14       1.0  0.38780  0.01711  0.44333  1.0000
  H   H15       1.0  0.11221  0.01712  0.94334  1.0000
  H   H16       1.0  0.61220  0.98289  0.55667  1.0000
  H   H17       1.0  0.80098  0.20645  0.05838  1.0000
  H   H18       1.0  0.30098  0.79354  0.44161  1.0000
  H   H19       1.0  0.19903  0.79354  0.94161  1.0000
  H   H20       1.0  0.69902  0.20645  0.55839  1.0000
  H   H21       1.0  0.21132  0.27344  0.15526  1.0000
  H   H22       1.0  0.71132  0.72656  0.34475  1.0000
  H   H23       1.0  0.78868  0.72657  0.84475  1.0000
  H   H24       1.0  0.28868  0.27344  0.65526  1.0000
  C   C1        1.0  0.00677  0.08844  0.17326  1.0000
  C   C2        1.0  0.50677  0.91156  0.32674  1.0000
  C   C3        1.0  0.99324  0.91157  0.82675  1.0000
  C   C4        1.0  0.49323  0.08844  0.67326  1.0000
  C   C5        1.0  0.07228  0.08996  0.26865  1.0000
  C   C6        1.0  0.57227  0.91004  0.23134  1.0000
  C   C7        1.0  0.92773  0.91004  0.73135  1.0000
  C   C8        1.0  0.42772  0.08996  0.76865  1.0000
  C   C9        1.0  0.06757  0.98524  0.32304  1.0000
  C   C10       1.0  0.56757  0.01477  0.17696  1.0000
  C   C11       1.0  0.93243  0.01476  0.67696  1.0000
  C   C12       1.0  0.43243  0.98523  0.82304  1.0000
  C   C13       1.0  0.99751  0.87910  0.28315  1.0000
  C   C14       1.0  0.49751  0.12090  0.21685  1.0000
  C   C15       1.0  0.00249  0.12090  0.71685  1.0000
  C   C16       1.0  0.50248  0.87910  0.78315  1.0000
  C   C17       1.0  0.93289  0.87890  0.18696  1.0000
  C   C18       1.0  0.43289  0.12110  0.31304  1.0000
  C   C19       1.0  0.06712  0.12110  0.81304  1.0000
  C   C20       1.0  0.56711  0.87890  0.68696  1.0000
  C   C21       1.0  0.93728  0.98308  0.13164  1.0000
  C   C22       1.0  0.43728  0.01692  0.36835  1.0000
  C   C23       1.0  0.06273  0.01692  0.86836  1.0000
  C   C24       1.0  0.56272  0.98308  0.63165  1.0000
  C   C25       1.0  0.90164  0.24766  0.06894  1.0000
  C   C26       1.0  0.40164  0.75234  0.43105  1.0000
  C   C27       1.0  0.09837  0.75234  0.93106  1.0000
  C   C28       1.0  0.59836  0.24766  0.56895  1.0000
  C   C29       1.0  0.11103  0.28362  0.12122  1.0000
  C   C30       1.0  0.61103  0.71639  0.37878  1.0000
  C   C31       1.0  0.88898  0.71639  0.87878  1.0000
  C   C32       1.0  0.38897  0.28362  0.62123  1.0000
  C   C33       1.0  0.99119  0.76682  0.34225  1.0000
  C   C34       1.0  0.49119  0.23318  0.15775  1.0000
  C   C35       1.0  0.00881  0.23318  0.65775  1.0000
  C   C36       1.0  0.50881  0.76682  0.84226  1.0000
  I   I1        1.0  0.83460  0.57768  0.61433  1.0000
  I   I2        1.0  0.33460  0.42232  0.88567  1.0000
  I   I3        1.0  0.16539  0.42231  0.38567  1.0000
  I   I4        1.0  0.66540  0.57768  0.11433  1.0000
  I   I5        1.0  0.22293  0.68770  0.67705  1.0000
  I   I6        1.0  0.72294  0.31230  0.82294  1.0000
  I   I7        1.0  0.77706  0.31229  0.32295  1.0000
  I   I8        1.0  0.27706  0.68770  0.17706  1.0000
  N   N1        1.0  0.00801  0.19812  0.12024  1.0000
  N   N2        1.0  0.50801  0.80188  0.37976  1.0000
  N   N3        1.0  0.99200  0.80188  0.87977  1.0000
  N   N4        1.0  0.49199  0.19813  0.62024  1.0000
  N   N5        1.0  0.07092  0.37905  0.07228  1.0000
  N   N6        1.0  0.57091  0.62095  0.42772  1.0000
  N   N7        1.0  0.92909  0.62095  0.92772  1.0000
  N   N8        1.0  0.42908  0.37905  0.57228  1.0000
  N   N9        1.0  0.93836  0.35622  0.03927  1.0000
  N   N10       1.0  0.43836  0.64378  0.46073  1.0000
  N   N11       1.0  0.06164  0.64378  0.96073  1.0000
  N   N12       1.0  0.56163  0.35622  0.53927  1.0000
  O   O1        1.0  0.90993  0.68082  0.30640  1.0000
  O   O2        1.0  0.40994  0.31918  0.19360  1.0000
  O   O3        1.0  0.09007  0.31918  0.69360  1.0000
  O   O4        1.0  0.59006  0.68083  0.80641  1.0000
  O   O5        1.0  0.06352  0.76442  0.42322  1.0000
  O   O6        1.0  0.56352  0.23558  0.07678  1.0000
  O   O7        1.0  0.93648  0.23557  0.57678  1.0000
  O   O8        1.0  0.43648  0.76442  0.92322  1.0000
