data_image0
_chemical_formula_structural       Na4H36C36S4N8O32
_chemical_formula_sum              "Na4 H36 C36 S4 N8 O32"
_cell_length_a       7.87049
_cell_length_b       11.6358
_cell_length_c       14.534
_cell_angle_alpha    90
_cell_angle_beta     91.0683
_cell_angle_gamma    90

_space_group_name_H-M_alt    "P 1"
_space_group_IT_number       1

loop_
  _space_group_symop_operation_xyz
  'x, y, z'

loop_
  _atom_site_type_symbol
  _atom_site_label
  _atom_site_symmetry_multiplicity
  _atom_site_fract_x
  _atom_site_fract_y
  _atom_site_fract_z
  _atom_site_occupancy
  Na  Na1       1.0  0.56279  0.14489  0.34101  1.0000
  Na  Na2       1.0  0.06279  0.35511  0.84101  1.0000
  Na  Na3       1.0  0.43721  0.85511  0.65899  1.0000
  Na  Na4       1.0  0.93721  0.64489  0.15899  1.0000
  H   H1        1.0  0.54270  0.20450  0.54230  1.0000
  H   H2        1.0  0.04271  0.29550  0.04229  1.0000
  H   H3        1.0  0.45730  0.79550  0.45771  1.0000
  H   H4        1.0  0.95729  0.70450  0.95770  1.0000
  H   H5        1.0  0.91089  0.77297  0.34033  1.0000
  H   H6        1.0  0.41089  0.72703  0.84033  1.0000
  H   H7        1.0  0.08911  0.22703  0.65967  1.0000
  H   H8        1.0  0.58911  0.27297  0.15967  1.0000
  H   H9        1.0  0.25046  0.46656  0.37104  1.0000
  H   H10       1.0  0.75046  0.03344  0.87104  1.0000
  H   H11       1.0  0.74955  0.53344  0.62897  1.0000
  H   H12       1.0  0.24954  0.96656  0.12896  1.0000
  H   H13       1.0  0.05702  0.71396  0.56337  1.0000
  H   H14       1.0  0.55703  0.78604  0.06337  1.0000
  H   H15       1.0  0.94297  0.28604  0.43663  1.0000
  H   H16       1.0  0.44298  0.21396  0.93663  1.0000
  H   H17       1.0  0.34667  0.42254  0.66152  1.0000
  H   H18       1.0  0.84667  0.07747  0.16152  1.0000
  H   H19       1.0  0.65333  0.57747  0.33848  1.0000
  H   H20       1.0  0.15332  0.92254  0.83848  1.0000
  H   H21       1.0  0.79238  0.95214  0.42472  1.0000
  H   H22       1.0  0.29238  0.54786  0.92471  1.0000
  H   H23       1.0  0.20762  0.04787  0.57529  1.0000
  H   H24       1.0  0.70762  0.45213  0.07529  1.0000
  H   H25       1.0  0.84585  0.87544  0.52411  1.0000
  H   H26       1.0  0.34585  0.62456  0.02410  1.0000
  H   H27       1.0  0.15416  0.12456  0.47590  1.0000
  H   H28       1.0  0.65416  0.37544  0.97589  1.0000
  H   H29       1.0  0.64050  0.07565  0.67307  1.0000
  H   H30       1.0  0.14050  0.42435  0.17307  1.0000
  H   H31       1.0  0.35950  0.92435  0.32693  1.0000
  H   H32       1.0  0.85950  0.57565  0.82693  1.0000
  H   H33       1.0  0.76873  0.95438  0.66951  1.0000
  H   H34       1.0  0.26873  0.54561  0.16951  1.0000
  H   H35       1.0  0.23127  0.04561  0.33049  1.0000
  H   H36       1.0  0.73127  0.45439  0.83049  1.0000
  C   C1        1.0  0.39782  0.32456  0.49221  1.0000
  C   C2        1.0  0.89781  0.17544  0.99221  1.0000
  C   C3        1.0  0.60219  0.67544  0.50779  1.0000
  C   C4        1.0  0.10218  0.82456  0.00779  1.0000
  C   C5        1.0  0.07559  0.66113  0.37771  1.0000
  C   C6        1.0  0.57559  0.83887  0.87771  1.0000
  C   C7        1.0  0.92441  0.33887  0.62229  1.0000
  C   C8        1.0  0.42441  0.16113  0.12229  1.0000
  C   C9        1.0  0.30893  0.43416  0.51386  1.0000
  C   C10       1.0  0.80894  0.06584  0.01386  1.0000
  C   C11       1.0  0.69107  0.56584  0.48614  1.0000
  C   C12       1.0  0.19106  0.93416  0.98614  1.0000
  C   C13       1.0  0.23922  0.49785  0.44124  1.0000
  C   C14       1.0  0.73922  0.00215  0.94124  1.0000
  C   C15       1.0  0.76079  0.50215  0.55876  1.0000
  C   C16       1.0  0.26078  0.99784  0.05876  1.0000
  C   C17       1.0  0.15162  0.59996  0.45829  1.0000
  C   C18       1.0  0.65162  0.90004  0.95829  1.0000
  C   C19       1.0  0.84838  0.40004  0.54171  1.0000
  C   C20       1.0  0.34838  0.09996  0.04171  1.0000
  C   C21       1.0  0.13047  0.63702  0.54898  1.0000
  C   C22       1.0  0.63048  0.86298  0.04898  1.0000
  C   C23       1.0  0.86953  0.36298  0.45102  1.0000
  C   C24       1.0  0.36953  0.13702  0.95102  1.0000
  C   C25       1.0  0.20156  0.57276  0.62138  1.0000
  C   C26       1.0  0.70156  0.92724  0.12138  1.0000
  C   C27       1.0  0.79844  0.42724  0.37862  1.0000
  C   C28       1.0  0.29844  0.07276  0.87862  1.0000
  C   C29       1.0  0.29262  0.47241  0.60475  1.0000
  C   C30       1.0  0.79262  0.02759  0.10475  1.0000
  C   C31       1.0  0.70738  0.52759  0.39526  1.0000
  C   C32       1.0  0.20738  0.97241  0.89525  1.0000
  C   C33       1.0  0.71270  0.02672  0.54231  1.0000
  C   C34       1.0  0.21270  0.47328  0.04231  1.0000
  C   C35       1.0  0.28730  0.97328  0.45769  1.0000
  C   C36       1.0  0.78730  0.52672  0.95769  1.0000
  S   S1        1.0  0.17148  0.62065  0.73670  1.0000
  S   S2        1.0  0.67149  0.87935  0.23669  1.0000
  S   S3        1.0  0.82851  0.37935  0.26331  1.0000
  S   S4        1.0  0.32851  0.12065  0.76330  1.0000
  N   N1        1.0  0.80179  0.94869  0.49484  1.0000
  N   N2        1.0  0.30179  0.55131  0.99484  1.0000
  N   N3        1.0  0.19821  0.05131  0.50516  1.0000
  N   N4        1.0  0.69821  0.44869  0.00516  1.0000
  N   N5        1.0  0.70001  0.01431  0.63450  1.0000
  N   N6        1.0  0.20001  0.48569  0.13449  1.0000
  N   N7        1.0  0.29999  0.98569  0.36551  1.0000
  N   N8        1.0  0.79999  0.51431  0.86551  1.0000
  O   O1        1.0  0.47694  0.27733  0.56376  1.0000
  O   O2        1.0  0.97694  0.22267  0.06375  1.0000
  O   O3        1.0  0.52307  0.72267  0.43625  1.0000
  O   O4        1.0  0.02306  0.77733  0.93624  1.0000
  O   O5        1.0  0.39500  0.28336  0.41346  1.0000
  O   O6        1.0  0.89498  0.21665  0.91346  1.0000
  O   O7        1.0  0.60501  0.71664  0.58655  1.0000
  O   O8        1.0  0.10500  0.78336  0.08654  1.0000
  O   O9        1.0  0.97527  0.74964  0.39888  1.0000
  O   O10       1.0  0.47527  0.75036  0.89888  1.0000
  O   O11       1.0  0.02474  0.25036  0.60112  1.0000
  O   O12       1.0  0.52473  0.24964  0.10112  1.0000
  O   O13       1.0  0.09938  0.62981  0.29782  1.0000
  O   O14       1.0  0.59939  0.87019  0.79782  1.0000
  O   O15       1.0  0.90062  0.37018  0.70218  1.0000
  O   O16       1.0  0.40062  0.12981  0.20218  1.0000
  O   O17       1.0  0.21836  0.52381  0.79742  1.0000
  O   O18       1.0  0.71836  0.97619  0.29742  1.0000
  O   O19       1.0  0.78164  0.47619  0.20258  1.0000
  O   O20       1.0  0.28163  0.02381  0.70258  1.0000
  O   O21       1.0  0.99433  0.65667  0.74161  1.0000
  O   O22       1.0  0.49434  0.84333  0.24161  1.0000
  O   O23       1.0  0.00566  0.34333  0.25839  1.0000
  O   O24       1.0  0.50566  0.15667  0.75839  1.0000
  O   O25       1.0  0.29280  0.71772  0.74869  1.0000
  O   O26       1.0  0.79280  0.78228  0.24869  1.0000
  O   O27       1.0  0.70720  0.28228  0.25131  1.0000
  O   O28       1.0  0.20719  0.21772  0.75131  1.0000
  O   O29       1.0  0.64138  0.10969  0.49941  1.0000
  O   O30       1.0  0.14139  0.39031  0.99941  1.0000
  O   O31       1.0  0.35861  0.89031  0.50059  1.0000
  O   O32       1.0  0.85861  0.60969  0.00059  1.0000
