data_image0
_chemical_formula_structural       Cu2H28C34N4O14
_chemical_formula_sum              "Cu2 H28 C34 N4 O14"
_cell_length_a       8.53404
_cell_length_b       10.0821
_cell_length_c       10.5823
_cell_angle_alpha    62.2523
_cell_angle_beta     87.6248
_cell_angle_gamma    76.9448

_space_group_name_H-M_alt    "P 1"
_space_group_IT_number       1

loop_
  _space_group_symop_operation_xyz
  'x, y, z'

loop_
  _atom_site_type_symbol
  _atom_site_label
  _atom_site_symmetry_multiplicity
  _atom_site_fract_x
  _atom_site_fract_y
  _atom_site_fract_z
  _atom_site_occupancy
  Cu  Cu1       1.0  0.59967  0.83415  0.82331  1.0000
  Cu  Cu2       1.0  0.40034  0.16586  0.17668  1.0000
  H   H1        1.0  0.53378  0.61684  0.08090  1.0000
  H   H2        1.0  0.46622  0.38317  0.91909  1.0000
  H   H3        1.0  0.50305  0.77895  0.08557  1.0000
  H   H4        1.0  0.49695  0.22106  0.91443  1.0000
  H   H5        1.0  0.40205  0.93520  0.56305  1.0000
  H   H6        1.0  0.59795  0.06480  0.43695  1.0000
  H   H7        1.0  0.11914  0.06076  0.46804  1.0000
  H   H8        1.0  0.88086  0.93923  0.53196  1.0000
  H   H9        1.0  0.91922  0.13143  0.62259  1.0000
  H   H10       1.0  0.08078  0.86857  0.37740  1.0000
  H   H11       1.0  0.02168  0.07584  0.86573  1.0000
  H   H12       1.0  0.97831  0.92417  0.13427  1.0000
  H   H13       1.0  0.31127  0.94837  0.94637  1.0000
  H   H14       1.0  0.68873  0.05163  0.05363  1.0000
  H   H15       1.0  0.80098  0.78392  0.06282  1.0000
  H   H16       1.0  0.19902  0.21608  0.93718  1.0000
  H   H17       1.0  0.09291  0.68042  0.15086  1.0000
  H   H18       1.0  0.90709  0.31958  0.84914  1.0000
  H   H19       1.0  0.28827  0.58934  0.00613  1.0000
  H   H20       1.0  0.71173  0.41066  0.99387  1.0000
  H   H21       1.0  0.17896  0.60197  0.78345  1.0000
  H   H22       1.0  0.82104  0.39804  0.21654  1.0000
  H   H23       1.0  0.88406  0.70683  0.71208  1.0000
  H   H24       1.0  0.11594  0.29317  0.28792  1.0000
  H   H25       1.0  0.67473  0.71814  0.44639  1.0000
  H   H26       1.0  0.32526  0.28186  0.55361  1.0000
  H   H27       1.0  0.28919  0.71672  0.55244  1.0000
  H   H28       1.0  0.71081  0.28327  0.44756  1.0000
  C   C1        1.0  0.31430  0.96696  0.62747  1.0000
  C   C2        1.0  0.68570  0.03305  0.37253  1.0000
  C   C3        1.0  0.15457  0.03801  0.57501  1.0000
  C   C4        1.0  0.84543  0.96199  0.42498  1.0000
  C   C5        1.0  0.04562  0.07808  0.66014  1.0000
  C   C6        1.0  0.95438  0.92192  0.33986  1.0000
  C   C7        1.0  0.10188  0.04649  0.79522  1.0000
  C   C8        1.0  0.89811  0.95351  0.20478  1.0000
  C   C9        1.0  0.26322  0.97430  0.84165  1.0000
  C   C10       1.0  0.73677  0.02570  0.15835  1.0000
  C   C11       1.0  0.89044  0.74620  0.00297  1.0000
  C   C12       1.0  0.10956  0.25380  0.99702  1.0000
  C   C13       1.0  0.05270  0.68819  0.05070  1.0000
  C   C14       1.0  0.94731  0.31182  0.94930  1.0000
  C   C15       1.0  0.16062  0.63710  0.97114  1.0000
  C   C16       1.0  0.83938  0.36291  0.02886  1.0000
  C   C17       1.0  0.10103  0.64494  0.84672  1.0000
  C   C18       1.0  0.89897  0.35506  0.15327  1.0000
  C   C19       1.0  0.93711  0.70325  0.80572  1.0000
  C   C20       1.0  0.06289  0.29676  0.19429  1.0000
  C   C21       1.0  0.55771  0.62244  0.71612  1.0000
  C   C22       1.0  0.44229  0.37756  0.28389  1.0000
  C   C23       1.0  0.53901  0.55921  0.61138  1.0000
  C   C24       1.0  0.46099  0.44079  0.38862  1.0000
  C   C25       1.0  0.61632  0.62534  0.46462  1.0000
  C   C26       1.0  0.38368  0.37465  0.53539  1.0000
  C   C27       1.0  0.71956  0.50335  0.43424  1.0000
  C   C28       1.0  0.28042  0.49664  0.56577  1.0000
  C   C29       1.0  0.36287  0.62443  0.53382  1.0000
  C   C30       1.0  0.63713  0.37556  0.46619  1.0000
  C   C31       1.0  0.55972  0.31855  0.61337  1.0000
  C   C32       1.0  0.44028  0.68144  0.38664  1.0000
  C   C33       1.0  0.60025  0.14488  0.71702  1.0000
  C   C34       1.0  0.39975  0.85511  0.28299  1.0000
  N   N1        1.0  0.36731  0.93362  0.75944  1.0000
  N   N2        1.0  0.63270  0.06638  0.24056  1.0000
  N   N3        1.0  0.83381  0.75370  0.88219  1.0000
  N   N4        1.0  0.16619  0.24631  0.11781  1.0000
  O   O1        1.0  0.62005  0.73822  0.67064  1.0000
  O   O2        1.0  0.37994  0.26177  0.32936  1.0000
  O   O3        1.0  0.50244  0.55857  0.83663  1.0000
  O   O4        1.0  0.49757  0.44142  0.16338  1.0000
  O   O5        1.0  0.64204  0.05597  0.66076  1.0000
  O   O6        1.0  0.35795  0.94404  0.33923  1.0000
  O   O7        1.0  0.57972  0.10220  0.84769  1.0000
  O   O8        1.0  0.42028  0.89779  0.15231  1.0000
  O   O9        1.0  0.58434  0.39596  0.69073  1.0000
  O   O10       1.0  0.41566  0.60403  0.30927  1.0000
  O   O11       1.0  0.85135  0.50997  0.38333  1.0000
  O   O12       1.0  0.14867  0.49002  0.61666  1.0000
  O   O13       1.0  0.55915  0.72095  0.03499  1.0000
  O   O14       1.0  0.44085  0.27905  0.96501  1.0000
