data_image0
_chemical_formula_structural       La2H44C62N4O14F6
_chemical_formula_sum              "La2 H44 C62 N4 O14 F6"
_cell_length_a       9.70225
_cell_length_b       12.6911
_cell_length_c       13.315
_cell_angle_alpha    113.304
_cell_angle_beta     104.831
_cell_angle_gamma    96.8729

_space_group_name_H-M_alt    "P 1"
_space_group_IT_number       1

loop_
  _space_group_symop_operation_xyz
  'x, y, z'

loop_
  _atom_site_type_symbol
  _atom_site_label
  _atom_site_symmetry_multiplicity
  _atom_site_fract_x
  _atom_site_fract_y
  _atom_site_fract_z
  _atom_site_occupancy
  La  La1       1.0  0.26897  0.46239  0.47521  1.0000
  La  La2       1.0  0.73102  0.53761  0.52479  1.0000
  H   H1        1.0  0.61428  0.14251  0.69666  1.0000
  H   H2        1.0  0.38572  0.85749  0.30335  1.0000
  H   H3        1.0  0.34239  0.11853  0.61888  1.0000
  H   H4        1.0  0.65760  0.88147  0.38112  1.0000
  H   H5        1.0  0.17202  0.91737  0.51956  1.0000
  H   H6        1.0  0.82798  0.08263  0.48045  1.0000
  H   H7        1.0  0.27442  0.74122  0.49671  1.0000
  H   H8        1.0  0.72558  0.25878  0.50330  1.0000
  H   H9        1.0  0.81718  0.53955  0.09455  1.0000
  H   H10       1.0  0.18282  0.46045  0.90545  1.0000
  H   H11       1.0  0.63910  0.36288  0.06738  1.0000
  H   H12       1.0  0.36090  0.63712  0.93263  1.0000
  H   H13       1.0  0.42798  0.25080  0.88080  1.0000
  H   H14       1.0  0.57202  0.74920  0.11920  1.0000
  H   H15       1.0  0.39745  0.31941  0.72593  1.0000
  H   H16       1.0  0.60255  0.68059  0.27407  1.0000
  H   H17       1.0  0.88552  0.90173  0.28706  1.0000
  H   H18       1.0  0.11449  0.09827  0.71294  1.0000
  H   H19       1.0  0.02985  0.84869  0.14970  1.0000
  H   H20       1.0  0.97015  0.15131  0.85031  1.0000
  H   H21       1.0  0.15703  0.68499  0.13259  1.0000
  H   H22       1.0  0.84297  0.31501  0.86742  1.0000
  H   H23       1.0  0.13838  0.57758  0.25178  1.0000
  H   H24       1.0  0.86162  0.42242  0.74822  1.0000
  H   H25       1.0  0.04143  0.37141  0.17704  1.0000
  H   H26       1.0  0.95857  0.62859  0.82296  1.0000
  H   H27       1.0  0.84320  0.21450  0.00169  1.0000
  H   H28       1.0  0.15680  0.78550  0.99831  1.0000
  H   H29       1.0  0.86698  0.99561  0.18183  1.0000
  H   H30       1.0  0.13302  0.00439  0.81816  1.0000
  H   H31       1.0  0.06505  0.16230  0.34922  1.0000
  H   H32       1.0  0.93495  0.83770  0.65078  1.0000
  H   H33       1.0  0.38140  0.95173  0.78370  1.0000
  H   H34       1.0  0.61860  0.04827  0.21630  1.0000
  H   H35       1.0  0.59861  0.11388  0.93070  1.0000
  H   H36       1.0  0.40139  0.88612  0.06930  1.0000
  H   H37       1.0  0.78934  0.84718  0.99837  1.0000
  H   H38       1.0  0.21066  0.15282  0.00163  1.0000
  H   H39       1.0  0.56182  0.69819  0.85158  1.0000
  H   H40       1.0  0.43818  0.30180  0.14842  1.0000
  H   H41       1.0  0.30790  0.70473  0.70536  1.0000
  H   H42       1.0  0.69210  0.29527  0.29464  1.0000
  H   H43       1.0  0.13549  0.63249  0.65205  1.0000
  H   H44       1.0  0.86451  0.36751  0.34795  1.0000
  C   C1        1.0  0.55712  0.73305  0.56062  1.0000
  C   C2        1.0  0.44290  0.26696  0.43938  1.0000
  C   C3        1.0  0.49909  0.84067  0.57896  1.0000
  C   C4        1.0  0.50090  0.15933  0.42104  1.0000
  C   C5        1.0  0.59113  0.95557  0.63606  1.0000
  C   C6        1.0  0.40887  0.04443  0.36394  1.0000
  C   C7        1.0  0.53730  0.05556  0.65224  1.0000
  C   C8        1.0  0.46270  0.94445  0.34777  1.0000
  C   C9        1.0  0.38591  0.04136  0.60950  1.0000
  C   C10       1.0  0.61409  0.95864  0.39050  1.0000
  C   C11       1.0  0.29032  0.92833  0.55322  1.0000
  C   C12       1.0  0.70968  0.07167  0.44678  1.0000
  C   C13       1.0  0.34707  0.82967  0.53894  1.0000
  C   C14       1.0  0.65293  0.17033  0.46106  1.0000
  C   C15       1.0  0.56767  0.49580  0.72063  1.0000
  C   C16       1.0  0.43235  0.50421  0.27937  1.0000
  C   C17       1.0  0.59127  0.46139  0.81913  1.0000
  C   C18       1.0  0.40872  0.53861  0.18087  1.0000
  C   C19       1.0  0.70738  0.52106  0.92439  1.0000
  C   C20       1.0  0.29262  0.47894  0.07561  1.0000
  C   C21       1.0  0.72628  0.48760  0.01361  1.0000
  C   C22       1.0  0.27372  0.51239  0.98638  1.0000
  C   C23       1.0  0.62588  0.38896  0.99732  1.0000
  C   C24       1.0  0.37412  0.61104  0.00268  1.0000
  C   C25       1.0  0.50808  0.32682  0.89331  1.0000
  C   C26       1.0  0.49192  0.67318  0.10669  1.0000
  C   C27       1.0  0.49065  0.36393  0.80633  1.0000
  C   C28       1.0  0.50935  0.63607  0.19367  1.0000
  C   C29       1.0  0.99016  0.60478  0.40014  1.0000
  C   C30       1.0  0.00982  0.39522  0.59987  1.0000
  C   C31       1.0  0.99913  0.67455  0.33215  1.0000
  C   C32       1.0  0.00088  0.32544  0.66785  1.0000
  C   C33       1.0  0.93118  0.76760  0.34012  1.0000
  C   C34       1.0  0.06882  0.23240  0.65988  1.0000
  C   C35       1.0  0.94006  0.82958  0.27515  1.0000
  C   C36       1.0  0.05994  0.17042  0.72485  1.0000
  C   C37       1.0  0.02094  0.79960  0.19981  1.0000
  C   C38       1.0  0.97906  0.20040  0.80019  1.0000
  C   C39       1.0  0.09278  0.70882  0.19088  1.0000
  C   C40       1.0  0.90722  0.29118  0.80912  1.0000
  C   C41       1.0  0.08166  0.64771  0.25637  1.0000
  C   C42       1.0  0.91835  0.35229  0.74363  1.0000
  C   C43       1.0  0.99906  0.28650  0.17419  1.0000
  C   C44       1.0  0.00094  0.71350  0.82581  1.0000
  C   C45       1.0  0.88865  0.19822  0.07647  1.0000
  C   C46       1.0  0.11136  0.80179  0.92353  1.0000
  C   C47       1.0  0.83738  0.08997  0.07634  1.0000
  C   C48       1.0  0.16262  0.91003  0.92366  1.0000
  C   C49       1.0  0.90380  0.07684  0.17603  1.0000
  C   C50       1.0  0.09619  0.92316  0.82397  1.0000
  C   C51       1.0  0.01275  0.16976  0.27032  1.0000
  C   C52       1.0  0.98725  0.83023  0.72968  1.0000
  C   C53       1.0  0.47365  0.93238  0.83435  1.0000
  C   C54       1.0  0.52635  0.06762  0.16565  1.0000
  C   C55       1.0  0.59651  0.02271  0.91550  1.0000
  C   C56       1.0  0.40349  0.97729  0.08450  1.0000
  C   C57       1.0  0.71288  0.99563  0.98033  1.0000
  C   C58       1.0  0.28712  0.00437  0.01967  1.0000
  C   C59       1.0  0.70081  0.87577  0.95507  1.0000
  C   C60       1.0  0.29918  0.12423  0.04493  1.0000
  C   C61       1.0  0.57360  0.79154  0.87233  1.0000
  C   C62       1.0  0.42640  0.20846  0.12767  1.0000
  N   N1        1.0  0.05983  0.27392  0.27040  1.0000
  N   N2        1.0  0.94018  0.72607  0.72960  1.0000
  N   N3        1.0  0.45980  0.81849  0.81371  1.0000
  N   N4        1.0  0.54020  0.18151  0.18629  1.0000
  O   O1        1.0  0.47132  0.63714  0.54146  1.0000
  O   O2        1.0  0.52867  0.36285  0.45854  1.0000
  O   O3        1.0  0.68914  0.73939  0.56325  1.0000
  O   O4        1.0  0.31086  0.26061  0.43675  1.0000
  O   O5        1.0  0.43462  0.48101  0.66364  1.0000
  O   O6        1.0  0.56537  0.51900  0.33635  1.0000
  O   O7        1.0  0.68067  0.53458  0.70170  1.0000
  O   O8        1.0  0.31931  0.46542  0.29830  1.0000
  O   O9        1.0  0.05937  0.52351  0.38370  1.0000
  O   O10       1.0  0.94064  0.47647  0.61629  1.0000
  O   O11       1.0  0.91583  0.62911  0.46792  1.0000
  O   O12       1.0  0.08419  0.37088  0.53206  1.0000
  O   O13       1.0  0.22874  0.63741  0.63714  1.0000
  O   O14       1.0  0.77126  0.36259  0.36286  1.0000
  F   F1        1.0  0.73926  0.97362  0.68200  1.0000
  F   F2        1.0  0.26073  0.02638  0.31800  1.0000
  F   F3        1.0  0.80514  0.62028  0.94436  1.0000
  F   F4        1.0  0.19486  0.37972  0.05564  1.0000
  F   F5        1.0  0.85464  0.80350  0.41509  1.0000
  F   F6        1.0  0.14536  0.19650  0.58491  1.0000
