data_image0
_chemical_formula_structural       Cu2H16C14O18
_chemical_formula_sum              "Cu2 H16 C14 O18"
_cell_length_a       7.60615
_cell_length_b       8.13946
_cell_length_c       9.31156
_cell_angle_alpha    65.6005
_cell_angle_beta     79.8115
_cell_angle_gamma    62.2529

_space_group_name_H-M_alt    "P 1"
_space_group_IT_number       1

loop_
  _space_group_symop_operation_xyz
  'x, y, z'

loop_
  _atom_site_type_symbol
  _atom_site_label
  _atom_site_symmetry_multiplicity
  _atom_site_fract_x
  _atom_site_fract_y
  _atom_site_fract_z
  _atom_site_occupancy
  Cu  Cu1       1.0  0.69666  0.59678  0.35389  1.0000
  Cu  Cu2       1.0  0.30333  0.40323  0.64611  1.0000
  H   H1        1.0  0.37767  0.86131  0.19433  1.0000
  H   H2        1.0  0.62232  0.13869  0.80567  1.0000
  H   H3        1.0  0.37893  0.93207  0.33275  1.0000
  H   H4        1.0  0.62106  0.06794  0.66725  1.0000
  H   H5        1.0  0.92236  0.27433  0.56199  1.0000
  H   H6        1.0  0.07763  0.72568  0.43800  1.0000
  H   H7        1.0  0.07176  0.29641  0.42120  1.0000
  H   H8        1.0  0.92824  0.70359  0.57880  1.0000
  H   H9        1.0  0.09638  0.93564  0.09765  1.0000
  H   H10       1.0  0.90363  0.06437  0.90236  1.0000
  H   H11       1.0  0.02761  0.81028  0.87625  1.0000
  H   H12       1.0  0.97239  0.18972  0.12376  1.0000
  H   H13       1.0  0.46983  0.87963  0.82581  1.0000
  H   H14       1.0  0.53018  0.12037  0.17418  1.0000
  H   H15       1.0  0.86692  0.42916  0.86954  1.0000
  H   H16       1.0  0.13309  0.57083  0.13046  1.0000
  C   C1        1.0  0.78986  0.66731  0.02290  1.0000
  C   C2        1.0  0.21014  0.33270  0.97712  1.0000
  C   C3        1.0  0.64760  0.58539  0.01886  1.0000
  C   C4        1.0  0.35241  0.41461  0.98113  1.0000
  C   C5        1.0  0.46861  0.73492  0.89786  1.0000
  C   C6        1.0  0.53139  0.26506  0.10215  1.0000
  C   C7        1.0  0.26859  0.76321  0.97562  1.0000
  C   C8        1.0  0.73142  0.23679  0.02438  1.0000
  C   C9        1.0  0.72540  0.44246  0.92757  1.0000
  C   C10       1.0  0.27460  0.55754  0.07244  1.0000
  C   C11       1.0  0.45972  0.41429  0.18720  1.0000
  C   C12       1.0  0.54029  0.58571  0.81280  1.0000
  C   C13       1.0  0.38969  0.34974  0.35652  1.0000
  C   C14       1.0  0.61030  0.65026  0.64348  1.0000
  O   O1        1.0  0.46373  0.86220  0.26466  1.0000
  O   O2        1.0  0.53626  0.13781  0.73534  1.0000
  O   O3        1.0  0.92868  0.32501  0.44725  1.0000
  O   O4        1.0  0.07131  0.67499  0.55275  1.0000
  O   O5        1.0  0.82394  0.66781  0.15265  1.0000
  O   O6        1.0  0.17605  0.33220  0.84734  1.0000
  O   O7        1.0  0.86965  0.72989  0.89466  1.0000
  O   O8        1.0  0.13035  0.27011  0.10534  1.0000
  O   O9        1.0  0.40127  0.44350  0.43427  1.0000
  O   O10       1.0  0.59872  0.55650  0.56573  1.0000
  O   O11       1.0  0.31458  0.22843  0.40317  1.0000
  O   O12       1.0  0.68543  0.77157  0.59683  1.0000
  O   O13       1.0  0.59145  0.49901  0.17636  1.0000
  O   O14       1.0  0.40855  0.50099  0.82364  1.0000
  O   O15       1.0  0.24052  0.86441  0.07805  1.0000
  O   O16       1.0  0.75948  0.13558  0.92196  1.0000
  O   O17       1.0  0.11449  0.88175  0.86008  1.0000
  O   O18       1.0  0.88551  0.11826  0.13992  1.0000
