data_image0
_chemical_formula_structural       Co2H44C64N8O14
_chemical_formula_sum              "Co2 H44 C64 N8 O14"
_cell_length_a       9.86803
_cell_length_b       11.345
_cell_length_c       13.386
_cell_angle_alpha    89.3698
_cell_angle_beta     76.5798
_cell_angle_gamma    68.7184

_space_group_name_H-M_alt    "P 1"
_space_group_IT_number       1

loop_
  _space_group_symop_operation_xyz
  'x, y, z'

loop_
  _atom_site_type_symbol
  _atom_site_label
  _atom_site_symmetry_multiplicity
  _atom_site_fract_x
  _atom_site_fract_y
  _atom_site_fract_z
  _atom_site_occupancy
  Co  Co1       1.0  0.33256  0.92105  0.07157  1.0000
  Co  Co2       1.0  0.66743  0.07896  0.92843  1.0000
  H   H1        1.0  0.20041  0.86319  0.90500  1.0000
  H   H2        1.0  0.79959  0.13681  0.09500  1.0000
  H   H3        1.0  0.23535  0.68167  0.78642  1.0000
  H   H4        1.0  0.76465  0.31833  0.21358  1.0000
  H   H5        1.0  0.63395  0.46961  0.88646  1.0000
  H   H6        1.0  0.36605  0.53039  0.11354  1.0000
  H   H7        1.0  0.58423  0.66177  0.00031  1.0000
  H   H8        1.0  0.41577  0.33823  0.99969  1.0000
  H   H9        1.0  0.42231  0.42740  0.48381  1.0000
  H   H10       1.0  0.57769  0.57261  0.51619  1.0000
  H   H11       1.0  0.57689  0.24794  0.35067  1.0000
  H   H12       1.0  0.42311  0.75206  0.64933  1.0000
  H   H13       1.0  0.73721  0.01362  0.58616  1.0000
  H   H14       1.0  0.26279  0.98638  0.41384  1.0000
  H   H15       1.0  0.59315  0.19413  0.71773  1.0000
  H   H16       1.0  0.40685  0.80587  0.28227  1.0000
  H   H17       1.0  0.64292  0.85123  0.39736  1.0000
  H   H18       1.0  0.35708  0.14877  0.60264  1.0000
  H   H19       1.0  0.78879  0.62433  0.39892  1.0000
  H   H20       1.0  0.21121  0.37567  0.60108  1.0000
  H   H21       1.0  0.17835  0.70926  0.40915  1.0000
  H   H22       1.0  0.82165  0.29074  0.59085  1.0000
  H   H23       1.0  0.02873  0.94042  0.40592  1.0000
  H   H24       1.0  0.97127  0.05958  0.59408  1.0000
  H   H25       1.0  0.90694  0.27532  0.32726  1.0000
  H   H26       1.0  0.09306  0.72468  0.67273  1.0000
  H   H27       1.0  0.03207  0.06961  0.21847  1.0000
  H   H28       1.0  0.96793  0.93039  0.78153  1.0000
  H   H29       1.0  0.44951  0.09350  0.17795  1.0000
  H   H30       1.0  0.55049  0.90650  0.82205  1.0000
  H   H31       1.0  0.34360  0.29772  0.28680  1.0000
  H   H32       1.0  0.65640  0.70228  0.71320  1.0000
  H   H33       1.0  0.28003  0.38427  0.88671  1.0000
  H   H34       1.0  0.71997  0.61573  0.11329  1.0000
  H   H35       1.0  0.04241  0.53138  0.85051  1.0000
  H   H36       1.0  0.95759  0.46861  0.14949  1.0000
  H   H37       1.0  0.84803  0.44821  0.82970  1.0000
  H   H38       1.0  0.15197  0.55178  0.17030  1.0000
  H   H39       1.0  0.11350  0.08084  0.90441  1.0000
  H   H40       1.0  0.88651  0.91916  0.09559  1.0000
  H   H41       1.0  0.58000  0.38301  0.76189  1.0000
  H   H42       1.0  0.42000  0.61700  0.23811  1.0000
  H   H43       1.0  0.92541  0.46255  0.36687  1.0000
  H   H44       1.0  0.07459  0.53745  0.63313  1.0000
  C   C1        1.0  0.29734  0.77500  0.89760  1.0000
  C   C2        1.0  0.70266  0.22500  0.10240  1.0000
  C   C3        1.0  0.31588  0.67354  0.83160  1.0000
  C   C4        1.0  0.68412  0.32646  0.16840  1.0000
  C   C5        1.0  0.44147  0.56072  0.82463  1.0000
  C   C6        1.0  0.55853  0.43928  0.17537  1.0000
  C   C7        1.0  0.53850  0.55689  0.88772  1.0000
  C   C8        1.0  0.46150  0.44311  0.11228  1.0000
  C   C9        1.0  0.51057  0.66274  0.95080  1.0000
  C   C10       1.0  0.48942  0.33726  0.04920  1.0000
  C   C11       1.0  0.41453  0.43955  0.68191  1.0000
  C   C12       1.0  0.58547  0.56045  0.31809  1.0000
  C   C13       1.0  0.50187  0.32502  0.60897  1.0000
  C   C14       1.0  0.49813  0.67498  0.39103  1.0000
  C   C15       1.0  0.49476  0.33806  0.50554  1.0000
  C   C16       1.0  0.50524  0.66194  0.49446  1.0000
  C   C17       1.0  0.57887  0.23831  0.43140  1.0000
  C   C18       1.0  0.42113  0.76169  0.56860  1.0000
  C   C19       1.0  0.66891  0.12259  0.46013  1.0000
  C   C20       1.0  0.33109  0.87741  0.53987  1.0000
  C   C21       1.0  0.67181  0.10544  0.56352  1.0000
  C   C22       1.0  0.32819  0.89456  0.43648  1.0000
  C   C23       1.0  0.58998  0.20774  0.63736  1.0000
  C   C24       1.0  0.41002  0.79226  0.36264  1.0000
  C   C25       1.0  0.82908  0.90707  0.39954  1.0000
  C   C26       1.0  0.17092  0.09293  0.60046  1.0000
  C   C27       1.0  0.75986  0.81941  0.40095  1.0000
  C   C28       1.0  0.24014  0.18059  0.59905  1.0000
  C   C29       1.0  0.84417  0.69121  0.40152  1.0000
  C   C30       1.0  0.15583  0.30879  0.59848  1.0000
  C   C31       1.0  0.99649  0.65040  0.40169  1.0000
  C   C32       1.0  0.00351  0.34960  0.59831  1.0000
  C   C33       1.0  0.06059  0.74128  0.40792  1.0000
  C   C34       1.0  0.93941  0.25872  0.59208  1.0000
  C   C35       1.0  0.97759  0.86983  0.40636  1.0000
  C   C36       1.0  0.02241  0.13017  0.59364  1.0000
  C   C37       1.0  0.10000  0.51450  0.38338  1.0000
  C   C38       1.0  0.90000  0.48550  0.61662  1.0000
  C   C39       1.0  0.11443  0.30729  0.31212  1.0000
  C   C40       1.0  0.88557  0.69271  0.68788  1.0000
  C   C41       1.0  0.02796  0.23772  0.29531  1.0000
  C   C42       1.0  0.97204  0.76228  0.70469  1.0000
  C   C43       1.0  0.09692  0.12360  0.23506  1.0000
  C   C44       1.0  0.90308  0.87640  0.76494  1.0000
  C   C45       1.0  0.32946  0.13602  0.21302  1.0000
  C   C46       1.0  0.67054  0.86399  0.78698  1.0000
  C   C47       1.0  0.27073  0.25080  0.27300  1.0000
  C   C48       1.0  0.72927  0.74920  0.72700  1.0000
  C   C49       1.0  0.35310  0.13297  0.91964  1.0000
  C   C50       1.0  0.64690  0.86703  0.08036  1.0000
  C   C51       1.0  0.21253  0.22278  0.89686  1.0000
  C   C52       1.0  0.78747  0.77722  0.10314  1.0000
  C   C53       1.0  0.19190  0.35007  0.88163  1.0000
  C   C54       1.0  0.80810  0.64993  0.11837  1.0000
  C   C55       1.0  0.05924  0.43193  0.86041  1.0000
  C   C56       1.0  0.94076  0.56806  0.13959  1.0000
  C   C57       1.0  0.94956  0.38597  0.84998  1.0000
  C   C58       1.0  0.05044  0.61403  0.15002  1.0000
  C   C59       1.0  0.96900  0.25892  0.86481  1.0000
  C   C60       1.0  0.03100  0.74108  0.13519  1.0000
  C   C61       1.0  0.09942  0.17871  0.89054  1.0000
  C   C62       1.0  0.90058  0.82129  0.10946  1.0000
  C   C63       1.0  0.85040  0.20946  0.85625  1.0000
  C   C64       1.0  0.14960  0.79054  0.14375  1.0000
  N   N1        1.0  0.39211  0.77192  0.95661  1.0000
  N   N2        1.0  0.60789  0.22808  0.04339  1.0000
  N   N3        1.0  0.48030  0.45354  0.75879  1.0000
  N   N4        1.0  0.51970  0.54646  0.24121  1.0000
  N   N5        1.0  0.03844  0.42916  0.36037  1.0000
  N   N6        1.0  0.96156  0.57084  0.63963  1.0000
  N   N7        1.0  0.24595  0.07289  0.19126  1.0000
  N   N8        1.0  0.75405  0.92711  0.80874  1.0000
  O   O1        1.0  0.29408  0.51931  0.67061  1.0000
  O   O2        1.0  0.70592  0.48069  0.32939  1.0000
  O   O3        1.0  0.75142  0.03134  0.38032  1.0000
  O   O4        1.0  0.24858  0.96866  0.61968  1.0000
  O   O5        1.0  0.23433  0.48117  0.38311  1.0000
  O   O6        1.0  0.76567  0.51883  0.61689  1.0000
  O   O7        1.0  0.34865  0.03391  0.96358  1.0000
  O   O8        1.0  0.65135  0.96609  0.03642  1.0000
  O   O9        1.0  0.47193  0.15793  0.89062  1.0000
  O   O10       1.0  0.52807  0.84206  0.10938  1.0000
  O   O11       1.0  0.86622  0.09860  0.88894  1.0000
  O   O12       1.0  0.13378  0.90139  0.11106  1.0000
  O   O13       1.0  0.73979  0.27496  0.82223  1.0000
  O   O14       1.0  0.26021  0.72504  0.17778  1.0000
