data_image0
_chemical_formula_structural       Cu2H24C36N4O12F8
_chemical_formula_sum              "Cu2 H24 C36 N4 O12 F8"
_cell_length_a       7.4388
_cell_length_b       11.07
_cell_length_c       12.7957
_cell_angle_alpha    90.0009
_cell_angle_beta     90.0004
_cell_angle_gamma    90.0009

_space_group_name_H-M_alt    "P 1"
_space_group_IT_number       1

loop_
  _space_group_symop_operation_xyz
  'x, y, z'

loop_
  _atom_site_type_symbol
  _atom_site_label
  _atom_site_symmetry_multiplicity
  _atom_site_fract_x
  _atom_site_fract_y
  _atom_site_fract_z
  _atom_site_occupancy
  Cu  Cu1       1.0  0.50000  0.68900  0.50000  1.0000
  Cu  Cu2       1.0  0.00000  0.31101  0.00000  1.0000
  H   H1        1.0  0.21375  0.66055  0.63145  1.0000
  H   H2        1.0  0.78625  0.66055  0.36855  1.0000
  H   H3        1.0  0.71375  0.33945  0.86855  1.0000
  H   H4        1.0  0.28625  0.33945  0.13146  1.0000
  H   H5        1.0  0.40908  0.63515  0.68596  1.0000
  H   H6        1.0  0.59092  0.63515  0.31404  1.0000
  H   H7        1.0  0.90908  0.36485  0.81404  1.0000
  H   H8        1.0  0.09092  0.36486  0.18597  1.0000
  H   H9        1.0  0.56205  0.87778  0.34256  1.0000
  H   H10       1.0  0.43795  0.87778  0.65744  1.0000
  H   H11       1.0  0.06205  0.12222  0.15744  1.0000
  H   H12       1.0  0.93795  0.12222  0.84256  1.0000
  H   H13       1.0  0.56227  0.10356  0.33554  1.0000
  H   H14       1.0  0.43773  0.10357  0.66446  1.0000
  H   H15       1.0  0.06227  0.89644  0.16446  1.0000
  H   H16       1.0  0.93773  0.89644  0.83554  1.0000
  H   H17       1.0  0.36075  0.27535  0.35134  1.0000
  H   H18       1.0  0.63925  0.27536  0.64867  1.0000
  H   H19       1.0  0.86075  0.72465  0.14866  1.0000
  H   H20       1.0  0.13925  0.72465  0.85133  1.0000
  H   H21       1.0  0.35713  0.50084  0.36115  1.0000
  H   H22       1.0  0.64288  0.50085  0.63886  1.0000
  H   H23       1.0  0.85713  0.49916  0.13885  1.0000
  H   H24       1.0  0.14288  0.49916  0.86114  1.0000
  C   C1        1.0  0.53380  0.93204  0.41147  1.0000
  C   C2        1.0  0.46621  0.93204  0.58853  1.0000
  C   C3        1.0  0.03380  0.06796  0.08853  1.0000
  C   C4        1.0  0.96621  0.06796  0.91147  1.0000
  C   C5        1.0  0.53349  0.05739  0.40851  1.0000
  C   C6        1.0  0.46652  0.05739  0.59149  1.0000
  C   C7        1.0  0.03348  0.94261  0.09149  1.0000
  C   C8        1.0  0.96652  0.94261  0.90850  1.0000
  C   C9        1.0  0.50001  0.12273  0.50000  1.0000
  C   C10       1.0  1.00000  0.87727  1.00000  1.0000
  C   C11       1.0  0.50000  0.25585  0.50000  1.0000
  C   C12       1.0  0.00000  0.74415  0.99999  1.0000
  C   C13       1.0  0.42376  0.32106  0.41723  1.0000
  C   C14       1.0  0.57625  0.32106  0.58277  1.0000
  C   C15       1.0  0.92376  0.67894  0.08277  1.0000
  C   C16       1.0  0.07625  0.67894  0.91722  1.0000
  C   C17       1.0  0.42331  0.44633  0.42079  1.0000
  C   C18       1.0  0.57670  0.44634  0.57921  1.0000
  C   C19       1.0  0.92331  0.55367  0.07920  1.0000
  C   C20       1.0  0.07669  0.55366  0.92079  1.0000
  C   C21       1.0  0.89978  0.69886  0.60531  1.0000
  C   C22       1.0  0.10022  0.69886  0.39468  1.0000
  C   C23       1.0  0.39977  0.30114  0.89469  1.0000
  C   C24       1.0  0.60022  0.30114  0.10532  1.0000
  C   C25       1.0  0.95493  0.81446  0.54844  1.0000
  C   C26       1.0  0.04508  0.81446  0.45156  1.0000
  C   C27       1.0  0.45491  0.18554  0.95156  1.0000
  C   C28       1.0  0.54507  0.18554  0.04844  1.0000
  C   C29       1.0  0.91384  0.92519  0.59448  1.0000
  C   C30       1.0  0.08615  0.92519  0.40552  1.0000
  C   C31       1.0  0.41384  0.07481  0.90552  1.0000
  C   C32       1.0  0.58614  0.07481  0.09447  1.0000
  C   C33       1.0  0.95777  0.03533  0.54852  1.0000
  C   C34       1.0  0.04223  0.03533  0.45148  1.0000
  C   C35       1.0  0.45776  0.96466  0.95147  1.0000
  C   C36       1.0  0.54222  0.96467  0.04852  1.0000
  N   N1        1.0  0.50000  0.87014  0.50000  1.0000
  N   N2        1.0  0.00000  0.12986  0.00000  1.0000
  N   N3        1.0  0.50000  0.50782  0.50000  1.0000
  N   N4        1.0  0.00000  0.49218  1.00000  1.0000
  O   O1        1.0  0.02296  0.62652  0.63370  1.0000
  O   O2        1.0  0.97704  0.62652  0.36630  1.0000
  O   O3        1.0  0.52295  0.37348  0.86631  1.0000
  O   O4        1.0  0.47705  0.37347  0.13371  1.0000
  O   O5        1.0  0.73403  0.68545  0.62178  1.0000
  O   O6        1.0  0.26597  0.68545  0.37822  1.0000
  O   O7        1.0  0.23403  0.31455  0.87822  1.0000
  O   O8        1.0  0.76597  0.31455  0.12177  1.0000
  O   O9        1.0  0.34830  0.68824  0.63668  1.0000
  O   O10       1.0  0.65170  0.68823  0.36333  1.0000
  O   O11       1.0  0.84830  0.31177  0.86332  1.0000
  O   O12       1.0  0.15170  0.31178  0.13669  1.0000
  F   F1        1.0  0.82763  0.92987  0.68823  1.0000
  F   F2        1.0  0.17236  0.92987  0.31176  1.0000
  F   F3        1.0  0.32761  0.07012  0.81176  1.0000
  F   F4        1.0  0.67236  0.07013  0.18824  1.0000
  F   F5        1.0  0.91965  0.14081  0.59690  1.0000
  F   F6        1.0  0.08034  0.14080  0.40310  1.0000
  F   F7        1.0  0.41965  0.85919  0.90310  1.0000
  F   F8        1.0  0.58034  0.85919  0.09689  1.0000
