data_image0
_chemical_formula_structural       Cd2H24C36N4O12F8
_chemical_formula_sum              "Cd2 H24 C36 N4 O12 F8"
_cell_length_a       7.60908
_cell_length_b       11.6902
_cell_length_c       12.6036
_cell_angle_alpha    89.9999
_cell_angle_beta     90
_cell_angle_gamma    90.0005

_space_group_name_H-M_alt    "P 1"
_space_group_IT_number       1

loop_
  _space_group_symop_operation_xyz
  'x, y, z'

loop_
  _atom_site_type_symbol
  _atom_site_label
  _atom_site_symmetry_multiplicity
  _atom_site_fract_x
  _atom_site_fract_y
  _atom_site_fract_z
  _atom_site_occupancy
  Cd  Cd1       1.0  0.50000  0.30350  1.00000  1.0000
  Cd  Cd2       1.0  0.00000  0.69650  0.50000  1.0000
  H   H1        1.0  0.39524  0.35048  0.78775  1.0000
  H   H2        1.0  0.60476  0.35048  0.21225  1.0000
  H   H3        1.0  0.89524  0.64953  0.71225  1.0000
  H   H4        1.0  0.10476  0.64953  0.28775  1.0000
  H   H5        1.0  0.21247  0.32513  0.84785  1.0000
  H   H6        1.0  0.78754  0.32513  0.15215  1.0000
  H   H7        1.0  0.71246  0.67487  0.65215  1.0000
  H   H8        1.0  0.28754  0.67487  0.34785  1.0000
  H   H9        1.0  0.62948  0.51011  0.85564  1.0000
  H   H10       1.0  0.37052  0.51010  0.14435  1.0000
  H   H11       1.0  0.12948  0.48990  0.64435  1.0000
  H   H12       1.0  0.87052  0.48990  0.35565  1.0000
  H   H13       1.0  0.62767  0.72407  0.84657  1.0000
  H   H14       1.0  0.37232  0.72406  0.15343  1.0000
  H   H15       1.0  0.12767  0.27594  0.65343  1.0000
  H   H16       1.0  0.87233  0.27594  0.34657  1.0000
  H   H17       1.0  0.59293  0.88490  0.16156  1.0000
  H   H18       1.0  0.40705  0.88490  0.83844  1.0000
  H   H19       1.0  0.09294  0.11510  0.33844  1.0000
  H   H20       1.0  0.90706  0.11510  0.66156  1.0000
  H   H21       1.0  0.59053  0.09951  0.15473  1.0000
  H   H22       1.0  0.40947  0.09951  0.84528  1.0000
  H   H23       1.0  0.09053  0.90049  0.34527  1.0000
  H   H24       1.0  0.90947  0.90049  0.65473  1.0000
  C   C1        1.0  0.95249  0.98086  0.95280  1.0000
  C   C2        1.0  0.04751  0.98086  0.04719  1.0000
  C   C3        1.0  0.45250  0.01914  0.54720  1.0000
  C   C4        1.0  0.54751  0.01914  0.45280  1.0000
  C   C5        1.0  0.90425  0.08533  0.90794  1.0000
  C   C6        1.0  0.09574  0.08533  0.09206  1.0000
  C   C7        1.0  0.40425  0.91467  0.59206  1.0000
  C   C8        1.0  0.59574  0.91467  0.40794  1.0000
  C   C9        1.0  0.95043  0.19007  0.95273  1.0000
  C   C10       1.0  0.04957  0.19007  0.04726  1.0000
  C   C11       1.0  0.45043  0.80993  0.54727  1.0000
  C   C12       1.0  0.54957  0.80993  0.45274  1.0000
  C   C13       1.0  0.89815  0.30063  0.89616  1.0000
  C   C14       1.0  0.10186  0.30063  0.10384  1.0000
  C   C15       1.0  0.39814  0.69937  0.60384  1.0000
  C   C16       1.0  0.60185  0.69937  0.39616  1.0000
  C   C17       1.0  0.56997  0.56148  0.91826  1.0000
  C   C18       1.0  0.43003  0.56148  0.08174  1.0000
  C   C19       1.0  0.06997  0.43852  0.58174  1.0000
  C   C20       1.0  0.93003  0.43852  0.41826  1.0000
  C   C21       1.0  0.56997  0.68022  0.91442  1.0000
  C   C22       1.0  0.43003  0.68021  0.08558  1.0000
  C   C23       1.0  0.06997  0.31979  0.58558  1.0000
  C   C24       1.0  0.93003  0.31979  0.41442  1.0000
  C   C25       1.0  0.50000  0.74165  0.00000  1.0000
  C   C26       1.0  0.00000  0.25835  0.50000  1.0000
  C   C27       1.0  0.50000  0.86762  1.00000  1.0000
  C   C28       1.0  1.00000  0.13238  0.50000  1.0000
  C   C29       1.0  0.55028  0.92906  0.09027  1.0000
  C   C30       1.0  0.44972  0.92906  0.90973  1.0000
  C   C31       1.0  0.05028  0.07094  0.40973  1.0000
  C   C32       1.0  0.94972  0.07094  0.59027  1.0000
  C   C33       1.0  0.54999  0.04780  0.08699  1.0000
  C   C34       1.0  0.45001  0.04780  0.91301  1.0000
  C   C35       1.0  0.04999  0.95220  0.41301  1.0000
  C   C36       1.0  0.95001  0.95220  0.58699  1.0000
  N   N1        1.0  0.50000  0.50307  0.99999  1.0000
  N   N2        1.0  0.00000  0.49693  0.50000  1.0000
  N   N3        1.0  0.50000  0.10621  0.00000  1.0000
  N   N4        1.0  0.00000  0.89379  0.50000  1.0000
  O   O1        1.0  0.73553  0.32076  0.88556  1.0000
  O   O2        1.0  0.26448  0.32076  0.11444  1.0000
  O   O3        1.0  0.23552  0.67924  0.61444  1.0000
  O   O4        1.0  0.76448  0.67924  0.38556  1.0000
  O   O5        1.0  0.02022  0.36299  0.86090  1.0000
  O   O6        1.0  0.97979  0.36298  0.13911  1.0000
  O   O7        1.0  0.52022  0.63702  0.63911  1.0000
  O   O8        1.0  0.47978  0.63701  0.36089  1.0000
  O   O9        1.0  0.33954  0.29802  0.83731  1.0000
  O   O10       1.0  0.66047  0.29802  0.16269  1.0000
  O   O11       1.0  0.83954  0.70198  0.66269  1.0000
  O   O12       1.0  0.16046  0.70198  0.33731  1.0000
  F   F1        1.0  0.80850  0.08130  0.81677  1.0000
  F   F2        1.0  0.19150  0.08129  0.18322  1.0000
  F   F3        1.0  0.30850  0.91870  0.68323  1.0000
  F   F4        1.0  0.69150  0.91870  0.31677  1.0000
  F   F5        1.0  0.90759  0.88092  0.90634  1.0000
  F   F6        1.0  0.09240  0.88092  0.09365  1.0000
  F   F7        1.0  0.40760  0.11908  0.59366  1.0000
  F   F8        1.0  0.59240  0.11908  0.40634  1.0000
