data_image0
_chemical_formula_structural       Zn2H48C56N12O8
_chemical_formula_sum              "Zn2 H48 C56 N12 O8"
_cell_length_a       7.87453
_cell_length_b       8.01296
_cell_length_c       20.311
_cell_angle_alpha    81.5313
_cell_angle_beta     85.8933
_cell_angle_gamma    86.6239

_space_group_name_H-M_alt    "P 1"
_space_group_IT_number       1

loop_
  _space_group_symop_operation_xyz
  'x, y, z'

loop_
  _atom_site_type_symbol
  _atom_site_label
  _atom_site_symmetry_multiplicity
  _atom_site_fract_x
  _atom_site_fract_y
  _atom_site_fract_z
  _atom_site_occupancy
  Zn  Zn1       1.0  0.76514  0.77563  0.75411  1.0000
  Zn  Zn2       1.0  0.23486  0.22437  0.24589  1.0000
  H   H1        1.0  0.36004  0.72239  0.43535  1.0000
  H   H2        1.0  0.63996  0.27760  0.56465  1.0000
  H   H3        1.0  0.85166  0.35013  0.10254  1.0000
  H   H4        1.0  0.14834  0.64987  0.89746  1.0000
  H   H5        1.0  0.47022  0.99328  0.78416  1.0000
  H   H6        1.0  0.52977  0.00672  0.21584  1.0000
  H   H7        1.0  0.19120  0.09704  0.73614  1.0000
  H   H8        1.0  0.80880  0.90295  0.26386  1.0000
  H   H9        1.0  0.12976  0.02773  0.62544  1.0000
  H   H10       1.0  0.87025  0.97227  0.37456  1.0000
  H   H11       1.0  0.62012  0.75499  0.62057  1.0000
  H   H12       1.0  0.37988  0.24501  0.37943  1.0000
  H   H13       1.0  0.16754  0.01414  0.49333  1.0000
  H   H14       1.0  0.83246  0.98585  0.50667  1.0000
  H   H15       1.0  0.07433  0.86099  0.55557  1.0000
  H   H16       1.0  0.92567  0.13900  0.44443  1.0000
  H   H17       1.0  0.15513  0.80242  0.47864  1.0000
  H   H18       1.0  0.84487  0.19758  0.52136  1.0000
  H   H19       1.0  0.47424  0.57602  0.35036  1.0000
  H   H20       1.0  0.52576  0.42399  0.64964  1.0000
  H   H21       1.0  0.73213  0.44593  0.29382  1.0000
  H   H22       1.0  0.26786  0.55407  0.70617  1.0000
  H   H23       1.0  0.04226  0.56924  0.44277  1.0000
  H   H24       1.0  0.95774  0.43076  0.55723  1.0000
  H   H25       1.0  0.78474  0.69275  0.50191  1.0000
  H   H26       1.0  0.21526  0.30725  0.49809  1.0000
  H   H27       1.0  0.53657  0.51526  0.74091  1.0000
  H   H28       1.0  0.46343  0.48474  0.25909  1.0000
  H   H29       1.0  0.41930  0.25553  0.80843  1.0000
  H   H30       1.0  0.58070  0.74447  0.19157  1.0000
  H   H31       1.0  0.49129  0.18080  0.92704  1.0000
  H   H32       1.0  0.50871  0.81920  0.07295  1.0000
  H   H33       1.0  0.78132  0.63041  0.90068  1.0000
  H   H34       1.0  0.21868  0.36959  0.09932  1.0000
  H   H35       1.0  0.67723  0.18958  0.08690  1.0000
  H   H36       1.0  0.32277  0.81042  0.91310  1.0000
  H   H37       1.0  0.68228  0.09452  0.01332  1.0000
  H   H38       1.0  0.31772  0.90548  0.98668  1.0000
  H   H39       1.0  0.49314  0.20320  0.04026  1.0000
  H   H40       1.0  0.50686  0.79680  0.95974  1.0000
  H   H41       1.0  0.94596  0.46747  0.19347  1.0000
  H   H42       1.0  0.05404  0.53253  0.80653  1.0000
  H   H43       1.0  0.05851  0.71401  0.23432  1.0000
  H   H44       1.0  0.94149  0.28599  0.76568  1.0000
  H   H45       1.0  0.95074  0.02508  0.05033  1.0000
  H   H46       1.0  0.04926  0.97492  0.94966  1.0000
  H   H47       1.0  0.84839  0.77563  0.00610  1.0000
  H   H48       1.0  0.15161  0.22437  0.99390  1.0000
  C   C1        1.0  0.43714  0.96617  0.73577  1.0000
  C   C2        1.0  0.56286  0.03383  0.26423  1.0000
  C   C3        1.0  0.06997  0.03978  0.16773  1.0000
  C   C4        1.0  0.93003  0.96022  0.83227  1.0000
  C   C5        1.0  0.28399  0.02307  0.70868  1.0000
  C   C6        1.0  0.71601  0.97693  0.29132  1.0000
  C   C7        1.0  0.25066  0.98408  0.64634  1.0000
  C   C8        1.0  0.74934  0.01592  0.35366  1.0000
  C   C9        1.0  0.37325  0.89049  0.61142  1.0000
  C   C10       1.0  0.62675  0.10951  0.38859  1.0000
  C   C11       1.0  0.52400  0.83599  0.64317  1.0000
  C   C12       1.0  0.47600  0.16401  0.35683  1.0000
  C   C13       1.0  0.34763  0.84342  0.54574  1.0000
  C   C14       1.0  0.65238  0.15658  0.45426  1.0000
  C   C15       1.0  0.17785  0.88128  0.51664  1.0000
  C   C16       1.0  0.82215  0.11872  0.48336  1.0000
  C   C17       1.0  0.61574  0.64629  0.42821  1.0000
  C   C18       1.0  0.38426  0.35372  0.57179  1.0000
  C   C19       1.0  0.60028  0.57664  0.36945  1.0000
  C   C20       1.0  0.39973  0.42336  0.63055  1.0000
  C   C21       1.0  0.74304  0.50381  0.33853  1.0000
  C   C22       1.0  0.25696  0.49619  0.66147  1.0000
  C   C23       1.0  0.90384  0.50187  0.36448  1.0000
  C   C24       1.0  0.09616  0.49813  0.63552  1.0000
  C   C25       1.0  0.91709  0.57306  0.42281  1.0000
  C   C26       1.0  0.08291  0.42694  0.57719  1.0000
  C   C27       1.0  0.77543  0.64243  0.45545  1.0000
  C   C28       1.0  0.22457  0.35757  0.54455  1.0000
  C   C29       1.0  0.06007  0.42265  0.33360  1.0000
  C   C30       1.0  0.93993  0.57735  0.66640  1.0000
  C   C31       1.0  0.56045  0.47986  0.79326  1.0000
  C   C32       1.0  0.43954  0.52014  0.20674  1.0000
  C   C33       1.0  0.49926  0.33482  0.83094  1.0000
  C   C34       1.0  0.50074  0.66518  0.16906  1.0000
  C   C35       1.0  0.53942  0.29456  0.89725  1.0000
  C   C36       1.0  0.46058  0.70545  0.10275  1.0000
  C   C37       1.0  0.63907  0.40210  0.92525  1.0000
  C   C38       1.0  0.36093  0.59790  0.07475  1.0000
  C   C39       1.0  0.69746  0.54568  0.88306  1.0000
  C   C40       1.0  0.30255  0.45432  0.11694  1.0000
  C   C41       1.0  0.68638  0.36663  0.99474  1.0000
  C   C42       1.0  0.31362  0.63337  0.00526  1.0000
  C   C43       1.0  0.63341  0.20509  0.03630  1.0000
  C   C44       1.0  0.36659  0.79491  0.96370  1.0000
  C   C45       1.0  0.88877  0.60634  0.09726  1.0000
  C   C46       1.0  0.11123  0.39366  0.90274  1.0000
  C   C47       1.0  0.94758  0.58981  0.16189  1.0000
  C   C48       1.0  0.05242  0.41019  0.83811  1.0000
  C   C49       1.0  0.00972  0.72803  0.18479  1.0000
  C   C50       1.0  0.99027  0.27197  0.81521  1.0000
  C   C51       1.0  0.00959  0.88682  0.14489  1.0000
  C   C52       1.0  0.99041  0.11318  0.85511  1.0000
  C   C53       1.0  0.94919  0.90172  0.08092  1.0000
  C   C54       1.0  0.05081  0.09828  0.91908  1.0000
  C   C55       1.0  0.89114  0.76440  0.05645  1.0000
  C   C56       1.0  0.10886  0.23560  0.94355  1.0000
  N   N1        1.0  0.55474  0.87235  0.70335  1.0000
  N   N2        1.0  0.44526  0.12765  0.29665  1.0000
  N   N3        1.0  0.48003  0.77278  0.51683  1.0000
  N   N4        1.0  0.51998  0.22722  0.48317  1.0000
  N   N5        1.0  0.47215  0.72008  0.45799  1.0000
  N   N6        1.0  0.52785  0.27993  0.54201  1.0000
  N   N7        1.0  0.65859  0.58347  0.81927  1.0000
  N   N8        1.0  0.34141  0.41652  0.18073  1.0000
  N   N9        1.0  0.76668  0.48546  0.01490  1.0000
  N   N10       1.0  0.23332  0.51454  0.98510  1.0000
  N   N11       1.0  0.82480  0.46742  0.07584  1.0000
  N   N12       1.0  0.17520  0.53258  0.92416  1.0000
  O   O1        1.0  0.03332  0.31294  0.29449  1.0000
  O   O2        1.0  0.96668  0.68706  0.70551  1.0000
  O   O3        1.0  0.20493  0.46121  0.34673  1.0000
  O   O4        1.0  0.79507  0.53879  0.65327  1.0000
  O   O5        1.0  0.17513  0.01429  0.21501  1.0000
  O   O6        1.0  0.82487  0.98571  0.78499  1.0000
  O   O7        1.0  0.02030  0.18500  0.14089  1.0000
  O   O8        1.0  0.97970  0.81500  0.85911  1.0000
