data_image0
_chemical_formula_structural       Zn10H24C40O44
_chemical_formula_sum              "Zn10 H24 C40 O44"
_cell_length_a       7.37666
_cell_length_b       11.9523
_cell_length_c       15.907
_cell_angle_alpha    90
_cell_angle_beta     90
_cell_angle_gamma    107.277

_space_group_name_H-M_alt    "P 1"
_space_group_IT_number       1

loop_
  _space_group_symop_operation_xyz
  'x, y, z'

loop_
  _atom_site_type_symbol
  _atom_site_label
  _atom_site_symmetry_multiplicity
  _atom_site_fract_x
  _atom_site_fract_y
  _atom_site_fract_z
  _atom_site_occupancy
  Zn  Zn1       1.0  0.00001  0.00000  0.00001  1.0000
  Zn  Zn2       1.0  0.00000  0.50000  0.50000  1.0000
  Zn  Zn3       1.0  0.74149  0.98474  0.18742  1.0000
  Zn  Zn4       1.0  0.25852  0.51526  0.68743  1.0000
  Zn  Zn5       1.0  0.25855  0.01526  0.81257  1.0000
  Zn  Zn6       1.0  0.74149  0.48474  0.31257  1.0000
  Zn  Zn7       1.0  0.00499  0.82330  0.16994  1.0000
  Zn  Zn8       1.0  0.99501  0.67669  0.66994  1.0000
  Zn  Zn9       1.0  0.99501  0.17671  0.83006  1.0000
  Zn  Zn10      1.0  0.00499  0.32330  0.33005  1.0000
  H   H1        1.0  0.35280  0.57046  0.13553  1.0000
  H   H2        1.0  0.64718  0.92954  0.63553  1.0000
  H   H3        1.0  0.64719  0.42954  0.86447  1.0000
  H   H4        1.0  0.35274  0.07045  0.36447  1.0000
  H   H5        1.0  0.26209  0.40901  0.03341  1.0000
  H   H6        1.0  0.73789  0.09099  0.53340  1.0000
  H   H7        1.0  0.73791  0.59099  0.96659  1.0000
  H   H8        1.0  0.26202  0.90900  0.46659  1.0000
  H   H9        1.0  0.18310  0.22025  0.99351  1.0000
  H   H10       1.0  0.81694  0.27975  0.49350  1.0000
  H   H11       1.0  0.81693  0.77976  0.00650  1.0000
  H   H12       1.0  0.18309  0.72025  0.50650  1.0000
  H   H13       1.0  0.32703  0.14955  0.98338  1.0000
  H   H14       1.0  0.67299  0.35044  0.48337  1.0000
  H   H15       1.0  0.67299  0.85045  0.01662  1.0000
  H   H16       1.0  0.32702  0.64956  0.51663  1.0000
  H   H17       1.0  0.46937  0.06998  0.21688  1.0000
  H   H18       1.0  0.53063  0.43004  0.71690  1.0000
  H   H19       1.0  0.53065  0.93004  0.78311  1.0000
  H   H20       1.0  0.46937  0.56996  0.28311  1.0000
  H   H21       1.0  0.39361  0.93238  0.22828  1.0000
  H   H22       1.0  0.60640  0.56764  0.72830  1.0000
  H   H23       1.0  0.60640  0.06764  0.77171  1.0000
  H   H24       1.0  0.39361  0.43236  0.27171  1.0000
  C   C1        1.0  0.30912  0.58703  0.07243  1.0000
  C   C2        1.0  0.69085  0.91297  0.57242  1.0000
  C   C3        1.0  0.69088  0.41298  0.92757  1.0000
  C   C4        1.0  0.30907  0.08702  0.42757  1.0000
  C   C5        1.0  0.30278  0.69830  0.04901  1.0000
  C   C6        1.0  0.69720  0.80170  0.54901  1.0000
  C   C7        1.0  0.69723  0.30171  0.95099  1.0000
  C   C8        1.0  0.30277  0.19830  0.45099  1.0000
  C   C9        1.0  0.25141  0.71755  0.96634  1.0000
  C   C10       1.0  0.74857  0.78245  0.46634  1.0000
  C   C11       1.0  0.74860  0.28245  0.03366  1.0000
  C   C12       1.0  0.25143  0.21755  0.53367  1.0000
  C   C13       1.0  0.20980  0.62716  0.90650  1.0000
  C   C14       1.0  0.79018  0.87283  0.40649  1.0000
  C   C15       1.0  0.79021  0.37284  0.09350  1.0000
  C   C16       1.0  0.20979  0.12716  0.59351  1.0000
  C   C17       1.0  0.21230  0.51400  0.93079  1.0000
  C   C18       1.0  0.78768  0.98599  0.43079  1.0000
  C   C19       1.0  0.78771  0.48600  0.06921  1.0000
  C   C20       1.0  0.21227  0.01400  0.56922  1.0000
  C   C21       1.0  0.26141  0.49617  0.01388  1.0000
  C   C22       1.0  0.73857  0.00383  0.51388  1.0000
  C   C23       1.0  0.73860  0.50384  0.98612  1.0000
  C   C24       1.0  0.26136  0.99616  0.48612  1.0000
  C   C25       1.0  0.37228  0.79998  0.10889  1.0000
  C   C26       1.0  0.62771  0.70002  0.60889  1.0000
  C   C27       1.0  0.62773  0.20002  0.89111  1.0000
  C   C28       1.0  0.37227  0.29998  0.39111  1.0000
  C   C29       1.0  0.23460  0.83525  0.94333  1.0000
  C   C30       1.0  0.76540  0.66474  0.44332  1.0000
  C   C31       1.0  0.76543  0.16475  0.05666  1.0000
  C   C32       1.0  0.23462  0.33526  0.55668  1.0000
  C   C33       1.0  0.16663  0.65108  0.81638  1.0000
  C   C34       1.0  0.83336  0.84891  0.31638  1.0000
  C   C35       1.0  0.83339  0.34892  0.18362  1.0000
  C   C36       1.0  0.16663  0.15108  0.68363  1.0000
  C   C37       1.0  0.15089  0.41123  0.87240  1.0000
  C   C38       1.0  0.84911  0.08876  0.37240  1.0000
  C   C39       1.0  0.84913  0.58877  0.12760  1.0000
  C   C40       1.0  0.15086  0.91123  0.62761  1.0000
  O   O1        1.0  0.27259  0.81153  0.17235  1.0000
  O   O2        1.0  0.72740  0.68848  0.67235  1.0000
  O   O3        1.0  0.72741  0.18847  0.82764  1.0000
  O   O4        1.0  0.27260  0.31153  0.32765  1.0000
  O   O5        1.0  0.53749  0.86738  0.09488  1.0000
  O   O6        1.0  0.46250  0.63262  0.59489  1.0000
  O   O7        1.0  0.46251  0.13262  0.90511  1.0000
  O   O8        1.0  0.53750  0.36737  0.40512  1.0000
  O   O9        1.0  0.18288  0.89240  0.00116  1.0000
  O   O10       1.0  0.81712  0.60761  0.50115  1.0000
  O   O11       1.0  0.81716  0.10761  0.99883  1.0000
  O   O12       1.0  0.18291  0.39240  0.49885  1.0000
  O   O13       1.0  0.27197  0.86632  0.86752  1.0000
  O   O14       1.0  0.72801  0.63367  0.36752  1.0000
  O   O15       1.0  0.72806  0.13368  0.13247  1.0000
  O   O16       1.0  0.27198  0.36632  0.63248  1.0000
  O   O17       1.0  0.00099  0.65336  0.79680  1.0000
  O   O18       1.0  0.99900  0.84664  0.29679  1.0000
  O   O19       1.0  0.99902  0.34664  0.20321  1.0000
  O   O20       1.0  0.00099  0.15336  0.70322  1.0000
  O   O21       1.0  0.30248  0.66381  0.76401  1.0000
  O   O22       1.0  0.69750  0.83618  0.26401  1.0000
  O   O23       1.0  0.69753  0.33619  0.23598  1.0000
  O   O24       1.0  0.30250  0.16381  0.73599  1.0000
  O   O25       1.0  0.95485  0.96009  0.12207  1.0000
  O   O26       1.0  0.04516  0.53991  0.62208  1.0000
  O   O27       1.0  0.04517  0.03991  0.87793  1.0000
  O   O28       1.0  0.95485  0.46010  0.37792  1.0000
  O   O29       1.0  0.10765  0.42110  0.79662  1.0000
  O   O30       1.0  0.89235  0.07890  0.29661  1.0000
  O   O31       1.0  0.89235  0.57890  0.20338  1.0000
  O   O32       1.0  0.10766  0.92110  0.70339  1.0000
  O   O33       1.0  0.13429  0.30944  0.90496  1.0000
  O   O34       1.0  0.86572  0.19056  0.40497  1.0000
  O   O35       1.0  0.86573  0.69057  0.09504  1.0000
  O   O36       1.0  0.13426  0.80944  0.59504  1.0000
  O   O37       1.0  0.22329  0.15783  0.02183  1.0000
  O   O38       1.0  0.77675  0.34217  0.52182  1.0000
  O   O39       1.0  0.77673  0.84217  0.97818  1.0000
  O   O40       1.0  0.22326  0.65783  0.47818  1.0000
  O   O41       1.0  0.49014  0.00510  0.24894  1.0000
  O   O42       1.0  0.50986  0.49491  0.74895  1.0000
  O   O43       1.0  0.50987  0.99491  0.75105  1.0000
  O   O44       1.0  0.49013  0.50509  0.25105  1.0000
