data_image0
_chemical_formula_structural       Mn8H40C40O48
_chemical_formula_sum              "Mn8 H40 C40 O48"
_cell_length_a       6.46671
_cell_length_b       11.6008
_cell_length_c       18.47
_cell_angle_alpha    105.777
_cell_angle_beta     90
_cell_angle_gamma    90

_space_group_name_H-M_alt    "P 1"
_space_group_IT_number       1

loop_
  _space_group_symop_operation_xyz
  'x, y, z'

loop_
  _atom_site_type_symbol
  _atom_site_label
  _atom_site_symmetry_multiplicity
  _atom_site_fract_x
  _atom_site_fract_y
  _atom_site_fract_z
  _atom_site_occupancy
  Mn  Mn1       1.0  0.25918  0.01549  0.38415  1.0000
  Mn  Mn2       1.0  0.75752  0.98685  0.11652  1.0000
  Mn  Mn3       1.0  0.75099  0.98789  0.61426  1.0000
  Mn  Mn4       1.0  0.24938  0.01161  0.88487  1.0000
  Mn  Mn5       1.0  0.92386  0.67746  0.29631  1.0000
  Mn  Mn6       1.0  0.43901  0.31662  0.20058  1.0000
  Mn  Mn7       1.0  0.06986  0.31531  0.70042  1.0000
  Mn  Mn8       1.0  0.56400  0.68811  0.79940  1.0000
  H   H1        1.0  0.20337  0.46468  0.54547  1.0000
  H   H2        1.0  0.70016  0.53344  0.95207  1.0000
  H   H3        1.0  0.78610  0.53947  0.45742  1.0000
  H   H4        1.0  0.27670  0.46221  0.04849  1.0000
  H   H5        1.0  0.19237  0.55520  0.43804  1.0000
  H   H6        1.0  0.68649  0.43875  0.05805  1.0000
  H   H7        1.0  0.81272  0.43947  0.56014  1.0000
  H   H8        1.0  0.30225  0.55886  0.94413  1.0000
  H   H9        1.0  0.07709  0.13167  0.29200  1.0000
  H   H10       1.0  0.56202  0.88329  0.21233  1.0000
  H   H11       1.0  0.93713  0.87448  0.70615  1.0000
  H   H12       1.0  0.43514  0.12235  0.79033  1.0000
  H   H13       1.0  0.31918  0.15860  0.29457  1.0000
  H   H14       1.0  0.79957  0.84743  0.21282  1.0000
  H   H15       1.0  0.69550  0.84349  0.70195  1.0000
  H   H16       1.0  0.19508  0.15431  0.79478  1.0000
  H   H17       1.0  0.21764  0.17248  0.52655  1.0000
  H   H18       1.0  0.70885  0.82219  0.97481  1.0000
  H   H19       1.0  0.79770  0.84713  0.46861  1.0000
  H   H20       1.0  0.29149  0.17582  0.02711  1.0000
  H   H21       1.0  0.45611  0.13558  0.51733  1.0000
  H   H22       1.0  0.94560  0.86167  0.98333  1.0000
  H   H23       1.0  0.55590  0.86830  0.47971  1.0000
  H   H24       1.0  0.05584  0.13519  0.01773  1.0000
  H   H25       1.0  0.77521  0.50625  0.20137  1.0000
  H   H26       1.0  0.22902  0.47603  0.30491  1.0000
  H   H27       1.0  0.22855  0.50108  0.80481  1.0000
  H   H28       1.0  0.73077  0.50375  0.69346  1.0000
  H   H29       1.0  0.67002  0.62041  0.18510  1.0000
  H   H30       1.0  0.21474  0.35651  0.33404  1.0000
  H   H31       1.0  0.28781  0.39164  0.83740  1.0000
  H   H32       1.0  0.78189  0.61498  0.66121  1.0000
  H   H33       1.0  0.64522  0.85515  0.34004  1.0000
  H   H34       1.0  0.11900  0.15665  0.15487  1.0000
  H   H35       1.0  0.38430  0.15259  0.65464  1.0000
  H   H36       1.0  0.88416  0.84711  0.84362  1.0000
  H   H37       1.0  0.55196  0.73642  0.35381  1.0000
  H   H38       1.0  0.00388  0.28205  0.19190  1.0000
  H   H39       1.0  0.50437  0.27773  0.68900  1.0000
  H   H40       1.0  0.99872  0.72056  0.80860  1.0000
  C   C1        1.0  0.21718  0.73652  0.50808  1.0000
  C   C2        1.0  0.71642  0.25929  0.98543  1.0000
  C   C3        1.0  0.79180  0.26152  0.48567  1.0000
  C   C4        1.0  0.28007  0.73812  0.01693  1.0000
  C   C5        1.0  0.25172  0.80925  0.58175  1.0000
  C   C6        1.0  0.74997  0.18817  0.91171  1.0000
  C   C7        1.0  0.76099  0.19270  0.41123  1.0000
  C   C8        1.0  0.24871  0.80870  0.09092  1.0000
  C   C9        1.0  0.27116  0.75745  0.64201  1.0000
  C   C10       1.0  0.76961  0.24208  0.85252  1.0000
  C   C11       1.0  0.73849  0.24883  0.35320  1.0000
  C   C12       1.0  0.22069  0.75391  0.14965  1.0000
  C   C13       1.0  0.24121  0.63305  0.62915  1.0000
  C   C14       1.0  0.74045  0.36671  0.86710  1.0000
  C   C15       1.0  0.75830  0.37487  0.36928  1.0000
  C   C16       1.0  0.23766  0.62821  0.13471  1.0000
  C   C17       1.0  0.21915  0.56110  0.55496  1.0000
  C   C18       1.0  0.71742  0.43694  0.94167  1.0000
  C   C19       1.0  0.77733  0.44234  0.44498  1.0000
  C   C20       1.0  0.26416  0.55915  0.05986  1.0000
  C   C21       1.0  0.21007  0.61177  0.49528  1.0000
  C   C22       1.0  0.70820  0.38414  0.00045  1.0000
  C   C23       1.0  0.79350  0.38673  0.50208  1.0000
  C   C24       1.0  0.28138  0.61305  0.00181  1.0000
  C   C25       1.0  0.18985  0.78491  0.44126  1.0000
  C   C26       1.0  0.68124  0.20458  0.04903  1.0000
  C   C27       1.0  0.82666  0.20560  0.54846  1.0000
  C   C28       1.0  0.31798  0.79250  0.95299  1.0000
  C   C29       1.0  0.24136  0.94338  0.59781  1.0000
  C   C30       1.0  0.74175  0.05385  0.89575  1.0000
  C   C31       1.0  0.77115  0.05841  0.39421  1.0000
  C   C32       1.0  0.26274  0.94300  0.10587  1.0000
  C   C33       1.0  0.30936  0.83409  0.72119  1.0000
  C   C34       1.0  0.80933  0.16563  0.77367  1.0000
  C   C35       1.0  0.70351  0.17149  0.27457  1.0000
  C   C36       1.0  0.18679  0.82999  0.22830  1.0000
  C   C37       1.0  0.20340  0.57458  0.69070  1.0000
  C   C38       1.0  0.70341  0.42699  0.80626  1.0000
  C   C39       1.0  0.78182  0.43886  0.31061  1.0000
  C   C40       1.0  0.26797  0.56399  0.19381  1.0000
  O   O1        1.0  0.31937  0.86324  0.43036  1.0000
  O   O2        1.0  0.81026  0.12822  0.06019  1.0000
  O   O3        1.0  0.69545  0.12985  0.55965  1.0000
  O   O4        1.0  0.19030  0.86944  0.94141  1.0000
  O   O5        1.0  0.04111  0.73973  0.39765  1.0000
  O   O6        1.0  0.52044  0.24026  0.08854  1.0000
  O   O7        1.0  0.98752  0.23945  0.58815  1.0000
  O   O8        1.0  0.47782  0.75555  0.91323  1.0000
  O   O9        1.0  0.40282  0.00418  0.62373  1.0000
  O   O10       1.0  0.90562  0.99437  0.87148  1.0000
  O   O11       1.0  0.61039  0.99765  0.36680  1.0000
  O   O12       1.0  0.10032  0.00512  0.12792  1.0000
  O   O13       1.0  0.07131  0.98874  0.58601  1.0000
  O   O14       1.0  0.57259  0.00678  0.90664  1.0000
  O   O15       1.0  0.93768  0.01123  0.40808  1.0000
  O   O16       1.0  0.43445  0.98671  0.09442  1.0000
  O   O17       1.0  0.16488  0.89819  0.75695  1.0000
  O   O18       1.0  0.66599  0.09984  0.73825  1.0000
  O   O19       1.0  0.84795  0.10450  0.24102  1.0000
  O   O20       1.0  0.31786  0.90841  0.25882  1.0000
  O   O21       1.0  0.48884  0.82934  0.74996  1.0000
  O   O22       1.0  0.98924  0.17012  0.74535  1.0000
  O   O23       1.0  0.52497  0.17348  0.24445  1.0000
  O   O24       1.0  0.01714  0.81616  0.26219  1.0000
  O   O25       1.0  0.24881  0.62636  0.76023  1.0000
  O   O26       1.0  0.75151  0.37633  0.73695  1.0000
  O   O27       1.0  0.76177  0.38516  0.23900  1.0000
  O   O28       1.0  0.17804  0.59005  0.25869  1.0000
  O   O29       1.0  0.11208  0.47415  0.67070  1.0000
  O   O30       1.0  0.61078  0.52679  0.82683  1.0000
  O   O31       1.0  0.83157  0.54967  0.33496  1.0000
  O   O32       1.0  0.40082  0.47939  0.17667  1.0000
  O   O33       1.0  0.19719  0.15502  0.32709  1.0000
  O   O34       1.0  0.68595  0.85943  0.17981  1.0000
  O   O35       1.0  0.81736  0.85288  0.67077  1.0000
  O   O36       1.0  0.31634  0.14426  0.82584  1.0000
  O   O37       1.0  0.32725  0.14225  0.48920  1.0000
  O   O38       1.0  0.81883  0.85306  0.01184  1.0000
  O   O39       1.0  0.68671  0.85855  0.50589  1.0000
  O   O40       1.0  0.18286  0.14437  0.98963  1.0000
  O   O41       1.0  0.80382  0.58843  0.19483  1.0000
  O   O42       1.0  0.30708  0.40806  0.31471  1.0000
  O   O43       1.0  0.17710  0.42545  0.81382  1.0000
  O   O44       1.0  0.67556  0.57924  0.68560  1.0000
  O   O45       1.0  0.64718  0.76393  0.32118  1.0000
  O   O46       1.0  0.13538  0.24611  0.17053  1.0000
  O   O47       1.0  0.36882  0.24221  0.67305  1.0000
  O   O48       1.0  0.86553  0.75751  0.82679  1.0000
