data_image0
_chemical_formula_structural       Zn4H30C30N4O22
_chemical_formula_sum              "Zn4 H30 C30 N4 O22"
_cell_length_a       8.92622
_cell_length_b       10.2246
_cell_length_c       12.2839
_cell_angle_alpha    72.7601
_cell_angle_beta     71.2354
_cell_angle_gamma    64.0842

_space_group_name_H-M_alt    "P 1"
_space_group_IT_number       1

loop_
  _space_group_symop_operation_xyz
  'x, y, z'

loop_
  _atom_site_type_symbol
  _atom_site_label
  _atom_site_symmetry_multiplicity
  _atom_site_fract_x
  _atom_site_fract_y
  _atom_site_fract_z
  _atom_site_occupancy
  Zn  Zn1       1.0  0.14956  0.71313  0.61450  1.0000
  Zn  Zn2       1.0  0.85044  0.28687  0.38550  1.0000
  Zn  Zn3       1.0  0.71974  0.42321  0.71816  1.0000
  Zn  Zn4       1.0  0.28026  0.57679  0.28184  1.0000
  H   H1        1.0  0.72682  0.98241  0.62418  1.0000
  H   H2        1.0  0.27318  0.01759  0.37582  1.0000
  H   H3        1.0  0.57454  0.83518  0.61865  1.0000
  H   H4        1.0  0.42546  0.16482  0.38135  1.0000
  H   H5        1.0  0.45151  0.71670  0.80914  1.0000
  H   H6        1.0  0.54849  0.28331  0.19086  1.0000
  H   H7        1.0  0.86057  0.37219  0.94604  1.0000
  H   H8        1.0  0.13943  0.62781  0.05396  1.0000
  H   H9        1.0  0.71572  0.59863  0.07612  1.0000
  H   H10       1.0  0.28428  0.40137  0.92388  1.0000
  H   H11       1.0  0.36262  0.82747  0.07303  1.0000
  H   H12       1.0  0.63738  0.17252  0.92697  1.0000
  H   H13       1.0  0.36402  0.90557  0.92309  1.0000
  H   H14       1.0  0.63599  0.09444  0.07691  1.0000
  H   H15       1.0  0.64187  0.93147  0.89845  1.0000
  H   H16       1.0  0.35813  0.06853  0.10155  1.0000
  H   H17       1.0  0.63618  0.85786  0.04898  1.0000
  H   H18       1.0  0.36383  0.14214  0.95102  1.0000
  H   H19       1.0  0.03600  0.58853  0.81118  1.0000
  H   H20       1.0  0.96400  0.41147  0.18882  1.0000
  H   H21       1.0  0.02633  0.73539  0.84001  1.0000
  H   H22       1.0  0.97367  0.26461  0.15999  1.0000
  H   H23       1.0  0.97238  0.70745  0.49126  1.0000
  H   H24       1.0  0.02762  0.29255  0.50874  1.0000
  H   H25       1.0  0.93540  0.87059  0.48699  1.0000
  H   H26       1.0  0.06460  0.12941  0.51301  1.0000
  H   H27       1.0  0.67168  0.56547  0.50957  1.0000
  H   H28       1.0  0.32832  0.43453  0.49042  1.0000
  H   H29       1.0  0.51939  0.65895  0.60518  1.0000
  H   H30       1.0  0.48061  0.34105  0.39482  1.0000
  C   C1        1.0  0.22941  0.14578  0.69019  1.0000
  C   C2        1.0  0.77059  0.85422  0.30981  1.0000
  C   C3        1.0  0.31843  0.23124  0.68808  1.0000
  C   C4        1.0  0.68157  0.76876  0.31192  1.0000
  C   C5        1.0  0.49782  0.17307  0.66171  1.0000
  C   C6        1.0  0.50218  0.82693  0.33829  1.0000
  C   C7        1.0  0.58806  0.02847  0.64131  1.0000
  C   C8        1.0  0.41194  0.97152  0.35869  1.0000
  C   C9        1.0  0.50093  0.94469  0.64098  1.0000
  C   C10       1.0  0.49907  0.05531  0.35902  1.0000
  C   C11       1.0  0.32178  0.00255  0.66290  1.0000
  C   C12       1.0  0.67822  0.99745  0.33710  1.0000
  C   C13       1.0  0.23666  0.91453  0.64633  1.0000
  C   C14       1.0  0.76334  0.08547  0.35367  1.0000
  C   C15       1.0  0.03683  0.21311  0.72453  1.0000
  C   C16       1.0  0.96317  0.78689  0.27547  1.0000
  C   C17       1.0  0.22460  0.38822  0.70937  1.0000
  C   C18       1.0  0.77540  0.61178  0.29062  1.0000
  C   C19       1.0  0.59646  0.26290  0.65456  1.0000
  C   C20       1.0  0.40353  0.73710  0.34544  1.0000
  C   C21       1.0  0.54456  0.65313  0.86288  1.0000
  C   C22       1.0  0.45544  0.34687  0.13712  1.0000
  C   C23       1.0  0.75309  0.47668  0.93862  1.0000
  C   C24       1.0  0.24692  0.52332  0.06137  1.0000
  C   C25       1.0  0.68384  0.58777  0.00216  1.0000
  C   C26       1.0  0.31616  0.41223  0.99784  1.0000
  C   C27       1.0  0.44580  0.84271  0.98628  1.0000
  C   C28       1.0  0.55420  0.15729  0.01372  1.0000
  C   C29       1.0  0.55533  0.92330  0.98521  1.0000
  C   C30       1.0  0.44467  0.07670  0.01480  1.0000
  N   N1        1.0  0.66487  0.51896  0.85175  1.0000
  N   N2        1.0  0.33512  0.48104  0.14825  1.0000
  N   N3        1.0  0.55242  0.69821  0.95272  1.0000
  N   N4        1.0  0.44758  0.30179  0.04728  1.0000
  O   O1        1.0  0.31131  0.77128  0.66494  1.0000
  O   O2        1.0  0.68869  0.22872  0.33505  1.0000
  O   O3        1.0  0.09832  0.97598  0.61208  1.0000
  O   O4        1.0  0.90168  0.02402  0.38792  1.0000
  O   O5        1.0  0.95659  0.16095  0.81676  1.0000
  O   O6        1.0  0.04341  0.83905  0.18324  1.0000
  O   O7        1.0  0.96789  0.33356  0.65256  1.0000
  O   O8        1.0  0.03211  0.66644  0.34744  1.0000
  O   O9        1.0  0.13064  0.41222  0.80791  1.0000
  O   O10       1.0  0.86936  0.58778  0.19209  1.0000
  O   O11       1.0  0.25296  0.48788  0.62078  1.0000
  O   O12       1.0  0.74704  0.51212  0.37922  1.0000
  O   O13       1.0  0.56302  0.31902  0.74430  1.0000
  O   O14       1.0  0.43698  0.68098  0.25570  1.0000
  O   O15       1.0  0.70911  0.27730  0.56385  1.0000
  O   O16       1.0  0.29088  0.72270  0.43615  1.0000
  O   O17       1.0  0.99615  0.70033  0.78771  1.0000
  O   O18       1.0  0.00385  0.29967  0.21230  1.0000
  O   O19       1.0  0.94625  0.77511  0.54445  1.0000
  O   O20       1.0  0.05375  0.22489  0.45555  1.0000
  O   O21       1.0  0.64259  0.59610  0.58662  1.0000
  O   O22       1.0  0.35741  0.40390  0.41338  1.0000
