data_image0
_chemical_formula_structural       Zn2H24C24N12O18
_chemical_formula_sum              "Zn2 H24 C24 N12 O18"
_cell_length_a       7.35566
_cell_length_b       11.6669
_cell_length_c       14.935
_cell_angle_alpha    113.01
_cell_angle_beta     100.736
_cell_angle_gamma    89.9826

_space_group_name_H-M_alt    "P 1"
_space_group_IT_number       1

loop_
  _space_group_symop_operation_xyz
  'x, y, z'

loop_
  _atom_site_type_symbol
  _atom_site_label
  _atom_site_symmetry_multiplicity
  _atom_site_fract_x
  _atom_site_fract_y
  _atom_site_fract_z
  _atom_site_occupancy
  Zn  Zn1       1.0  1.00000  0.00000  0.50000  1.0000
  Zn  Zn2       1.0  0.50000  0.50000  0.50000  1.0000
  H   H1        1.0  0.97027  0.83561  0.28958  1.0000
  H   H2        1.0  0.47073  0.45354  0.28963  1.0000
  H   H3        1.0  0.02974  0.16440  0.71043  1.0000
  H   H4        1.0  0.52927  0.54647  0.71036  1.0000
  H   H5        1.0  0.89148  0.83685  0.11993  1.0000
  H   H6        1.0  0.39206  0.28260  0.11998  1.0000
  H   H7        1.0  0.10853  0.16315  0.88007  1.0000
  H   H8        1.0  0.60794  0.71740  0.88002  1.0000
  H   H9        1.0  0.84367  0.23525  0.26147  1.0000
  H   H10       1.0  0.34444  0.02564  0.26137  1.0000
  H   H11       1.0  0.15633  0.76475  0.73853  1.0000
  H   H12       1.0  0.65555  0.97436  0.73863  1.0000
  H   H13       1.0  0.92678  0.21673  0.42400  1.0000
  H   H14       1.0  0.42729  0.20680  0.42395  1.0000
  H   H15       1.0  0.07322  0.78328  0.57600  1.0000
  H   H16       1.0  0.57271  0.79320  0.57605  1.0000
  H   H17       1.0  0.68956  0.82860  0.41631  1.0000
  H   H18       1.0  0.18965  0.58730  0.41623  1.0000
  H   H19       1.0  0.31043  0.17140  0.58369  1.0000
  H   H20       1.0  0.81035  0.41270  0.58376  1.0000
  H   H21       1.0  0.86966  0.75212  0.41814  1.0000
  H   H22       1.0  0.36963  0.66566  0.41803  1.0000
  H   H23       1.0  0.13034  0.24788  0.58186  1.0000
  H   H24       1.0  0.63037  0.33434  0.58197  1.0000
  C   C1        1.0  0.94263  0.92182  0.27939  1.0000
  C   C2        1.0  0.44311  0.35713  0.27944  1.0000
  C   C3        1.0  0.05738  0.07818  0.72062  1.0000
  C   C4        1.0  0.55689  0.64287  0.72056  1.0000
  C   C5        1.0  0.89673  0.92285  0.18541  1.0000
  C   C6        1.0  0.39729  0.26207  0.18543  1.0000
  C   C7        1.0  0.10326  0.07715  0.81459  1.0000
  C   C8        1.0  0.60272  0.73793  0.81457  1.0000
  C   C9        1.0  0.85672  0.03625  0.17692  1.0000
  C   C10       1.0  0.35731  0.14014  0.17686  1.0000
  C   C11       1.0  0.14328  0.96375  0.82308  1.0000
  C   C12       1.0  0.64269  0.85986  0.82315  1.0000
  C   C13       1.0  0.87094  0.14474  0.26382  1.0000
  C   C14       1.0  0.37165  0.11853  0.26374  1.0000
  C   C15       1.0  0.12906  0.85526  0.73618  1.0000
  C   C16       1.0  0.62834  0.88146  0.73626  1.0000
  C   C17       1.0  0.91792  0.13466  0.35505  1.0000
  C   C18       1.0  0.41850  0.21985  0.35498  1.0000
  C   C19       1.0  0.08208  0.86534  0.64495  1.0000
  C   C20       1.0  0.58150  0.78015  0.64502  1.0000
  C   C21       1.0  0.79811  0.03839  0.07921  1.0000
  C   C22       1.0  0.29841  0.04049  0.07906  1.0000
  C   C23       1.0  0.20189  0.96161  0.92079  1.0000
  C   C24       1.0  0.70159  0.95950  0.92094  1.0000
  N   N1        1.0  0.95083  0.02515  0.36294  1.0000
  N   N2        1.0  0.45129  0.33733  0.36295  1.0000
  N   N3        1.0  0.04918  0.97485  0.63706  1.0000
  N   N4        1.0  0.54871  0.66267  0.63705  1.0000
  N   N5        1.0  0.78104  0.13240  0.05148  1.0000
  N   N6        1.0  0.28079  0.91871  0.05105  1.0000
  N   N7        1.0  0.21897  0.86761  0.94852  1.0000
  N   N8        1.0  0.71921  0.08129  0.94895  1.0000
  N   N9        1.0  0.65081  0.12131  0.58140  1.0000
  N   N10       1.0  0.15064  0.46043  0.58144  1.0000
  N   N11       1.0  0.34919  0.87869  0.41860  1.0000
  N   N12       1.0  0.84936  0.53957  0.41856  1.0000
  O   O1        1.0  0.74970  0.92580  0.99999  1.0000
  O   O2        1.0  0.25031  0.07420  0.00001  1.0000
  O   O3        1.0  0.82611  0.83460  0.42267  1.0000
  O   O4        1.0  0.32620  0.58766  0.42249  1.0000
  O   O5        1.0  0.17389  0.16541  0.57733  1.0000
  O   O6        1.0  0.67380  0.41234  0.57751  1.0000
  O   O7        1.0  0.78701  0.13252  0.54253  1.0000
  O   O8        1.0  0.28681  0.41035  0.54248  1.0000
  O   O9        1.0  0.21299  0.86748  0.45746  1.0000
  O   O10       1.0  0.71319  0.58966  0.45752  1.0000
  O   O11       1.0  0.62290  0.02925  0.60068  1.0000
  O   O12       1.0  0.12278  0.57185  0.60094  1.0000
  O   O13       1.0  0.37710  0.97075  0.39932  1.0000
  O   O14       1.0  0.87722  0.42816  0.39906  1.0000
  O   O15       1.0  0.54324  0.21072  0.60033  1.0000
  O   O16       1.0  0.04306  0.38984  0.60022  1.0000
  O   O17       1.0  0.45676  0.78928  0.39967  1.0000
  O   O18       1.0  0.95694  0.61016  0.39978  1.0000
