data_image0
_chemical_formula_structural       Cu4H40C60N32O4
_chemical_formula_sum              "Cu4 H40 C60 N32 O4"
_cell_length_a       8.85243
_cell_length_b       12.2153
_cell_length_c       14.4479
_cell_angle_alpha    108.722
_cell_angle_beta     90
_cell_angle_gamma    90

_space_group_name_H-M_alt    "P 1"
_space_group_IT_number       1

loop_
  _space_group_symop_operation_xyz
  'x, y, z'

loop_
  _atom_site_type_symbol
  _atom_site_label
  _atom_site_symmetry_multiplicity
  _atom_site_fract_x
  _atom_site_fract_y
  _atom_site_fract_z
  _atom_site_occupancy
  Cu  Cu1       1.0  0.58613  0.44030  0.37999  1.0000
  Cu  Cu2       1.0  0.08619  0.55968  0.11999  1.0000
  Cu  Cu3       1.0  0.41395  0.55967  0.61993  1.0000
  Cu  Cu4       1.0  0.91387  0.44034  0.88007  1.0000
  H   H1        1.0  0.31794  0.06525  0.15339  1.0000
  H   H2        1.0  0.81794  0.93472  0.34661  1.0000
  H   H3        1.0  0.68200  0.93475  0.84668  1.0000
  H   H4        1.0  0.18202  0.06526  0.65334  1.0000
  H   H5        1.0  0.35567  0.28430  0.22301  1.0000
  H   H6        1.0  0.85569  0.71567  0.27696  1.0000
  H   H7        1.0  0.64444  0.71570  0.77695  1.0000
  H   H8        1.0  0.14443  0.28432  0.72308  1.0000
  H   H9        1.0  0.00784  0.40212  0.61576  1.0000
  H   H10       1.0  0.50784  0.59792  0.88422  1.0000
  H   H11       1.0  0.99216  0.59783  0.38429  1.0000
  H   H12       1.0  0.49217  0.40216  0.11573  1.0000
  H   H13       1.0  0.81899  0.51417  0.54434  1.0000
  H   H14       1.0  0.31903  0.48586  0.95568  1.0000
  H   H15       1.0  0.18101  0.48580  0.45574  1.0000
  H   H16       1.0  0.68099  0.51419  0.04425  1.0000
  H   H17       1.0  0.99540  0.18452  0.54810  1.0000
  H   H18       1.0  0.49542  0.81551  0.95191  1.0000
  H   H19       1.0  0.00463  0.81542  0.45191  1.0000
  H   H20       1.0  0.50462  0.18457  0.04810  1.0000
  H   H21       1.0  0.48432  0.85464  0.34342  1.0000
  H   H22       1.0  0.98427  0.14537  0.15657  1.0000
  H   H23       1.0  0.51560  0.14539  0.65657  1.0000
  H   H24       1.0  0.01568  0.85461  0.84343  1.0000
  H   H25       1.0  0.79214  0.95555  0.58676  1.0000
  H   H26       1.0  0.29211  0.04439  0.91325  1.0000
  H   H27       1.0  0.20783  0.04444  0.41320  1.0000
  H   H28       1.0  0.70786  0.95561  0.08678  1.0000
  H   H29       1.0  0.78535  0.75458  0.59478  1.0000
  H   H30       1.0  0.28547  0.24537  0.90525  1.0000
  H   H31       1.0  0.21466  0.24539  0.40515  1.0000
  H   H32       1.0  0.71456  0.75465  0.09481  1.0000
  H   H33       1.0  0.49627  0.94030  0.20976  1.0000
  H   H34       1.0  0.99624  0.05970  0.29024  1.0000
  H   H35       1.0  0.50372  0.05971  0.79026  1.0000
  H   H36       1.0  0.00374  0.94030  0.70975  1.0000
  H   H37       1.0  0.64339  0.00537  0.45908  1.0000
  H   H38       1.0  0.14331  0.99461  0.04092  1.0000
  H   H39       1.0  0.35656  0.99464  0.54091  1.0000
  H   H40       1.0  0.85665  0.00538  0.95908  1.0000
  C   C1        1.0  0.40650  0.10343  0.20592  1.0000
  C   C2        1.0  0.90650  0.89656  0.29407  1.0000
  C   C3        1.0  0.59350  0.89659  0.79411  1.0000
  C   C4        1.0  0.09351  0.10343  0.70592  1.0000
  C   C5        1.0  0.42604  0.22272  0.24419  1.0000
  C   C6        1.0  0.92606  0.77727  0.25579  1.0000
  C   C7        1.0  0.57403  0.77729  0.75578  1.0000
  C   C8        1.0  0.07403  0.22272  0.74423  1.0000
  C   C9        1.0  0.62027  0.19393  0.33990  1.0000
  C   C10       1.0  0.12027  0.80609  0.16009  1.0000
  C   C11       1.0  0.37980  0.80607  0.66008  1.0000
  C   C12       1.0  0.87980  0.19393  0.83993  1.0000
  C   C13       1.0  0.92744  0.35872  0.55881  1.0000
  C   C14       1.0  0.42745  0.64132  0.94118  1.0000
  C   C15       1.0  0.07256  0.64124  0.44123  1.0000
  C   C16       1.0  0.57256  0.35875  0.05878  1.0000
  C   C17       1.0  0.44740  0.63685  0.33506  1.0000
  C   C18       1.0  0.94746  0.36317  0.16495  1.0000
  C   C19       1.0  0.55255  0.36314  0.66492  1.0000
  C   C20       1.0  0.05250  0.63684  0.83507  1.0000
  C   C21       1.0  0.73156  0.24823  0.41757  1.0000
  C   C22       1.0  0.23157  0.75180  0.08242  1.0000
  C   C23       1.0  0.26848  0.75176  0.58243  1.0000
  C   C24       1.0  0.76847  0.24823  0.91758  1.0000
  C   C25       1.0  0.82693  0.42017  0.52043  1.0000
  C   C26       1.0  0.32696  0.57986  0.97957  1.0000
  C   C27       1.0  0.17306  0.57979  0.47963  1.0000
  C   C28       1.0  0.67305  0.42020  0.02038  1.0000
  C   C29       1.0  0.63239  0.69011  0.47374  1.0000
  C   C30       1.0  0.13254  0.30988  0.02629  1.0000
  C   C31       1.0  0.36760  0.30987  0.52619  1.0000
  C   C32       1.0  0.86750  0.69013  0.97376  1.0000
  C   C33       1.0  0.54556  0.72049  0.40226  1.0000
  C   C34       1.0  0.04562  0.27950  0.09774  1.0000
  C   C35       1.0  0.45438  0.27950  0.59770  1.0000
  C   C36       1.0  0.95435  0.72049  0.90228  1.0000
  C   C37       1.0  0.92015  0.23828  0.52128  1.0000
  C   C38       1.0  0.42016  0.76175  0.97872  1.0000
  C   C39       1.0  0.07987  0.76167  0.47874  1.0000
  C   C40       1.0  0.57987  0.23831  0.02127  1.0000
  C   C41       1.0  0.55234  0.83382  0.39843  1.0000
  C   C42       1.0  0.05233  0.16617  0.10157  1.0000
  C   C43       1.0  0.44760  0.16619  0.60155  1.0000
  C   C44       1.0  0.94763  0.83381  0.89844  1.0000
  C   C45       1.0  0.72391  0.88956  0.53470  1.0000
  C   C46       1.0  0.22391  0.11039  0.96532  1.0000
  C   C47       1.0  0.27605  0.11043  0.46526  1.0000
  C   C48       1.0  0.77607  0.88960  0.03471  1.0000
  C   C49       1.0  0.72094  0.77787  0.53951  1.0000
  C   C50       1.0  0.22102  0.22210  0.96051  1.0000
  C   C51       1.0  0.27904  0.22211  0.46043  1.0000
  C   C52       1.0  0.77900  0.77791  0.03954  1.0000
  C   C53       1.0  0.50462  0.03443  0.23831  1.0000
  C   C54       1.0  0.00461  0.96557  0.26169  1.0000
  C   C55       1.0  0.49538  0.96558  0.76170  1.0000
  C   C56       1.0  0.99540  0.03443  0.73830  1.0000
  C   C57       1.0  0.64040  0.91819  0.46345  1.0000
  C   C58       1.0  0.14037  0.08178  0.03656  1.0000
  C   C59       1.0  0.35955  0.08182  0.53652  1.0000
  C   C60       1.0  0.85960  0.91821  0.96346  1.0000
  N   N1        1.0  0.53347  0.26837  0.31114  1.0000
  N   N2        1.0  0.03348  0.73162  0.18884  1.0000
  N   N3        1.0  0.46663  0.73162  0.68882  1.0000
  N   N4        1.0  0.96661  0.26838  0.81119  1.0000
  N   N5        1.0  0.82358  0.18236  0.45054  1.0000
  N   N6        1.0  0.32360  0.81768  0.04947  1.0000
  N   N7        1.0  0.17644  0.81762  0.54946  1.0000
  N   N8        1.0  0.67643  0.18237  0.95054  1.0000
  N   N9        1.0  0.44227  0.52191  0.32231  1.0000
  N   N10       1.0  0.94226  0.47809  0.17762  1.0000
  N   N11       1.0  0.55770  0.47810  0.67765  1.0000
  N   N12       1.0  0.05769  0.52189  0.82238  1.0000
  N   N13       1.0  0.72911  0.36452  0.45012  1.0000
  N   N14       1.0  0.22912  0.63551  0.04987  1.0000
  N   N15       1.0  0.27091  0.63547  0.54990  1.0000
  N   N16       1.0  0.77090  0.36452  0.95011  1.0000
  N   N17       1.0  0.61180  0.07896  0.30522  1.0000
  N   N18       1.0  0.11179  0.92105  0.19478  1.0000
  N   N19       1.0  0.38823  0.92104  0.69477  1.0000
  N   N20       1.0  0.88825  0.07896  0.80524  1.0000
  N   N21       1.0  0.33415  0.47635  0.25544  1.0000
  N   N22       1.0  0.83416  0.52366  0.24452  1.0000
  N   N23       1.0  0.66578  0.52368  0.74455  1.0000
  N   N24       1.0  0.16575  0.47628  0.75548  1.0000
  N   N25       1.0  0.27688  0.56154  0.22898  1.0000
  N   N26       1.0  0.77698  0.43849  0.27105  1.0000
  N   N27       1.0  0.72300  0.43848  0.77104  1.0000
  N   N28       1.0  0.22293  0.56146  0.72893  1.0000
  N   N29       1.0  0.34410  0.66249  0.27649  1.0000
  N   N30       1.0  0.84424  0.33754  0.22357  1.0000
  N   N31       1.0  0.65577  0.33750  0.72352  1.0000
  N   N32       1.0  0.15569  0.66244  0.77643  1.0000
  O   O1        1.0  0.63036  0.58666  0.48387  1.0000
  O   O2        1.0  0.13068  0.41336  0.01621  1.0000
  O   O3        1.0  0.36972  0.41333  0.51605  1.0000
  O   O4        1.0  0.86942  0.58667  0.98387  1.0000
