data_image0
_chemical_formula_structural       Bi2H20C60S6N4F30
_chemical_formula_sum              "Bi2 H20 C60 S6 N4 F30"
_cell_length_a       8.86858
_cell_length_b       12.7557
_cell_length_c       18.53
_cell_angle_alpha    75.9463
_cell_angle_beta     81.8737
_cell_angle_gamma    72.1937

_space_group_name_H-M_alt    "P 1"
_space_group_IT_number       1

loop_
  _space_group_symop_operation_xyz
  'x, y, z'

loop_
  _atom_site_type_symbol
  _atom_site_label
  _atom_site_symmetry_multiplicity
  _atom_site_fract_x
  _atom_site_fract_y
  _atom_site_fract_z
  _atom_site_occupancy
  Bi  Bi1       1.0  0.27363  0.05058  0.24498  1.0000
  Bi  Bi2       1.0  0.72638  0.94945  0.75501  1.0000
  H   H1        1.0  0.52167  0.91083  0.11730  1.0000
  H   H2        1.0  0.47831  0.08917  0.88269  1.0000
  H   H3        1.0  0.75591  0.91299  0.02763  1.0000
  H   H4        1.0  0.24408  0.08700  0.97236  1.0000
  H   H5        1.0  0.86843  0.13123  0.14569  1.0000
  H   H6        1.0  0.13158  0.86876  0.85431  1.0000
  H   H7        1.0  0.62866  0.11976  0.23047  1.0000
  H   H8        1.0  0.37134  0.88023  0.76953  1.0000
  H   H9        1.0  0.03062  0.09170  0.03262  1.0000
  H   H10       1.0  0.96938  0.90828  0.96738  1.0000
  H   H11       1.0  0.62373  0.84408  0.30775  1.0000
  H   H12       1.0  0.37627  0.15593  0.69226  1.0000
  H   H13       1.0  0.72413  0.65618  0.39083  1.0000
  H   H14       1.0  0.27587  0.34382  0.60918  1.0000
  H   H15       1.0  0.23859  0.67699  0.47564  1.0000
  H   H16       1.0  0.76139  0.32302  0.52436  1.0000
  H   H17       1.0  0.15843  0.86464  0.39026  1.0000
  H   H18       1.0  0.84156  0.13537  0.60974  1.0000
  H   H19       1.0  0.67473  0.50272  0.48764  1.0000
  H   H20       1.0  0.32524  0.49728  0.51236  1.0000
  C   C1        1.0  0.32069  0.26803  0.09931  1.0000
  C   C2        1.0  0.67930  0.73197  0.90069  1.0000
  C   C3        1.0  0.42786  0.25139  0.03672  1.0000
  C   C4        1.0  0.57216  0.74860  0.96328  1.0000
  C   C5        1.0  0.55152  0.30113  0.01684  1.0000
  C   C6        1.0  0.44850  0.69887  0.98316  1.0000
  C   C7        1.0  0.57187  0.37109  0.05975  1.0000
  C   C8        1.0  0.42812  0.62892  0.94025  1.0000
  C   C9        1.0  0.46696  0.39079  0.12182  1.0000
  C   C10       1.0  0.53304  0.60921  0.87818  1.0000
  C   C11       1.0  0.34460  0.33954  0.14092  1.0000
  C   C12       1.0  0.65540  0.66046  0.85908  1.0000
  C   C13       1.0  0.99728  0.15759  0.36514  1.0000
  C   C14       1.0  0.00271  0.84241  0.63486  1.0000
  C   C15       1.0  0.92114  0.27298  0.34073  1.0000
  C   C16       1.0  0.07885  0.72702  0.65927  1.0000
  C   C17       1.0  0.92888  0.35403  0.37759  1.0000
  C   C18       1.0  0.07111  0.64598  0.62241  1.0000
  C   C19       1.0  0.01480  0.32173  0.44085  1.0000
  C   C20       1.0  0.98519  0.67826  0.55915  1.0000
  C   C21       1.0  0.09122  0.20812  0.46707  1.0000
  C   C22       1.0  0.90878  0.79188  0.53292  1.0000
  C   C23       1.0  0.08144  0.12833  0.42949  1.0000
  C   C24       1.0  0.91856  0.87167  0.57051  1.0000
  C   C25       1.0  0.23619  0.79324  0.22192  1.0000
  C   C26       1.0  0.76383  0.20677  0.77809  1.0000
  C   C27       1.0  0.09839  0.76795  0.25914  1.0000
  C   C28       1.0  0.90163  0.23205  0.74085  1.0000
  C   C29       1.0  0.10309  0.66336  0.30528  1.0000
  C   C30       1.0  0.89693  0.33662  0.69471  1.0000
  C   C31       1.0  0.24741  0.57988  0.31508  1.0000
  C   C32       1.0  0.75262  0.42012  0.68491  1.0000
  C   C33       1.0  0.38687  0.60186  0.27879  1.0000
  C   C34       1.0  0.61315  0.39814  0.72121  1.0000
  C   C35       1.0  0.37941  0.70688  0.23234  1.0000
  C   C36       1.0  0.62061  0.29313  0.76767  1.0000
  C   C37       1.0  0.60278  0.95769  0.12176  1.0000
  C   C38       1.0  0.39721  0.04230  0.87823  1.0000
  C   C39       1.0  0.73422  0.95954  0.07191  1.0000
  C   C40       1.0  0.26577  0.04045  0.92809  1.0000
  C   C41       1.0  0.83413  0.02333  0.07812  1.0000
  C   C42       1.0  0.16587  0.97666  0.92188  1.0000
  C   C43       1.0  0.79462  0.08169  0.13680  1.0000
  C   C44       1.0  0.20538  0.91829  0.86320  1.0000
  C   C45       1.0  0.66077  0.07502  0.18466  1.0000
  C   C46       1.0  0.33923  0.92496  0.81534  1.0000
  C   C47       1.0  0.97183  0.03092  0.02648  1.0000
  C   C48       1.0  0.02816  0.96907  0.97352  1.0000
  C   C49       1.0  0.54211  0.80432  0.34620  1.0000
  C   C50       1.0  0.45789  0.19569  0.65381  1.0000
  C   C51       1.0  0.59775  0.69919  0.39254  1.0000
  C   C52       1.0  0.40225  0.30081  0.60747  1.0000
  C   C53       1.0  0.48967  0.64744  0.43916  1.0000
  C   C54       1.0  0.51032  0.35257  0.56084  1.0000
  C   C55       1.0  0.32857  0.70962  0.43903  1.0000
  C   C56       1.0  0.67142  0.29038  0.56096  1.0000
  C   C57       1.0  0.28267  0.81443  0.39185  1.0000
  C   C58       1.0  0.71733  0.18558  0.60815  1.0000
  C   C59       1.0  0.54639  0.53368  0.48338  1.0000
  C   C60       1.0  0.45359  0.46633  0.51662  1.0000
  S   S1        1.0  0.16453  0.20577  0.12199  1.0000
  S   S2        1.0  0.83547  0.79423  0.87800  1.0000
  S   S3        1.0  0.98490  0.05860  0.31669  1.0000
  S   S4        1.0  0.01511  0.94140  0.68330  1.0000
  S   S5        1.0  0.22763  0.92559  0.16391  1.0000
  S   S6        1.0  0.77238  0.07443  0.83611  1.0000
  N   N1        1.0  0.56489  0.01481  0.17728  1.0000
  N   N2        1.0  0.43510  0.98518  0.82272  1.0000
  N   N3        1.0  0.38686  0.86095  0.34501  1.0000
  N   N4        1.0  0.61314  0.13906  0.65499  1.0000
  F   F1        1.0  0.41391  0.18379  0.99354  1.0000
  F   F2        1.0  0.58610  0.81621  0.00645  1.0000
  F   F3        1.0  0.65303  0.28129  0.95682  1.0000
  F   F4        1.0  0.34698  0.71872  0.04318  1.0000
  F   F5        1.0  0.69124  0.41968  0.04123  1.0000
  F   F6        1.0  0.30875  0.58032  0.95878  1.0000
  F   F7        1.0  0.48508  0.45972  0.16284  1.0000
  F   F8        1.0  0.51490  0.54028  0.83716  1.0000
  F   F9        1.0  0.24711  0.36039  0.20234  1.0000
  F   F10       1.0  0.75288  0.63961  0.79765  1.0000
  F   F11       1.0  0.83667  0.30828  0.28001  1.0000
  F   F12       1.0  0.16333  0.69172  0.71999  1.0000
  F   F13       1.0  0.85237  0.46362  0.35290  1.0000
  F   F14       1.0  0.14761  0.53638  0.64710  1.0000
  F   F15       1.0  0.02017  0.39952  0.47784  1.0000
  F   F16       1.0  0.97983  0.60048  0.52215  1.0000
  F   F17       1.0  0.17231  0.17664  0.52900  1.0000
  F   F18       1.0  0.82768  0.82336  0.47100  1.0000
  F   F19       1.0  0.15714  0.01917  0.45730  1.0000
  F   F20       1.0  0.84286  0.98083  0.54271  1.0000
  F   F21       1.0  0.95564  0.84621  0.25220  1.0000
  F   F22       1.0  0.04437  0.15377  0.74781  1.0000
  F   F23       1.0  0.96902  0.64310  0.34215  1.0000
  F   F24       1.0  0.03099  0.35687  0.65782  1.0000
  F   F25       1.0  0.25255  0.47890  0.36044  1.0000
  F   F26       1.0  0.74747  0.52110  0.63954  1.0000
  F   F27       1.0  0.52676  0.52248  0.29019  1.0000
  F   F28       1.0  0.47326  0.47753  0.70981  1.0000
  F   F29       1.0  0.51695  0.72503  0.19838  1.0000
  F   F30       1.0  0.48307  0.27499  0.80163  1.0000
