data_image0
_chemical_formula_structural       Bi2H24C72S6N12F30
_chemical_formula_sum              "Bi2 H24 C72 S6 N12 F30"
_cell_length_a       7.60343
_cell_length_b       14.1318
_cell_length_c       17.931
_cell_angle_alpha    73.215
_cell_angle_beta     78.6823
_cell_angle_gamma    75.1189

_space_group_name_H-M_alt    "P 1"
_space_group_IT_number       1

loop_
  _space_group_symop_operation_xyz
  'x, y, z'

loop_
  _atom_site_type_symbol
  _atom_site_label
  _atom_site_symmetry_multiplicity
  _atom_site_fract_x
  _atom_site_fract_y
  _atom_site_fract_z
  _atom_site_occupancy
  Bi  Bi1       1.0  0.27744  0.29985  0.29411  1.0000
  Bi  Bi2       1.0  0.72256  0.70015  0.70589  1.0000
  H   H1        1.0  0.31129  0.54794  0.27992  1.0000
  H   H2        1.0  0.68871  0.45207  0.72008  1.0000
  H   H3        1.0  0.16823  0.73409  0.24906  1.0000
  H   H4        1.0  0.83177  0.26591  0.75093  1.0000
  H   H5        1.0  0.69766  0.66179  0.19544  1.0000
  H   H6        1.0  0.30234  0.33822  0.80456  1.0000
  H   H7        1.0  0.85347  0.47893  0.23245  1.0000
  H   H8        1.0  0.14653  0.52107  0.76755  1.0000
  H   H9        1.0  0.12725  0.91855  0.03915  1.0000
  H   H10       1.0  0.87275  0.08145  0.96085  1.0000
  H   H11       1.0  0.39973  0.84391  0.11470  1.0000
  H   H12       1.0  0.60026  0.15609  0.88530  1.0000
  H   H13       1.0  0.45197  0.14863  0.08877  1.0000
  H   H14       1.0  0.54802  0.85137  0.91123  1.0000
  H   H15       1.0  0.18393  0.20940  0.01347  1.0000
  H   H16       1.0  0.81606  0.79060  0.98653  1.0000
  H   H17       1.0  0.94402  0.30138  0.17874  1.0000
  H   H18       1.0  0.05598  0.69862  0.82126  1.0000
  H   H19       1.0  0.78437  0.19072  0.14207  1.0000
  H   H20       1.0  0.21563  0.80929  0.85793  1.0000
  H   H21       1.0  0.10223  0.93417  0.29105  1.0000
  H   H22       1.0  0.89777  0.06583  0.70894  1.0000
  H   H23       1.0  0.24586  0.05545  0.32394  1.0000
  H   H24       1.0  0.75414  0.94455  0.67605  1.0000
  C   C1        1.0  0.54091  0.37561  0.41042  1.0000
  C   C2        1.0  0.45909  0.62439  0.58958  1.0000
  C   C3        1.0  0.70086  0.36484  0.44334  1.0000
  C   C4        1.0  0.29915  0.63515  0.55666  1.0000
  C   C5        1.0  0.69797  0.36322  0.52158  1.0000
  C   C6        1.0  0.30204  0.63678  0.47842  1.0000
  C   C7        1.0  0.53105  0.37245  0.57082  1.0000
  C   C8        1.0  0.46895  0.62754  0.42918  1.0000
  C   C9        1.0  0.36924  0.38368  0.54057  1.0000
  C   C10       1.0  0.63076  0.61632  0.45943  1.0000
  C   C11       1.0  0.37623  0.38512  0.46204  1.0000
  C   C12       1.0  0.62377  0.61488  0.53796  1.0000
  C   C13       1.0  0.38601  0.44887  0.11002  1.0000
  C   C14       1.0  0.61399  0.55113  0.88998  1.0000
  C   C15       1.0  0.21881  0.49664  0.08055  1.0000
  C   C16       1.0  0.78119  0.50336  0.91945  1.0000
  C   C17       1.0  0.17603  0.59987  0.04569  1.0000
  C   C18       1.0  0.82397  0.40013  0.95431  1.0000
  C   C19       1.0  0.30163  0.65917  0.03973  1.0000
  C   C20       1.0  0.69837  0.34083  0.96027  1.0000
  C   C21       1.0  0.46951  0.61415  0.06818  1.0000
  C   C22       1.0  0.53049  0.38585  0.93182  1.0000
  C   C23       1.0  0.51064  0.51037  0.10194  1.0000
  C   C24       1.0  0.48936  0.48963  0.89806  1.0000
  C   C25       1.0  0.50056  0.12571  0.43025  1.0000
  C   C26       1.0  0.49944  0.87429  0.56975  1.0000
  C   C27       1.0  0.66131  0.11870  0.46082  1.0000
  C   C28       1.0  0.33869  0.88130  0.53918  1.0000
  C   C29       1.0  0.65878  0.12074  0.53818  1.0000
  C   C30       1.0  0.34122  0.87926  0.46182  1.0000
  C   C31       1.0  0.49287  0.13025  0.58781  1.0000
  C   C32       1.0  0.50713  0.86975  0.41219  1.0000
  C   C33       1.0  0.33023  0.13713  0.55978  1.0000
  C   C34       1.0  0.66977  0.86287  0.44022  1.0000
  C   C35       1.0  0.33635  0.13412  0.48239  1.0000
  C   C36       1.0  0.66365  0.86588  0.51761  1.0000
  C   C37       1.0  0.17499  0.57653  0.26121  1.0000
  C   C38       1.0  0.82501  0.42347  0.73879  1.0000
  C   C39       1.0  0.09635  0.67942  0.24367  1.0000
  C   C40       1.0  0.90365  0.32058  0.75633  1.0000
  C   C41       1.0  0.92214  0.71228  0.21885  1.0000
  C   C42       1.0  0.07786  0.28772  0.78115  1.0000
  C   C43       1.0  0.83320  0.63915  0.21426  1.0000
  C   C44       1.0  0.16680  0.36085  0.78574  1.0000
  C   C45       1.0  0.92112  0.53752  0.23416  1.0000
  C   C46       1.0  0.07888  0.46248  0.76584  1.0000
  C   C47       1.0  0.20352  0.96661  0.05180  1.0000
  C   C48       1.0  0.79648  0.03339  0.94820  1.0000
  C   C49       1.0  0.35331  0.92539  0.09382  1.0000
  C   C50       1.0  0.64669  0.07461  0.90618  1.0000
  C   C51       1.0  0.44655  0.99086  0.10767  1.0000
  C   C52       1.0  0.55344  0.00913  0.89233  1.0000
  C   C53       1.0  0.38320  0.09523  0.07924  1.0000
  C   C54       1.0  0.61679  0.90477  0.92076  1.0000
  C   C55       1.0  0.23352  0.12873  0.03742  1.0000
  C   C56       1.0  0.76647  0.87127  0.96258  1.0000
  C   C57       1.0  0.97533  0.21966  0.20284  1.0000
  C   C58       1.0  0.02467  0.78034  0.79716  1.0000
  C   C59       1.0  0.88714  0.15798  0.18203  1.0000
  C   C60       1.0  0.11286  0.84202  0.81797  1.0000
  C   C61       1.0  0.93273  0.05323  0.21328  1.0000
  C   C62       1.0  0.06727  0.94677  0.78672  1.0000
  C   C63       1.0  0.06443  0.01500  0.26494  1.0000
  C   C64       1.0  0.93557  0.98501  0.73505  1.0000
  C   C65       1.0  0.14369  0.08202  0.28348  1.0000
  C   C66       1.0  0.85631  0.91798  0.71652  1.0000
  C   C67       1.0  0.84393  0.98287  0.19430  1.0000
  C   C68       1.0  0.15607  0.01713  0.80570  1.0000
  C   C69       1.0  0.61246  0.95215  0.14783  1.0000
  C   C70       1.0  0.38754  0.04785  0.85217  1.0000
  C   C71       1.0  0.83643  0.82188  0.19847  1.0000
  C   C72       1.0  0.16357  0.17812  0.80153  1.0000
  S   S1        1.0  0.55764  0.37737  0.31156  1.0000
  S   S2        1.0  0.44236  0.62263  0.68844  1.0000
  S   S3        1.0  0.43966  0.31794  0.15058  1.0000
  S   S4        1.0  0.56034  0.68206  0.84942  1.0000
  S   S5        1.0  0.51103  0.12206  0.33273  1.0000
  S   S6        1.0  0.48897  0.87794  0.66727  1.0000
  N   N1        1.0  0.10215  0.18254  0.25271  1.0000
  N   N2        1.0  0.89785  0.81746  0.74729  1.0000
  N   N3        1.0  0.14408  0.06654  0.02317  1.0000
  N   N4        1.0  0.85592  0.93346  0.97683  1.0000
  N   N5        1.0  0.09015  0.50630  0.25632  1.0000
  N   N6        1.0  0.90985  0.49370  0.74368  1.0000
  N   N7        1.0  0.92520  0.88425  0.21254  1.0000
  N   N8        1.0  0.07480  0.11575  0.78746  1.0000
  N   N9        1.0  0.68889  0.02076  0.16123  1.0000
  N   N10       1.0  0.31111  0.97924  0.83877  1.0000
  N   N11       1.0  0.67869  0.85151  0.16717  1.0000
  N   N12       1.0  0.32131  0.14849  0.83283  1.0000
  F   F1        1.0  0.86642  0.35473  0.39787  1.0000
  F   F2        1.0  0.13359  0.64527  0.60213  1.0000
  F   F3        1.0  0.85484  0.35290  0.55035  1.0000
  F   F4        1.0  0.14517  0.64710  0.44965  1.0000
  F   F5        1.0  0.52649  0.37023  0.64702  1.0000
  F   F6        1.0  0.47352  0.62977  0.35298  1.0000
  F   F7        1.0  0.20690  0.39308  0.58751  1.0000
  F   F8        1.0  0.79311  0.60692  0.41249  1.0000
  F   F9        1.0  0.21487  0.39461  0.43564  1.0000
  F   F10       1.0  0.78513  0.60539  0.56436  1.0000
  F   F11       1.0  0.09188  0.44238  0.08692  1.0000
  F   F12       1.0  0.90811  0.55762  0.91309  1.0000
  F   F13       1.0  0.01380  0.64292  0.01832  1.0000
  F   F14       1.0  0.98619  0.35708  0.98168  1.0000
  F   F15       1.0  0.26113  0.75910  0.00653  1.0000
  F   F16       1.0  0.73887  0.24090  0.99347  1.0000
  F   F17       1.0  0.59119  0.67158  0.06223  1.0000
  F   F18       1.0  0.40881  0.32842  0.93777  1.0000
  F   F19       1.0  0.67722  0.46961  0.12640  1.0000
  F   F20       1.0  0.32278  0.53039  0.87360  1.0000
  F   F21       1.0  0.82456  0.11068  0.41467  1.0000
  F   F22       1.0  0.17544  0.88932  0.58533  1.0000
  F   F23       1.0  0.81547  0.11582  0.56517  1.0000
  F   F24       1.0  0.18452  0.88417  0.43483  1.0000
  F   F25       1.0  0.48984  0.13446  0.66230  1.0000
  F   F26       1.0  0.51015  0.86554  0.33770  1.0000
  F   F27       1.0  0.16957  0.14691  0.60754  1.0000
  F   F28       1.0  0.83043  0.85309  0.39246  1.0000
  F   F29       1.0  0.17541  0.14093  0.45704  1.0000
  F   F30       1.0  0.82459  0.85907  0.54295  1.0000
