data_image0
_chemical_formula_structural       H48Rh4C64N4O24
_chemical_formula_sum              "H48 Rh4 C64 N4 O24"
_cell_length_a       9.57453
_cell_length_b       9.9787
_cell_length_c       19.597
_cell_angle_alpha    98.1361
_cell_angle_beta     89.9981
_cell_angle_gamma    118.67

_space_group_name_H-M_alt    "P 1"
_space_group_IT_number       1

loop_
  _space_group_symop_operation_xyz
  'x, y, z'

loop_
  _atom_site_type_symbol
  _atom_site_label
  _atom_site_symmetry_multiplicity
  _atom_site_fract_x
  _atom_site_fract_y
  _atom_site_fract_z
  _atom_site_occupancy
  H   H1        1.0  0.92245  0.85374  0.53086  1.0000
  H   H2        1.0  0.93122  0.85367  0.03088  1.0000
  H   H3        1.0  0.07753  0.14624  0.46914  1.0000
  H   H4        1.0  0.06878  0.14633  0.96912  1.0000
  H   H5        1.0  0.86171  0.71493  0.40956  1.0000
  H   H6        1.0  0.85317  0.71494  0.90956  1.0000
  H   H7        1.0  0.13827  0.28506  0.59044  1.0000
  H   H8        1.0  0.14683  0.28506  0.09044  1.0000
  H   H9        1.0  0.58053  0.57288  0.35749  1.0000
  H   H10       1.0  0.99236  0.57300  0.85745  1.0000
  H   H11       1.0  0.41946  0.42712  0.64251  1.0000
  H   H12       1.0  0.00765  0.42700  0.14255  1.0000
  H   H13       1.0  0.36230  0.57362  0.42679  1.0000
  H   H14       1.0  0.21124  0.57359  0.92673  1.0000
  H   H15       1.0  0.63769  0.42640  0.57321  1.0000
  H   H16       1.0  0.78877  0.42642  0.07327  1.0000
  H   H17       1.0  0.42495  0.71541  0.54691  1.0000
  H   H18       1.0  0.29030  0.71521  0.04688  1.0000
  H   H19       1.0  0.57504  0.28460  0.45308  1.0000
  H   H20       1.0  0.70971  0.28480  0.95312  1.0000
  H   H21       1.0  0.75656  0.53097  0.79506  1.0000
  H   H22       1.0  0.77428  0.53089  0.29506  1.0000
  H   H23       1.0  0.24344  0.46903  0.20494  1.0000
  H   H24       1.0  0.22572  0.46911  0.70493  1.0000
  H   H25       1.0  0.63273  0.28695  0.84570  1.0000
  H   H26       1.0  0.65412  0.28685  0.34568  1.0000
  H   H27       1.0  0.36727  0.71305  0.15430  1.0000
  H   H28       1.0  0.34588  0.71314  0.65432  1.0000
  H   H29       1.0  0.36476  0.19468  0.89100  1.0000
  H   H30       1.0  0.82976  0.19455  0.39092  1.0000
  H   H31       1.0  0.63524  0.80533  0.10901  1.0000
  H   H32       1.0  0.17024  0.80544  0.60906  1.0000
  H   H33       1.0  0.21192  0.33290  0.87803  1.0000
  H   H34       1.0  0.12084  0.33276  0.37801  1.0000
  H   H35       1.0  0.78809  0.66711  0.12198  1.0000
  H   H36       1.0  0.87916  0.66724  0.62198  1.0000
  H   H37       1.0  0.33862  0.57933  0.82798  1.0000
  H   H38       1.0  0.24060  0.57923  0.32796  1.0000
  H   H39       1.0  0.66138  0.42067  0.17202  1.0000
  H   H40       1.0  0.75940  0.42078  0.67203  1.0000
  H   H41       1.0  0.07435  0.86364  0.82745  1.0000
  H   H42       1.0  0.78920  0.86355  0.32747  1.0000
  H   H43       1.0  0.92565  0.13637  0.17255  1.0000
  H   H44       1.0  0.21079  0.13644  0.67253  1.0000
  H   H45       1.0  0.33813  0.86295  0.82726  1.0000
  H   H46       1.0  0.52472  0.86281  0.32727  1.0000
  H   H47       1.0  0.66187  0.13706  0.17274  1.0000
  H   H48       1.0  0.47526  0.13717  0.67272  1.0000
  Rh  Rh1       1.0  0.90182  0.00006  0.75000  1.0000
  Rh  Rh2       1.0  0.09817  0.99994  0.24999  1.0000
  Rh  Rh3       1.0  0.64883  0.00008  0.75000  1.0000
  Rh  Rh4       1.0  0.35118  0.99992  0.25000  1.0000
  C   C1        1.0  0.71433  0.87327  0.61902  1.0000
  C   C2        1.0  0.15883  0.87307  0.11900  1.0000
  C   C3        1.0  0.28566  0.12672  0.38098  1.0000
  C   C4        1.0  0.84117  0.12693  0.88100  1.0000
  C   C5        1.0  0.67728  0.79265  0.54628  1.0000
  C   C6        1.0  0.11519  0.79243  0.04627  1.0000
  C   C7        1.0  0.32270  0.20735  0.45372  1.0000
  C   C8        1.0  0.88481  0.20757  0.95373  1.0000
  C   C9        1.0  0.80028  0.79219  0.50741  1.0000
  C   C10       1.0  0.99177  0.79204  0.00743  1.0000
  C   C11       1.0  0.19971  0.20780  0.49259  1.0000
  C   C12       1.0  0.00824  0.20796  0.99257  1.0000
  C   C13       1.0  0.76572  0.71459  0.43956  1.0000
  C   C14       1.0  0.94873  0.71450  0.93958  1.0000
  C   C15       1.0  0.23426  0.28539  0.56044  1.0000
  C   C16       1.0  0.05128  0.28551  0.06042  1.0000
  C   C17       1.0  0.60805  0.63555  0.41036  1.0000
  C   C18       1.0  0.02738  0.63551  0.91034  1.0000
  C   C19       1.0  0.39194  0.36446  0.58964  1.0000
  C   C20       1.0  0.97262  0.36449  0.08966  1.0000
  C   C21       1.0  0.48549  0.63607  0.44890  1.0000
  C   C22       1.0  0.15041  0.63593  0.94887  1.0000
  C   C23       1.0  0.51449  0.36394  0.55110  1.0000
  C   C24       1.0  0.84960  0.36408  0.05113  1.0000
  C   C25       1.0  0.51983  0.71501  0.51651  1.0000
  C   C26       1.0  0.19499  0.71476  0.01648  1.0000
  C   C27       1.0  0.48016  0.28500  0.48349  1.0000
  C   C28       1.0  0.80502  0.28524  0.98352  1.0000
  C   C29       1.0  0.63466  0.72332  0.78573  1.0000
  C   C30       1.0  0.08854  0.72325  0.28573  1.0000
  C   C31       1.0  0.36534  0.27667  0.21428  1.0000
  C   C32       1.0  0.91146  0.27675  0.71427  1.0000
  C   C33       1.0  0.55639  0.57147  0.81031  1.0000
  C   C34       1.0  0.01495  0.57137  0.31030  1.0000
  C   C35       1.0  0.44361  0.42854  0.18969  1.0000
  C   C36       1.0  0.98505  0.42862  0.68970  1.0000
  C   C37       1.0  0.63851  0.48797  0.81439  1.0000
  C   C38       1.0  0.84934  0.48790  0.31439  1.0000
  C   C39       1.0  0.36149  0.51203  0.18562  1.0000
  C   C40       1.0  0.15066  0.51209  0.68561  1.0000
  C   C41       1.0  0.56941  0.35245  0.84314  1.0000
  C   C42       1.0  0.78294  0.35238  0.34311  1.0000
  C   C43       1.0  0.43059  0.64755  0.15687  1.0000
  C   C44       1.0  0.21707  0.64761  0.65688  1.0000
  C   C45       1.0  0.41785  0.29959  0.86769  1.0000
  C   C46       1.0  0.88164  0.29949  0.36763  1.0000
  C   C47       1.0  0.58215  0.70041  0.13232  1.0000
  C   C48       1.0  0.11836  0.70050  0.63236  1.0000
  C   C49       1.0  0.33256  0.37869  0.86124  1.0000
  C   C50       1.0  0.04604  0.37861  0.36122  1.0000
  C   C51       1.0  0.66744  0.62131  0.13877  1.0000
  C   C52       1.0  0.95396  0.62139  0.63877  1.0000
  C   C53       1.0  0.40166  0.51438  0.83268  1.0000
  C   C54       1.0  0.11261  0.51428  0.33266  1.0000
  C   C55       1.0  0.59834  0.48562  0.16732  1.0000
  C   C56       1.0  0.88739  0.48572  0.66733  1.0000
  C   C57       1.0  0.16441  0.92468  0.79287  1.0000
  C   C58       1.0  0.76013  0.92456  0.29288  1.0000
  C   C59       1.0  0.83558  0.07533  0.20713  1.0000
  C   C60       1.0  0.23986  0.07543  0.70711  1.0000
  C   C61       1.0  0.30933  0.92451  0.79283  1.0000
  C   C62       1.0  0.61507  0.92436  0.29283  1.0000
  C   C63       1.0  0.69066  0.07550  0.20718  1.0000
  C   C64       1.0  0.38492  0.07563  0.70717  1.0000
  N   N1        1.0  0.12895  0.00005  0.74999  1.0000
  N   N2        1.0  0.87104  0.99994  0.25001  1.0000
  N   N3        1.0  0.42038  0.00007  0.75000  1.0000
  N   N4        1.0  0.57961  0.99993  0.25000  1.0000
  O   O1        1.0  0.85123  0.91024  0.64767  1.0000
  O   O2        1.0  0.05892  0.91010  0.14766  1.0000
  O   O3        1.0  0.14875  0.08975  0.35233  1.0000
  O   O4        1.0  0.94108  0.08990  0.85234  1.0000
  O   O5        1.0  0.60728  0.89854  0.64826  1.0000
  O   O6        1.0  0.29114  0.89832  0.14825  1.0000
  O   O7        1.0  0.39271  0.10146  0.35174  1.0000
  O   O8        1.0  0.70886  0.10167  0.85175  1.0000
  O   O9        1.0  0.78348  0.78159  0.77507  1.0000
  O   O10       1.0  0.99799  0.78149  0.27506  1.0000
  O   O11       1.0  0.21652  0.21841  0.22493  1.0000
  O   O12       1.0  0.00201  0.21851  0.72493  1.0000
  O   O13       1.0  0.54779  0.78695  0.77835  1.0000
  O   O14       1.0  0.23904  0.78685  0.27838  1.0000
  O   O15       1.0  0.45221  0.21304  0.22165  1.0000
  O   O16       1.0  0.76095  0.21315  0.72162  1.0000
  O   O17       1.0  0.31955  0.91522  0.50756  1.0000
  O   O18       1.0  0.59563  0.91524  0.00761  1.0000
  O   O19       1.0  0.68047  0.08473  0.49243  1.0000
  O   O20       1.0  0.40446  0.08479  0.99243  1.0000
  O   O21       1.0  0.23434  0.83011  0.45510  1.0000
  O   O22       1.0  0.59585  0.83016  0.95517  1.0000
  O   O23       1.0  0.76563  0.16991  0.54489  1.0000
  O   O24       1.0  0.40422  0.16987  0.04487  1.0000
