data_image0
_chemical_formula_structural       Zn4H36C32N12O20
_chemical_formula_sum              "Zn4 H36 C32 N12 O20"
_cell_length_a       7.17487
_cell_length_b       8.79826
_cell_length_c       16.234
_cell_angle_alpha    90
_cell_angle_beta     90
_cell_angle_gamma    90

_space_group_name_H-M_alt    "P 1"
_space_group_IT_number       1

loop_
  _space_group_symop_operation_xyz
  'x, y, z'

loop_
  _atom_site_type_symbol
  _atom_site_label
  _atom_site_symmetry_multiplicity
  _atom_site_fract_x
  _atom_site_fract_y
  _atom_site_fract_z
  _atom_site_occupancy
  Zn  Zn1       1.0  0.75043  0.54499  0.04064  1.0000
  Zn  Zn2       1.0  0.74957  0.45501  0.54064  1.0000
  Zn  Zn3       1.0  0.24959  0.04498  0.45936  1.0000
  Zn  Zn4       1.0  0.25042  0.95502  0.95936  1.0000
  H   H1        1.0  0.93670  0.31633  0.39592  1.0000
  H   H2        1.0  0.56331  0.68367  0.89592  1.0000
  H   H3        1.0  0.06330  0.81634  0.10408  1.0000
  H   H4        1.0  0.43670  0.18366  0.60408  1.0000
  H   H5        1.0  0.17539  0.48479  0.06958  1.0000
  H   H6        1.0  0.32460  0.51520  0.56958  1.0000
  H   H7        1.0  0.82460  0.98480  0.43042  1.0000
  H   H8        1.0  0.67540  0.01520  0.93042  1.0000
  H   H9        1.0  0.21783  0.35923  0.32582  1.0000
  H   H10       1.0  0.28217  0.64077  0.82582  1.0000
  H   H11       1.0  0.78218  0.85924  0.17418  1.0000
  H   H12       1.0  0.71782  0.14076  0.67418  1.0000
  H   H13       1.0  0.36905  0.39443  0.18647  1.0000
  H   H14       1.0  0.13095  0.60557  0.68648  1.0000
  H   H15       1.0  0.63095  0.89443  0.31352  1.0000
  H   H16       1.0  0.86905  0.10557  0.81352  1.0000
  H   H17       1.0  0.70831  0.52645  0.21734  1.0000
  H   H18       1.0  0.79169  0.47355  0.71734  1.0000
  H   H19       1.0  0.29170  0.02645  0.28266  1.0000
  H   H20       1.0  0.20830  0.97355  0.78266  1.0000
  H   H21       1.0  0.73413  0.60646  0.40431  1.0000
  H   H22       1.0  0.76587  0.39354  0.90430  1.0000
  H   H23       1.0  0.26587  0.10646  0.09570  1.0000
  H   H24       1.0  0.23413  0.89354  0.59570  1.0000
  H   H25       1.0  0.95717  0.58422  0.43194  1.0000
  H   H26       1.0  0.54283  0.41578  0.93194  1.0000
  H   H27       1.0  0.04282  0.08422  0.06806  1.0000
  H   H28       1.0  0.45718  0.91578  0.56806  1.0000
  H   H29       1.0  0.67252  0.24967  0.29560  1.0000
  H   H30       1.0  0.82749  0.75033  0.79560  1.0000
  H   H31       1.0  0.32748  0.74967  0.20440  1.0000
  H   H32       1.0  0.17253  0.25033  0.70440  1.0000
  H   H33       1.0  0.56471  0.42208  0.32242  1.0000
  H   H34       1.0  0.93530  0.57792  0.82242  1.0000
  H   H35       1.0  0.43529  0.92208  0.17759  1.0000
  H   H36       1.0  0.06471  0.07792  0.67759  1.0000
  C   C1        1.0  0.85019  0.40154  0.36439  1.0000
  C   C2        1.0  0.64981  0.59846  0.86439  1.0000
  C   C3        1.0  0.14981  0.90154  0.13561  1.0000
  C   C4        1.0  0.35019  0.09846  0.63561  1.0000
  C   C5        1.0  0.95003  0.44045  0.28403  1.0000
  C   C6        1.0  0.54996  0.55955  0.78403  1.0000
  C   C7        1.0  0.04997  0.94045  0.21597  1.0000
  C   C8        1.0  0.45003  0.05954  0.71597  1.0000
  C   C9        1.0  0.11648  0.47413  0.13126  1.0000
  C   C10       1.0  0.38352  0.52587  0.63126  1.0000
  C   C11       1.0  0.88352  0.97414  0.36874  1.0000
  C   C12       1.0  0.61648  0.02586  0.86874  1.0000
  C   C13       1.0  0.13890  0.40482  0.27403  1.0000
  C   C14       1.0  0.36110  0.59518  0.77403  1.0000
  C   C15       1.0  0.86110  0.90483  0.22597  1.0000
  C   C16       1.0  0.63890  0.09517  0.72597  1.0000
  C   C17       1.0  0.22353  0.42364  0.19734  1.0000
  C   C18       1.0  0.27647  0.57636  0.69734  1.0000
  C   C19       1.0  0.77647  0.92365  0.30266  1.0000
  C   C20       1.0  0.72353  0.07635  0.80266  1.0000
  C   C21       1.0  0.85512  0.49540  0.21490  1.0000
  C   C22       1.0  0.64488  0.50461  0.71491  1.0000
  C   C23       1.0  0.14488  0.99540  0.28509  1.0000
  C   C24       1.0  0.35512  0.00460  0.78509  1.0000
  C   C25       1.0  0.65908  0.33321  0.34543  1.0000
  C   C26       1.0  0.84092  0.66679  0.84543  1.0000
  C   C27       1.0  0.34092  0.83322  0.15457  1.0000
  C   C28       1.0  0.15908  0.16679  0.65457  1.0000
  C   C29       1.0  0.55495  0.25589  0.41517  1.0000
  C   C30       1.0  0.94506  0.74412  0.91516  1.0000
  C   C31       1.0  0.44504  0.75590  0.08482  1.0000
  C   C32       1.0  0.05495  0.24411  0.58483  1.0000
  N   N1        1.0  0.93472  0.50953  0.13995  1.0000
  N   N2        1.0  0.56528  0.49047  0.63995  1.0000
  N   N3        1.0  0.06528  0.00953  0.36005  1.0000
  N   N4        1.0  0.43472  0.99047  0.86005  1.0000
  N   N5        1.0  0.67086  0.21449  0.07900  1.0000
  N   N6        1.0  0.82915  0.78551  0.57900  1.0000
  N   N7        1.0  0.32913  0.71448  0.42101  1.0000
  N   N8        1.0  0.17086  0.28551  0.92101  1.0000
  N   N9        1.0  0.83130  0.52906  0.42430  1.0000
  N   N10       1.0  0.66870  0.47094  0.92430  1.0000
  N   N11       1.0  0.16870  0.02907  0.07570  1.0000
  N   N12       1.0  0.33130  0.97093  0.57570  1.0000
  O   O1        1.0  0.82439  0.21163  0.04039  1.0000
  O   O2        1.0  0.67561  0.78837  0.54039  1.0000
  O   O3        1.0  0.17560  0.71163  0.45961  1.0000
  O   O4        1.0  0.32440  0.28837  0.95961  1.0000
  O   O5        1.0  0.59473  0.34319  0.09479  1.0000
  O   O6        1.0  0.90527  0.65680  0.59479  1.0000
  O   O7        1.0  0.40527  0.84319  0.40521  1.0000
  O   O8        1.0  0.09473  0.15681  0.90521  1.0000
  O   O9        1.0  0.42718  0.16581  0.39047  1.0000
  O   O10       1.0  0.07282  0.83419  0.89047  1.0000
  O   O11       1.0  0.57282  0.66581  0.10953  1.0000
  O   O12       1.0  0.92718  0.33419  0.60953  1.0000
  O   O13       1.0  0.59084  0.27966  0.49056  1.0000
  O   O14       1.0  0.90916  0.72034  0.99056  1.0000
  O   O15       1.0  0.40915  0.77967  0.00944  1.0000
  O   O16       1.0  0.09084  0.22033  0.50944  1.0000
  O   O17       1.0  0.59121  0.09435  0.10154  1.0000
  O   O18       1.0  0.90880  0.90564  0.60154  1.0000
  O   O19       1.0  0.40878  0.59435  0.39846  1.0000
  O   O20       1.0  0.09121  0.40565  0.89846  1.0000
