data_image0
_chemical_formula_structural       Hg4H32C30S8Br8
_chemical_formula_sum              "Hg4 H32 C30 S8 Br8"
_cell_length_a       7.83792
_cell_length_b       10.7303
_cell_length_c       13.8796
_cell_angle_alpha    83.4514
_cell_angle_beta     84.0191
_cell_angle_gamma    86.8873

_space_group_name_H-M_alt    "P 1"
_space_group_IT_number       1

loop_
  _space_group_symop_operation_xyz
  'x, y, z'

loop_
  _atom_site_type_symbol
  _atom_site_label
  _atom_site_symmetry_multiplicity
  _atom_site_fract_x
  _atom_site_fract_y
  _atom_site_fract_z
  _atom_site_occupancy
  Hg  Hg1       1.0  0.79822  0.75778  0.16940  1.0000
  Hg  Hg2       1.0  0.20178  0.24222  0.83060  1.0000
  Hg  Hg3       1.0  0.45680  0.88507  0.67451  1.0000
  Hg  Hg4       1.0  0.54317  0.11493  0.32549  1.0000
  H   H1        1.0  0.39814  0.45070  0.35163  1.0000
  H   H2        1.0  0.60185  0.54930  0.64836  1.0000
  H   H3        1.0  0.25619  0.64921  0.39810  1.0000
  H   H4        1.0  0.74380  0.35079  0.60189  1.0000
  H   H5        1.0  0.74971  0.78564  0.43973  1.0000
  H   H6        1.0  0.25029  0.21435  0.56027  1.0000
  H   H7        1.0  0.88992  0.58441  0.39704  1.0000
  H   H8        1.0  0.11008  0.41559  0.60296  1.0000
  H   H9        1.0  0.45086  0.57422  0.13633  1.0000
  H   H10       1.0  0.54915  0.42578  0.86366  1.0000
  H   H11       1.0  0.19415  0.47392  0.09786  1.0000
  H   H12       1.0  0.80586  0.52607  0.90214  1.0000
  H   H13       1.0  0.99642  0.45694  0.25439  1.0000
  H   H14       1.0  0.00358  0.54305  0.74561  1.0000
  H   H15       1.0  0.95157  0.30910  0.21741  1.0000
  H   H16       1.0  0.04843  0.69090  0.78259  1.0000
  H   H17       1.0  0.75366  0.23173  0.09824  1.0000
  H   H18       1.0  0.24635  0.76828  0.90176  1.0000
  H   H19       1.0  0.49620  0.12876  0.06459  1.0000
  H   H20       1.0  0.50381  0.87124  0.93541  1.0000
  H   H21       1.0  0.16325  0.85138  0.36723  1.0000
  H   H22       1.0  0.83675  0.14862  0.63276  1.0000
  H   H23       1.0  0.12947  0.96689  0.45079  1.0000
  H   H24       1.0  0.87053  0.03312  0.54920  1.0000
  H   H25       1.0  0.11851  0.80379  0.49682  1.0000
  H   H26       1.0  0.88149  0.19622  0.50317  1.0000
  H   H27       1.0  0.27329  0.02712  0.02423  1.0000
  H   H28       1.0  0.72671  0.97288  0.97578  1.0000
  H   H29       1.0  0.05207  0.02323  0.07271  1.0000
  H   H30       1.0  0.94794  0.97676  0.92730  1.0000
  H   H31       1.0  0.21125  0.04470  0.15108  1.0000
  H   H32       1.0  0.78876  0.95530  0.84893  1.0000
  C   C1        1.0  0.47471  0.52398  0.37148  1.0000
  C   C2        1.0  0.52528  0.47602  0.62851  1.0000
  C   C3        1.0  0.65267  0.50472  0.37118  1.0000
  C   C4        1.0  0.34732  0.49528  0.62882  1.0000
  C   C5        1.0  0.39480  0.63603  0.39794  1.0000
  C   C6        1.0  0.60519  0.36397  0.60206  1.0000
  C   C7        1.0  0.67257  0.71211  0.42103  1.0000
  C   C8        1.0  0.32742  0.28789  0.57897  1.0000
  C   C9        1.0  0.75129  0.59928  0.39648  1.0000
  C   C10       1.0  0.24871  0.40072  0.60352  1.0000
  C   C11       1.0  0.46100  0.47682  0.12022  1.0000
  C   C12       1.0  0.53901  0.52319  0.87977  1.0000
  C   C13       1.0  0.31616  0.42006  0.09854  1.0000
  C   C14       1.0  0.68384  0.57994  0.90145  1.0000
  C   C15       1.0  0.89367  0.39901  0.23830  1.0000
  C   C16       1.0  0.10633  0.60099  0.76171  1.0000
  C   C17       1.0  0.61911  0.40948  0.11997  1.0000
  C   C18       1.0  0.38090  0.59052  0.88003  1.0000
  C   C19       1.0  0.49324  0.73062  0.42243  1.0000
  C   C20       1.0  0.50676  0.26939  0.57757  1.0000
  C   C21       1.0  0.32708  0.29460  0.07814  1.0000
  C   C22       1.0  0.67293  0.70539  0.92186  1.0000
  C   C23       1.0  0.63035  0.28398  0.09981  1.0000
  C   C24       1.0  0.36967  0.71602  0.90019  1.0000
  C   C25       1.0  0.48483  0.22627  0.07981  1.0000
  C   C26       1.0  0.51518  0.77373  0.92019  1.0000
  C   C27       1.0  0.18135  0.87176  0.44110  1.0000
  C   C28       1.0  0.81865  0.12824  0.55890  1.0000
  C   C29       1.0  0.17525  0.06521  0.07651  1.0000
  C   C30       1.0  0.82476  0.93479  0.92349  1.0000
  S   S1        1.0  0.13765  0.23196  0.04918  1.0000
  S   S2        1.0  0.86236  0.76804  0.95083  1.0000
  S   S3        1.0  0.40593  0.87549  0.45546  1.0000
  S   S4        1.0  0.59406  0.12451  0.54454  1.0000
  S   S5        1.0  0.74869  0.35793  0.34558  1.0000
  S   S6        1.0  0.25130  0.64207  0.65442  1.0000
  S   S7        1.0  0.80535  0.48853  0.13432  1.0000
  S   S8        1.0  0.19466  0.51147  0.86568  1.0000
  Br  Br1       1.0  0.75652  0.79538  0.66099  1.0000
  Br  Br2       1.0  0.24346  0.20463  0.33901  1.0000
  Br  Br3       1.0  0.50503  0.85776  0.16590  1.0000
  Br  Br4       1.0  0.49497  0.14224  0.83410  1.0000
  Br  Br5       1.0  0.10583  0.71537  0.20037  1.0000
  Br  Br6       1.0  0.89417  0.28463  0.79963  1.0000
  Br  Br7       1.0  0.15599  0.96732  0.71081  1.0000
  Br  Br8       1.0  0.84399  0.03267  0.28919  1.0000
