data_image0
_chemical_formula_structural       Cd2H44C48S4N8O12
_chemical_formula_sum              "Cd2 H44 C48 S4 N8 O12"
_cell_length_a       5.58698
_cell_length_b       14.162
_cell_length_c       15.169
_cell_angle_alpha    90
_cell_angle_beta     90
_cell_angle_gamma    94.4836

_space_group_name_H-M_alt    "P 1"
_space_group_IT_number       1

loop_
  _space_group_symop_operation_xyz
  'x, y, z'

loop_
  _atom_site_type_symbol
  _atom_site_label
  _atom_site_symmetry_multiplicity
  _atom_site_fract_x
  _atom_site_fract_y
  _atom_site_fract_z
  _atom_site_occupancy
  Cd  Cd1       1.0  0.50001  0.50000  0.50000  1.0000
  Cd  Cd2       1.0  0.99999  0.00000  1.00000  1.0000
  H   H1        1.0  0.89748  0.40284  0.63141  1.0000
  H   H2        1.0  0.60252  0.09717  0.13141  1.0000
  H   H3        1.0  0.10255  0.59717  0.36858  1.0000
  H   H4        1.0  0.39745  0.90283  0.86858  1.0000
  H   H5        1.0  0.93527  0.24297  0.70725  1.0000
  H   H6        1.0  0.56473  0.25704  0.20725  1.0000
  H   H7        1.0  0.06476  0.75704  0.29275  1.0000
  H   H8        1.0  0.43524  0.74296  0.79274  1.0000
  H   H9        1.0  0.23321  0.30025  0.53186  1.0000
  H   H10       1.0  0.26678  0.19975  0.03185  1.0000
  H   H11       1.0  0.76682  0.69975  0.46814  1.0000
  H   H12       1.0  0.73319  0.80025  0.96814  1.0000
  H   H13       1.0  0.52615  0.00227  0.62275  1.0000
  H   H14       1.0  0.97386  0.49773  0.12275  1.0000
  H   H15       1.0  0.47386  0.99773  0.37726  1.0000
  H   H16       1.0  0.02613  0.50227  0.87726  1.0000
  H   H17       1.0  0.36331  0.03793  0.71619  1.0000
  H   H18       1.0  0.13670  0.46207  0.21619  1.0000
  H   H19       1.0  0.63668  0.96208  0.28382  1.0000
  H   H20       1.0  0.86330  0.53793  0.78382  1.0000
  H   H21       1.0  0.42881  0.85191  0.55942  1.0000
  H   H22       1.0  0.07120  0.64809  0.05943  1.0000
  H   H23       1.0  0.57119  0.14810  0.44057  1.0000
  H   H24       1.0  0.92878  0.35190  0.94057  1.0000
  H   H25       1.0  0.17472  0.70016  0.55423  1.0000
  H   H26       1.0  0.32530  0.79984  0.05423  1.0000
  H   H27       1.0  0.82531  0.29985  0.44577  1.0000
  H   H28       1.0  0.67467  0.20016  0.94577  1.0000
  H   H29       1.0  0.65336  0.81977  0.71983  1.0000
  H   H30       1.0  0.84667  0.68022  0.21982  1.0000
  H   H31       1.0  0.34666  0.18022  0.28018  1.0000
  H   H32       1.0  0.15333  0.31978  0.78017  1.0000
  H   H33       1.0  0.90738  0.97137  0.72602  1.0000
  H   H34       1.0  0.59265  0.52862  0.22603  1.0000
  H   H35       1.0  0.09263  0.02862  0.27399  1.0000
  H   H36       1.0  0.40735  0.47138  0.77398  1.0000
  H   H37       1.0  0.65781  0.42736  0.35176  1.0000
  H   H38       1.0  0.84218  0.07264  0.85176  1.0000
  H   H39       1.0  0.34220  0.57264  0.64824  1.0000
  H   H40       1.0  0.15780  0.92736  0.14824  1.0000
  H   H41       1.0  0.91663  0.44555  0.39983  1.0000
  H   H42       1.0  0.58336  0.05445  0.89983  1.0000
  H   H43       1.0  0.08338  0.55445  0.60017  1.0000
  H   H44       1.0  0.41662  0.94554  0.10017  1.0000
  C   C1        1.0  0.76036  0.34404  0.62538  1.0000
  C   C2        1.0  0.73964  0.15596  0.12538  1.0000
  C   C3        1.0  0.23967  0.65597  0.37461  1.0000
  C   C4        1.0  0.26033  0.84403  0.87461  1.0000
  C   C5        1.0  0.78282  0.25667  0.66547  1.0000
  C   C6        1.0  0.71719  0.24333  0.16547  1.0000
  C   C7        1.0  0.21720  0.74333  0.33453  1.0000
  C   C8        1.0  0.28279  0.75667  0.83453  1.0000
  C   C9        1.0  0.39380  0.28680  0.56907  1.0000
  C   C10       1.0  0.10621  0.21320  0.06907  1.0000
  C   C11       1.0  0.60622  0.71320  0.43092  1.0000
  C   C12       1.0  0.89378  0.78680  0.93092  1.0000
  C   C13       1.0  0.42640  0.19728  0.60601  1.0000
  C   C14       1.0  0.07360  0.30273  0.10601  1.0000
  C   C15       1.0  0.57362  0.80272  0.39399  1.0000
  C   C16       1.0  0.92638  0.69727  0.89399  1.0000
  C   C17       1.0  0.34574  0.01123  0.64834  1.0000
  C   C18       1.0  0.15427  0.48877  0.14834  1.0000
  C   C19       1.0  0.65426  0.98878  0.35167  1.0000
  C   C20       1.0  0.84572  0.51123  0.85166  1.0000
  C   C21       1.0  0.18631  0.92126  0.64321  1.0000
  C   C22       1.0  0.31371  0.57873  0.14322  1.0000
  C   C23       1.0  0.81370  0.07874  0.35679  1.0000
  C   C24       1.0  0.68628  0.42126  0.85679  1.0000
  C   C25       1.0  0.25804  0.84452  0.59451  1.0000
  C   C26       1.0  0.24197  0.65547  0.09452  1.0000
  C   C27       1.0  0.74196  0.15548  0.40549  1.0000
  C   C28       1.0  0.75802  0.34452  0.90548  1.0000
  C   C29       1.0  0.11585  0.75931  0.59196  1.0000
  C   C30       1.0  0.38417  0.74069  0.09197  1.0000
  C   C31       1.0  0.88417  0.24070  0.40804  1.0000
  C   C32       1.0  0.61581  0.25930  0.90803  1.0000
  C   C33       1.0  0.89816  0.74886  0.63807  1.0000
  C   C34       1.0  0.60186  0.75113  0.13807  1.0000
  C   C35       1.0  0.10186  0.25114  0.36193  1.0000
  C   C36       1.0  0.39812  0.24886  0.86193  1.0000
  C   C37       1.0  0.82469  0.82668  0.68557  1.0000
  C   C38       1.0  0.67535  0.67331  0.18557  1.0000
  C   C39       1.0  0.17533  0.17332  0.31444  1.0000
  C   C40       1.0  0.32464  0.32669  0.81444  1.0000
  C   C41       1.0  0.96618  0.91182  0.68826  1.0000
  C   C42       1.0  0.53384  0.58817  0.18826  1.0000
  C   C43       1.0  0.03384  0.08818  0.31175  1.0000
  C   C44       1.0  0.46615  0.41182  0.81175  1.0000
  C   C45       1.0  0.74104  0.65772  0.63510  1.0000
  C   C46       1.0  0.75897  0.84228  0.13510  1.0000
  C   C47       1.0  0.25897  0.34228  0.36491  1.0000
  C   C48       1.0  0.24102  0.15772  0.86490  1.0000
  S   S1        1.0  0.21565  0.10268  0.58336  1.0000
  S   S2        1.0  0.28436  0.39732  0.08336  1.0000
  S   S3        1.0  0.78436  0.89732  0.41664  1.0000
  S   S4        1.0  0.71563  0.60268  0.91664  1.0000
  N   N1        1.0  0.56292  0.35814  0.57722  1.0000
  N   N2        1.0  0.93708  0.14186  0.07722  1.0000
  N   N3        1.0  0.43711  0.64186  0.42277  1.0000
  N   N4        1.0  0.06289  0.85814  0.92277  1.0000
  N   N5        1.0  0.61922  0.18323  0.65532  1.0000
  N   N6        1.0  0.88079  0.31677  0.15531  1.0000
  N   N7        1.0  0.38081  0.81677  0.34469  1.0000
  N   N8        1.0  0.11919  0.68323  0.84468  1.0000
  O   O1        1.0  0.80441  0.59197  0.58220  1.0000
  O   O2        1.0  0.69559  0.90803  0.08220  1.0000
  O   O3        1.0  0.19559  0.40803  0.41780  1.0000
  O   O4        1.0  0.30440  0.09197  0.91780  1.0000
  O   O5        1.0  0.76573  0.47562  0.38532  1.0000
  O   O6        1.0  0.73426  0.02438  0.88532  1.0000
  O   O7        1.0  0.23428  0.52438  0.61468  1.0000
  O   O8        1.0  0.26572  0.97562  0.11468  1.0000
  O   O9        1.0  0.55379  0.65055  0.68178  1.0000
  O   O10       1.0  0.94623  0.84945  0.18178  1.0000
  O   O11       1.0  0.44623  0.34945  0.31822  1.0000
  O   O12       1.0  0.05376  0.15055  0.81822  1.0000
