data_image0
_chemical_formula_structural       Cd4H28C32S4N12O16
_chemical_formula_sum              "Cd4 H28 C32 S4 N12 O16"
_cell_length_a       7.80559
_cell_length_b       8.21583
_cell_length_c       16.6591
_cell_angle_alpha    90
_cell_angle_beta     90.0001
_cell_angle_gamma    96.3848

_space_group_name_H-M_alt    "P 1"
_space_group_IT_number       1

loop_
  _space_group_symop_operation_xyz
  'x, y, z'

loop_
  _atom_site_type_symbol
  _atom_site_label
  _atom_site_symmetry_multiplicity
  _atom_site_fract_x
  _atom_site_fract_y
  _atom_site_fract_z
  _atom_site_occupancy
  Cd  Cd1       1.0  0.62002  0.05434  0.64201  1.0000
  Cd  Cd2       1.0  0.87998  0.94566  0.14200  1.0000
  Cd  Cd3       1.0  0.37997  0.94566  0.35799  1.0000
  Cd  Cd4       1.0  0.12002  0.05434  0.85799  1.0000
  H   H1        1.0  0.67378  0.67139  0.75631  1.0000
  H   H2        1.0  0.82622  0.32861  0.25631  1.0000
  H   H3        1.0  0.32622  0.32861  0.24369  1.0000
  H   H4        1.0  0.17378  0.67140  0.74369  1.0000
  H   H5        1.0  0.53093  0.64907  0.67414  1.0000
  H   H6        1.0  0.96907  0.35093  0.17414  1.0000
  H   H7        1.0  0.46907  0.35093  0.32586  1.0000
  H   H8        1.0  0.03093  0.64907  0.82586  1.0000
  H   H9        1.0  0.80183  0.45711  0.80093  1.0000
  H   H10       1.0  0.69817  0.54289  0.30093  1.0000
  H   H11       1.0  0.19817  0.54289  0.19907  1.0000
  H   H12       1.0  0.30183  0.45712  0.69907  1.0000
  H   H13       1.0  0.82316  0.28618  0.73998  1.0000
  H   H14       1.0  0.67684  0.71382  0.23997  1.0000
  H   H15       1.0  0.17684  0.71382  0.26002  1.0000
  H   H16       1.0  0.32316  0.28618  0.76002  1.0000
  H   H17       1.0  0.62027  0.79252  0.49950  1.0000
  H   H18       1.0  0.87973  0.20749  0.99950  1.0000
  H   H19       1.0  0.37973  0.20748  0.50050  1.0000
  H   H20       1.0  0.12027  0.79251  0.00049  1.0000
  H   H21       1.0  0.82214  0.62263  0.42917  1.0000
  H   H22       1.0  0.67786  0.37739  0.92918  1.0000
  H   H23       1.0  0.17785  0.37737  0.57083  1.0000
  H   H24       1.0  0.32214  0.62262  0.07082  1.0000
  H   H25       1.0  0.12817  0.63718  0.47783  1.0000
  H   H26       1.0  0.37183  0.36283  0.97783  1.0000
  H   H27       1.0  0.87182  0.36282  0.52217  1.0000
  H   H28       1.0  0.62817  0.63718  0.02218  1.0000
  C   C1        1.0  0.75328  0.79251  0.51869  1.0000
  C   C2        1.0  0.74672  0.20749  0.01869  1.0000
  C   C3        1.0  0.24672  0.20749  0.48131  1.0000
  C   C4        1.0  0.25328  0.79250  0.98131  1.0000
  C   C5        1.0  0.86646  0.69906  0.48007  1.0000
  C   C6        1.0  0.63355  0.30095  0.98007  1.0000
  C   C7        1.0  0.13354  0.30093  0.51992  1.0000
  C   C8        1.0  0.36645  0.69906  0.01993  1.0000
  C   C9        1.0  0.03502  0.70568  0.50799  1.0000
  C   C10       1.0  0.46498  0.29432  0.00800  1.0000
  C   C11       1.0  0.96498  0.29431  0.49201  1.0000
  C   C12       1.0  0.53502  0.70569  0.99201  1.0000
  C   C13       1.0  0.08664  0.80205  0.57494  1.0000
  C   C14       1.0  0.41336  0.19795  0.07494  1.0000
  C   C15       1.0  0.91336  0.19795  0.42506  1.0000
  C   C16       1.0  0.58664  0.80205  0.92506  1.0000
  C   C17       1.0  0.96406  0.89157  0.61073  1.0000
  C   C18       1.0  0.53594  0.10843  0.11073  1.0000
  C   C19       1.0  0.03593  0.10843  0.38927  1.0000
  C   C20       1.0  0.46406  0.89157  0.88927  1.0000
  C   C21       1.0  0.27189  0.80963  0.60359  1.0000
  C   C22       1.0  0.22811  0.19037  0.10359  1.0000
  C   C23       1.0  0.72811  0.19036  0.39642  1.0000
  C   C24       1.0  0.77189  0.80963  0.89642  1.0000
  C   C25       1.0  0.99983  0.99108  0.68626  1.0000
  C   C26       1.0  0.50018  0.00891  0.18626  1.0000
  C   C27       1.0  0.00018  0.00891  0.31374  1.0000
  C   C28       1.0  0.49983  0.99109  0.81374  1.0000
  C   C29       1.0  0.66836  0.45411  0.69654  1.0000
  C   C30       1.0  0.83163  0.54590  0.19654  1.0000
  C   C31       1.0  0.33164  0.54589  0.30346  1.0000
  C   C32       1.0  0.16836  0.45411  0.80346  1.0000
  S   S1        1.0  0.59001  0.34972  0.61160  1.0000
  S   S2        1.0  0.90999  0.65028  0.11159  1.0000
  S   S3        1.0  0.40999  0.65028  0.38840  1.0000
  S   S4        1.0  0.09001  0.34972  0.88840  1.0000
  N   N1        1.0  0.80239  0.88786  0.58160  1.0000
  N   N2        1.0  0.69762  0.11215  0.08159  1.0000
  N   N3        1.0  0.19761  0.11214  0.41840  1.0000
  N   N4        1.0  0.30238  0.88786  0.91840  1.0000
  N   N5        1.0  0.62831  0.60600  0.70702  1.0000
  N   N6        1.0  0.87169  0.39399  0.20702  1.0000
  N   N7        1.0  0.37169  0.39400  0.29298  1.0000
  N   N8        1.0  0.12831  0.60600  0.79298  1.0000
  N   N9        1.0  0.76546  0.38963  0.75127  1.0000
  N   N10       1.0  0.73455  0.61037  0.25126  1.0000
  N   N11       1.0  0.23454  0.61037  0.24873  1.0000
  N   N12       1.0  0.26546  0.38963  0.74873  1.0000
  O   O1        1.0  0.91965  0.11419  0.69743  1.0000
  O   O2        1.0  0.58035  0.88581  0.19743  1.0000
  O   O3        1.0  0.08035  0.88581  0.30257  1.0000
  O   O4        1.0  0.41966  0.11419  0.80257  1.0000
  O   O5        1.0  0.10645  0.93727  0.73485  1.0000
  O   O6        1.0  0.39355  0.06273  0.23485  1.0000
  O   O7        1.0  0.89355  0.06273  0.26515  1.0000
  O   O8        1.0  0.60645  0.93727  0.76515  1.0000
  O   O9        1.0  0.36815  0.93925  0.58425  1.0000
  O   O10       1.0  0.13185  0.06075  0.08424  1.0000
  O   O11       1.0  0.63185  0.06075  0.41576  1.0000
  O   O12       1.0  0.86815  0.93926  0.91576  1.0000
  O   O13       1.0  0.31674  0.68638  0.64000  1.0000
  O   O14       1.0  0.18326  0.31361  0.14000  1.0000
  O   O15       1.0  0.68326  0.31362  0.36000  1.0000
  O   O16       1.0  0.81674  0.68639  0.86001  1.0000
