data_image0
_chemical_formula_structural       Zn4H40C60N32O4
_chemical_formula_sum              "Zn4 H40 C60 N32 O4"
_cell_length_a       9.00033
_cell_length_b       12.4956
_cell_length_c       13.8358
_cell_angle_alpha    107.93
_cell_angle_beta     90
_cell_angle_gamma    90

_space_group_name_H-M_alt    "P 1"
_space_group_IT_number       1

loop_
  _space_group_symop_operation_xyz
  'x, y, z'

loop_
  _atom_site_type_symbol
  _atom_site_label
  _atom_site_symmetry_multiplicity
  _atom_site_fract_x
  _atom_site_fract_y
  _atom_site_fract_z
  _atom_site_occupancy
  Zn  Zn1       1.0  0.56343  0.43636  0.88330  1.0000
  Zn  Zn2       1.0  0.06343  0.56364  0.61670  1.0000
  Zn  Zn3       1.0  0.43657  0.56364  0.11670  1.0000
  Zn  Zn4       1.0  0.93657  0.43636  0.38330  1.0000
  H   H1        1.0  0.75867  0.75386  0.09387  1.0000
  H   H2        1.0  0.25867  0.24613  0.40613  1.0000
  H   H3        1.0  0.24133  0.24614  0.90613  1.0000
  H   H4        1.0  0.74133  0.75386  0.59387  1.0000
  H   H5        1.0  0.76759  0.94380  0.07021  1.0000
  H   H6        1.0  0.26760  0.05620  0.42979  1.0000
  H   H7        1.0  0.23240  0.05620  0.92979  1.0000
  H   H8        1.0  0.73241  0.94380  0.57021  1.0000
  H   H9        1.0  0.61724  0.98236  0.93268  1.0000
  H   H10       1.0  0.11724  0.01764  0.56732  1.0000
  H   H11       1.0  0.38276  0.01764  0.06732  1.0000
  H   H12       1.0  0.88276  0.98236  0.43268  1.0000
  H   H13       1.0  0.45835  0.83049  0.82225  1.0000
  H   H14       1.0  0.95835  0.16950  0.67775  1.0000
  H   H15       1.0  0.54165  0.16951  0.17775  1.0000
  H   H16       1.0  0.04165  0.83049  0.32225  1.0000
  H   H17       1.0  0.35191  0.26742  0.71713  1.0000
  H   H18       1.0  0.85191  0.73258  0.78287  1.0000
  H   H19       1.0  0.64809  0.73259  0.28287  1.0000
  H   H20       1.0  0.14808  0.26741  0.21713  1.0000
  H   H21       1.0  0.33220  0.05275  0.64511  1.0000
  H   H22       1.0  0.83220  0.94725  0.85489  1.0000
  H   H23       1.0  0.66780  0.94725  0.35489  1.0000
  H   H24       1.0  0.16779  0.05274  0.14511  1.0000
  H   H25       1.0  0.52178  0.93945  0.70274  1.0000
  H   H26       1.0  0.02178  0.06055  0.79726  1.0000
  H   H27       1.0  0.47822  0.06055  0.29726  1.0000
  H   H28       1.0  0.97822  0.93945  0.20274  1.0000
  H   H29       1.0  0.02364  0.18730  0.03440  1.0000
  H   H30       1.0  0.52364  0.81270  0.46560  1.0000
  H   H31       1.0  0.97636  0.81270  0.96560  1.0000
  H   H32       1.0  0.47636  0.18730  0.53440  1.0000
  H   H33       1.0  0.02959  0.39851  0.10566  1.0000
  H   H34       1.0  0.52959  0.60149  0.39434  1.0000
  H   H35       1.0  0.97041  0.60149  0.89434  1.0000
  H   H36       1.0  0.47041  0.39851  0.60566  1.0000
  H   H37       1.0  0.82302  0.50562  0.04528  1.0000
  H   H38       1.0  0.32302  0.49438  0.45472  1.0000
  H   H39       1.0  0.17698  0.49438  0.95472  1.0000
  H   H40       1.0  0.67698  0.50562  0.54528  1.0000
  C   C1        1.0  0.60252  0.68470  0.97365  1.0000
  C   C2        1.0  0.10252  0.31530  0.52635  1.0000
  C   C3        1.0  0.39748  0.31531  0.02635  1.0000
  C   C4        1.0  0.89748  0.68469  0.47365  1.0000
  C   C5        1.0  0.69345  0.77223  0.03440  1.0000
  C   C6        1.0  0.19345  0.22777  0.46560  1.0000
  C   C7        1.0  0.30655  0.22777  0.96560  1.0000
  C   C8        1.0  0.80655  0.77223  0.53440  1.0000
  C   C9        1.0  0.69837  0.87770  0.02065  1.0000
  C   C10       1.0  0.19837  0.12230  0.47935  1.0000
  C   C11       1.0  0.30163  0.12230  0.97935  1.0000
  C   C12       1.0  0.80163  0.87770  0.52065  1.0000
  C   C13       1.0  0.61426  0.89999  0.94388  1.0000
  C   C14       1.0  0.11426  0.10001  0.55612  1.0000
  C   C15       1.0  0.38574  0.10001  0.05612  1.0000
  C   C16       1.0  0.88574  0.89999  0.44388  1.0000
  C   C17       1.0  0.52605  0.81515  0.88204  1.0000
  C   C18       1.0  0.02605  0.18485  0.61796  1.0000
  C   C19       1.0  0.47395  0.18485  0.11796  1.0000
  C   C20       1.0  0.97395  0.81515  0.38204  1.0000
  C   C21       1.0  0.51760  0.70792  0.89511  1.0000
  C   C22       1.0  0.01760  0.29208  0.60489  1.0000
  C   C23       1.0  0.48240  0.29208  0.10489  1.0000
  C   C24       1.0  0.98240  0.70792  0.39511  1.0000
  C   C25       1.0  0.41723  0.62598  0.82900  1.0000
  C   C26       1.0  0.91723  0.37402  0.67100  1.0000
  C   C27       1.0  0.58277  0.37402  0.17100  1.0000
  C   C28       1.0  0.08277  0.62598  0.32900  1.0000
  C   C29       1.0  0.42900  0.21055  0.73810  1.0000
  C   C30       1.0  0.92900  0.78945  0.76190  1.0000
  C   C31       1.0  0.57100  0.78945  0.26190  1.0000
  C   C32       1.0  0.07100  0.21055  0.23810  1.0000
  C   C33       1.0  0.41889  0.09394  0.69823  1.0000
  C   C34       1.0  0.91889  0.90606  0.80177  1.0000
  C   C35       1.0  0.58111  0.90606  0.30177  1.0000
  C   C36       1.0  0.08111  0.09394  0.19823  1.0000
  C   C37       1.0  0.52368  0.03121  0.73149  1.0000
  C   C38       1.0  0.02368  0.96879  0.76851  1.0000
  C   C39       1.0  0.47632  0.96879  0.26851  1.0000
  C   C40       1.0  0.97632  0.03121  0.23149  1.0000
  C   C41       1.0  0.62902  0.19083  0.83501  1.0000
  C   C42       1.0  0.12902  0.80917  0.66499  1.0000
  C   C43       1.0  0.37098  0.80917  0.16499  1.0000
  C   C44       1.0  0.87098  0.19083  0.33501  1.0000
  C   C45       1.0  0.74147  0.24681  0.91352  1.0000
  C   C46       1.0  0.24147  0.75319  0.58648  1.0000
  C   C47       1.0  0.25853  0.75319  0.08648  1.0000
  C   C48       1.0  0.75853  0.24681  0.41352  1.0000
  C   C49       1.0  0.94164  0.23877  0.01116  1.0000
  C   C50       1.0  0.44164  0.76123  0.48884  1.0000
  C   C51       1.0  0.05836  0.76123  0.98884  1.0000
  C   C52       1.0  0.55836  0.23877  0.51116  1.0000
  C   C53       1.0  0.94508  0.35589  0.05102  1.0000
  C   C54       1.0  0.44508  0.64411  0.44898  1.0000
  C   C55       1.0  0.05492  0.64411  0.94898  1.0000
  C   C56       1.0  0.55492  0.35589  0.55102  1.0000
  C   C57       1.0  0.83471  0.41433  0.01805  1.0000
  C   C58       1.0  0.33471  0.58567  0.48195  1.0000
  C   C59       1.0  0.16529  0.58567  0.98195  1.0000
  C   C60       1.0  0.66529  0.41433  0.51806  1.0000
  N   N1        1.0  0.41069  0.51415  0.81713  1.0000
  N   N2        1.0  0.91069  0.48585  0.68287  1.0000
  N   N3        1.0  0.58931  0.48585  0.18287  1.0000
  N   N4        1.0  0.08931  0.51415  0.31713  1.0000
  N   N5        1.0  0.30119  0.47102  0.75023  1.0000
  N   N6        1.0  0.80119  0.52898  0.74977  1.0000
  N   N7        1.0  0.69881  0.52898  0.24977  1.0000
  N   N8        1.0  0.19881  0.47102  0.25023  1.0000
  N   N9        1.0  0.24412  0.55520  0.72340  1.0000
  N   N10       1.0  0.74412  0.44480  0.77660  1.0000
  N   N11       1.0  0.75588  0.44480  0.27660  1.0000
  N   N12       1.0  0.25588  0.55520  0.22340  1.0000
  N   N13       1.0  0.31307  0.65238  0.77017  1.0000
  N   N14       1.0  0.81307  0.34762  0.72983  1.0000
  N   N15       1.0  0.68693  0.34762  0.22983  1.0000
  N   N16       1.0  0.18694  0.65238  0.27017  1.0000
  N   N17       1.0  0.73324  0.35933  0.94993  1.0000
  N   N18       1.0  0.23324  0.64067  0.55007  1.0000
  N   N19       1.0  0.26676  0.64067  0.05007  1.0000
  N   N20       1.0  0.76676  0.35933  0.44993  1.0000
  N   N21       1.0  0.53436  0.25890  0.80609  1.0000
  N   N22       1.0  0.03436  0.74110  0.69391  1.0000
  N   N23       1.0  0.46564  0.74110  0.19391  1.0000
  N   N24       1.0  0.96563  0.25890  0.30609  1.0000
  N   N25       1.0  0.62906  0.07863  0.79961  1.0000
  N   N26       1.0  0.12907  0.92137  0.70039  1.0000
  N   N27       1.0  0.37093  0.92137  0.20038  1.0000
  N   N28       1.0  0.87093  0.07863  0.29962  1.0000
  N   N29       1.0  0.84151  0.18328  0.94223  1.0000
  N   N30       1.0  0.34151  0.81672  0.55777  1.0000
  N   N31       1.0  0.15849  0.81672  0.05777  1.0000
  N   N32       1.0  0.65849  0.18328  0.44223  1.0000
  O   O1        1.0  0.59649  0.58753  0.99431  1.0000
  O   O2        1.0  0.09649  0.41247  0.50569  1.0000
  O   O3        1.0  0.40351  0.41247  0.00569  1.0000
  O   O4        1.0  0.90351  0.58753  0.49431  1.0000
