data_image0
_chemical_formula_structural       Zn2H30C38N8O8
_chemical_formula_sum              "Zn2 H30 C38 N8 O8"
_cell_length_a       9.89095
_cell_length_b       9.89089
_cell_length_c       10.9676
_cell_angle_alpha    86.381
_cell_angle_beta     86.3812
_cell_angle_gamma    64.1053

_space_group_name_H-M_alt    "P 1"
_space_group_IT_number       1

loop_
  _space_group_symop_operation_xyz
  'x, y, z'

loop_
  _atom_site_type_symbol
  _atom_site_label
  _atom_site_symmetry_multiplicity
  _atom_site_fract_x
  _atom_site_fract_y
  _atom_site_fract_z
  _atom_site_occupancy
  Zn  Zn1       1.0  0.65658  0.69047  0.98347  1.0000
  Zn  Zn2       1.0  0.30953  0.34342  0.01653  1.0000
  H   H1        1.0  0.89623  0.24621  0.02713  1.0000
  H   H2        1.0  0.75380  0.10378  0.97287  1.0000
  H   H3        1.0  0.54386  0.69983  0.27085  1.0000
  H   H4        1.0  0.30016  0.45614  0.72915  1.0000
  H   H5        1.0  0.75768  0.61705  0.45149  1.0000
  H   H6        1.0  0.38295  0.24233  0.54851  1.0000
  H   H7        1.0  0.97884  0.52044  0.10257  1.0000
  H   H8        1.0  0.47956  0.02116  0.89743  1.0000
  H   H9        1.0  0.05319  0.57147  0.41276  1.0000
  H   H10       1.0  0.42853  0.94681  0.58724  1.0000
  H   H11       1.0  0.13993  0.47875  0.27558  1.0000
  H   H12       1.0  0.52124  0.86007  0.72442  1.0000
  H   H13       1.0  0.97615  0.43989  0.58392  1.0000
  H   H14       1.0  0.56011  0.02386  0.41608  1.0000
  H   H15       1.0  0.15497  0.95791  0.58119  1.0000
  H   H16       1.0  0.04209  0.84502  0.41881  1.0000
  H   H17       1.0  0.25495  0.96385  0.36577  1.0000
  H   H18       1.0  0.03615  0.74504  0.63422  1.0000
  H   H19       1.0  0.21651  0.20581  0.26267  1.0000
  H   H20       1.0  0.79419  0.78349  0.73733  1.0000
  H   H21       1.0  0.00071  0.08732  0.75163  1.0000
  H   H22       1.0  0.91268  0.99929  0.24837  1.0000
  H   H23       1.0  0.10122  0.18843  0.78717  1.0000
  H   H24       1.0  0.81156  0.89878  0.21283  1.0000
  H   H25       1.0  0.70438  0.26296  0.70028  1.0000
  H   H26       1.0  0.73703  0.29562  0.29973  1.0000
  H   H27       1.0  0.51401  0.52118  0.82354  1.0000
  H   H28       1.0  0.47882  0.48599  0.17646  1.0000
  H   H29       1.0  0.96536  0.44144  0.86419  1.0000
  H   H30       1.0  0.55856  0.03464  0.13581  1.0000
  C   C1        1.0  0.35226  0.80575  0.03251  1.0000
  C   C2        1.0  0.19426  0.64775  0.96749  1.0000
  C   C3        1.0  0.19821  0.13525  0.05417  1.0000
  C   C4        1.0  0.86475  0.80180  0.94583  1.0000
  C   C5        1.0  0.95376  0.12546  0.01478  1.0000
  C   C6        1.0  0.87454  0.04625  0.98523  1.0000
  C   C7        1.0  0.10973  0.05078  0.02850  1.0000
  C   C8        1.0  0.94923  0.89028  0.97150  1.0000
  C   C9        1.0  0.18578  0.89464  0.01405  1.0000
  C   C10       1.0  0.10536  0.81422  0.98595  1.0000
  C   C11       1.0  0.66565  0.64917  0.26449  1.0000
  C   C12       1.0  0.35083  0.33435  0.73551  1.0000
  C   C13       1.0  0.76980  0.60828  0.35312  1.0000
  C   C14       1.0  0.39172  0.23020  0.64688  1.0000
  C   C15       1.0  0.88782  0.55640  0.17130  1.0000
  C   C16       1.0  0.44360  0.11218  0.82871  1.0000
  C   C17       1.0  0.05610  0.48867  0.34919  1.0000
  C   C18       1.0  0.51133  0.94390  0.65081  1.0000
  C   C19       1.0  0.08984  0.33952  0.41530  1.0000
  C   C20       1.0  0.66048  0.91015  0.58470  1.0000
  C   C21       1.0  0.03590  0.33528  0.53579  1.0000
  C   C22       1.0  0.66472  0.96410  0.46421  1.0000
  C   C23       1.0  0.05984  0.19846  0.59617  1.0000
  C   C24       1.0  0.80153  0.94016  0.40382  1.0000
  C   C25       1.0  0.13760  0.06466  0.53434  1.0000
  C   C26       1.0  0.93533  0.86239  0.46566  1.0000
  C   C27       1.0  0.19385  0.06767  0.41460  1.0000
  C   C28       1.0  0.93233  0.80614  0.58540  1.0000
  C   C29       1.0  0.17097  0.20478  0.35556  1.0000
  C   C30       1.0  0.79521  0.82903  0.64444  1.0000
  C   C31       1.0  0.01320  0.19118  0.72916  1.0000
  C   C32       1.0  0.80881  0.98680  0.27084  1.0000
  C   C33       1.0  0.72847  0.33974  0.75127  1.0000
  C   C34       1.0  0.66026  0.27153  0.24873  1.0000
  C   C35       1.0  0.63597  0.46725  0.81170  1.0000
  C   C36       1.0  0.53275  0.36404  0.18830  1.0000
  C   C37       1.0  0.86778  0.43105  0.83521  1.0000
  C   C38       1.0  0.56895  0.13222  0.16479  1.0000
  N   N1        1.0  0.74090  0.61593  0.15138  1.0000
  N   N2        1.0  0.38407  0.25910  0.84863  1.0000
  N   N3        1.0  0.90942  0.55080  0.29256  1.0000
  N   N4        1.0  0.44920  0.09058  0.70744  1.0000
  N   N5        1.0  0.87445  0.31842  0.76747  1.0000
  N   N6        1.0  0.68158  0.12555  0.23253  1.0000
  N   N7        1.0  0.72485  0.52309  0.86350  1.0000
  N   N8        1.0  0.47690  0.27516  0.13649  1.0000
  O   O1        1.0  0.39136  0.72657  0.12872  1.0000
  O   O2        1.0  0.27343  0.60865  0.87128  1.0000
  O   O3        1.0  0.44275  0.80902  0.94292  1.0000
  O   O4        1.0  0.19098  0.55726  0.05708  1.0000
  O   O5        1.0  0.32713  0.06491  0.09545  1.0000
  O   O6        1.0  0.93509  0.67288  0.90455  1.0000
  O   O7        1.0  0.13760  0.27893  0.02876  1.0000
  O   O8        1.0  0.72107  0.86240  0.97124  1.0000
