data_image0
_chemical_formula_structural       U2H36C64N8O12
_chemical_formula_sum              "U2 H36 C64 N8 O12"
_cell_length_a       9.03066
_cell_length_b       9.49872
_cell_length_c       17.3586
_cell_angle_alpha    104.551
_cell_angle_beta     91.5901
_cell_angle_gamma    107.801

_space_group_name_H-M_alt    "P 1"
_space_group_IT_number       1

loop_
  _space_group_symop_operation_xyz
  'x, y, z'

loop_
  _atom_site_type_symbol
  _atom_site_label
  _atom_site_symmetry_multiplicity
  _atom_site_fract_x
  _atom_site_fract_y
  _atom_site_fract_z
  _atom_site_occupancy
  U   U1        1.0  0.50582  0.15908  0.25950  1.0000
  U   U2        1.0  0.49418  0.84092  0.74050  1.0000
  H   H1        1.0  0.85744  0.53106  0.56218  1.0000
  H   H2        1.0  0.14255  0.46894  0.43782  1.0000
  H   H3        1.0  0.22591  0.52670  0.14424  1.0000
  H   H4        1.0  0.77409  0.47329  0.85575  1.0000
  H   H5        1.0  0.02147  0.10758  0.13878  1.0000
  H   H6        1.0  0.97853  0.89242  0.86122  1.0000
  H   H7        1.0  0.23078  0.68201  0.07318  1.0000
  H   H8        1.0  0.76922  0.31799  0.92682  1.0000
  H   H9        1.0  0.29472  0.75831  0.26544  1.0000
  H   H10       1.0  0.70527  0.24168  0.73455  1.0000
  H   H11       1.0  0.75989  0.75753  0.57773  1.0000
  H   H12       1.0  0.24011  0.24247  0.42227  1.0000
  H   H13       1.0  0.59741  0.88212  0.52000  1.0000
  H   H14       1.0  0.40259  0.11788  0.47999  1.0000
  H   H15       1.0  0.76319  0.12731  0.10183  1.0000
  H   H16       1.0  0.23681  0.87269  0.89817  1.0000
  H   H17       1.0  0.91305  0.41425  0.21252  1.0000
  H   H18       1.0  0.08695  0.58576  0.78749  1.0000
  H   H19       1.0  0.88184  0.14166  0.44340  1.0000
  H   H20       1.0  0.11816  0.85834  0.55660  1.0000
  H   H21       1.0  0.42617  0.88352  0.40430  1.0000
  H   H22       1.0  0.57382  0.11648  0.59569  1.0000
  H   H23       1.0  0.76538  0.31370  0.43772  1.0000
  H   H24       1.0  0.23462  0.68630  0.56228  1.0000
  H   H25       1.0  0.03398  0.57514  0.35018  1.0000
  H   H26       1.0  0.96602  0.42486  0.64982  1.0000
  H   H27       1.0  0.30662  0.30386  0.15137  1.0000
  H   H28       1.0  0.69338  0.69614  0.84862  1.0000
  H   H29       1.0  0.59614  0.64570  0.97489  1.0000
  H   H30       1.0  0.40386  0.35430  0.02511  1.0000
  H   H31       1.0  0.54847  0.89748  0.02314  1.0000
  H   H32       1.0  0.45153  0.10252  0.97686  1.0000
  H   H33       1.0  0.74522  0.50269  0.13247  1.0000
  H   H34       1.0  0.25477  0.49731  0.86753  1.0000
  H   H35       1.0  0.70193  0.75244  0.18647  1.0000
  H   H36       1.0  0.29807  0.24757  0.81354  1.0000
  C   C1        1.0  0.95953  0.86628  0.07638  1.0000
  C   C2        1.0  0.04047  0.13372  0.92362  1.0000
  C   C3        1.0  0.77625  0.53558  0.51597  1.0000
  C   C4        1.0  0.22375  0.46442  0.48403  1.0000
  C   C5        1.0  0.29185  0.53234  0.19900  1.0000
  C   C6        1.0  0.70815  0.46766  0.80099  1.0000
  C   C7        1.0  0.92943  0.00782  0.10201  1.0000
  C   C8        1.0  0.07057  0.99218  0.89799  1.0000
  C   C9        1.0  0.12000  0.70026  0.06197  1.0000
  C   C10       1.0  0.88001  0.29974  0.93803  1.0000
  C   C11       1.0  0.99213  0.57742  0.01548  1.0000
  C   C12       1.0  0.00787  0.42257  0.98452  1.0000
  C   C13       1.0  0.33014  0.65841  0.26514  1.0000
  C   C14       1.0  0.66986  0.34158  0.73486  1.0000
  C   C15       1.0  0.72334  0.65987  0.52445  1.0000
  C   C16       1.0  0.27665  0.34013  0.47555  1.0000
  C   C17       1.0  0.10400  0.84260  0.09417  1.0000
  C   C18       1.0  0.89600  0.15740  0.90583  1.0000
  C   C19       1.0  0.42065  0.65909  0.33288  1.0000
  C   C20       1.0  0.57935  0.34091  0.66712  1.0000
  C   C21       1.0  0.56186  0.78642  0.46590  1.0000
  C   C22       1.0  0.43814  0.21357  0.53410  1.0000
  C   C23       1.0  0.78531  0.01827  0.08133  1.0000
  C   C24       1.0  0.21469  0.98173  0.91867  1.0000
  C   C25       1.0  0.83678  0.73432  0.02761  1.0000
  C   C26       1.0  0.16322  0.26567  0.97239  1.0000
  C   C27       1.0  0.89550  0.52458  0.23725  1.0000
  C   C28       1.0  0.10450  0.47543  0.76275  1.0000
  C   C29       1.0  0.97217  0.96244  0.45696  1.0000
  C   C30       1.0  0.02784  0.03757  0.54305  1.0000
  C   C31       1.0  0.89374  0.03121  0.41341  1.0000
  C   C32       1.0  0.10627  0.96879  0.58659  1.0000
  C   C33       1.0  0.46702  0.78628  0.40323  1.0000
  C   C34       1.0  0.53297  0.21372  0.59677  1.0000
  C   C35       1.0  0.72433  0.41236  0.44633  1.0000
  C   C36       1.0  0.27566  0.58764  0.55367  1.0000
  C   C37       1.0  0.93662  0.75426  0.34684  1.0000
  C   C38       1.0  0.06338  0.24574  0.65316  1.0000
  C   C39       1.0  0.96232  0.61242  0.31321  1.0000
  C   C40       1.0  0.03768  0.38758  0.68679  1.0000
  C   C41       1.0  0.33905  0.40609  0.20197  1.0000
  C   C42       1.0  0.66095  0.59390  0.79803  1.0000
  C   C43       1.0  0.61933  0.66045  0.46241  1.0000
  C   C44       1.0  0.38066  0.33955  0.53759  1.0000
  C   C45       1.0  0.46883  0.52859  0.32935  1.0000
  C   C46       1.0  0.53117  0.47141  0.67064  1.0000
  C   C47       1.0  0.24123  0.95968  0.14869  1.0000
  C   C48       1.0  0.75878  0.04032  0.85131  1.0000
  C   C49       1.0  0.68845  0.74851  0.00947  1.0000
  C   C50       1.0  0.31156  0.25149  0.99053  1.0000
  C   C51       1.0  0.66319  0.88776  0.03594  1.0000
  C   C52       1.0  0.33681  0.11224  0.96406  1.0000
  C   C53       1.0  0.80039  0.57521  0.19173  1.0000
  C   C54       1.0  0.19961  0.42479  0.80827  1.0000
  C   C55       1.0  0.73100  0.02610  0.29727  1.0000
  C   C56       1.0  0.26900  0.97390  0.70274  1.0000
  C   C57       1.0  0.84361  0.80810  0.29946  1.0000
  C   C58       1.0  0.15639  0.19190  0.70054  1.0000
  C   C59       1.0  0.82773  0.95474  0.33571  1.0000
  C   C60       1.0  0.17227  0.04527  0.66429  1.0000
  C   C61       1.0  0.77572  0.71431  0.22161  1.0000
  C   C62       1.0  0.22428  0.28569  0.77839  1.0000
  C   C63       1.0  0.57290  0.53066  0.39406  1.0000
  C   C64       1.0  0.42710  0.46934  0.60593  1.0000
  N   N1        1.0  0.99724  0.83056  0.42411  1.0000
  N   N2        1.0  0.00276  0.16944  0.57589  1.0000
  N   N3        1.0  0.85452  0.59390  0.99897  1.0000
  N   N4        1.0  0.14548  0.40610  0.00102  1.0000
  N   N5        1.0  0.42290  0.40198  0.26541  1.0000
  N   N6        1.0  0.57710  0.59802  0.73458  1.0000
  N   N7        1.0  0.62587  0.40864  0.38649  1.0000
  N   N8        1.0  0.37413  0.59136  0.61350  1.0000
  O   O1        1.0  0.61206  0.94418  0.24680  1.0000
  O   O2        1.0  0.38794  0.05581  0.75321  1.0000
  O   O3        1.0  0.36686  0.92584  0.15566  1.0000
  O   O4        1.0  0.63315  0.07416  0.84434  1.0000
  O   O5        1.0  0.76036  0.17250  0.32003  1.0000
  O   O6        1.0  0.23963  0.82750  0.67997  1.0000
  O   O7        1.0  0.23700  0.08963  0.19086  1.0000
  O   O8        1.0  0.76300  0.91037  0.80914  1.0000
  O   O9        1.0  0.60437  0.22715  0.18024  1.0000
  O   O10       1.0  0.39563  0.77285  0.81976  1.0000
  O   O11       1.0  0.40225  0.09041  0.33797  1.0000
  O   O12       1.0  0.59774  0.90960  0.66203  1.0000
