data_image0
_chemical_formula_structural       U4H20C24N4O16F8
_chemical_formula_sum              "U4 H20 C24 N4 O16 F8"
_cell_length_a       7.35318
_cell_length_b       8.71758
_cell_length_c       13.04
_cell_angle_alpha    89.9997
_cell_angle_beta     90
_cell_angle_gamma    89.9997

_space_group_name_H-M_alt    "P 1"
_space_group_IT_number       1

loop_
  _space_group_symop_operation_xyz
  'x, y, z'

loop_
  _atom_site_type_symbol
  _atom_site_label
  _atom_site_symmetry_multiplicity
  _atom_site_fract_x
  _atom_site_fract_y
  _atom_site_fract_z
  _atom_site_occupancy
  U   U1        1.0  0.25000  0.92814  0.48884  1.0000
  U   U2        1.0  0.25000  0.57186  0.98885  1.0000
  U   U3        1.0  0.75000  0.07186  0.51115  1.0000
  U   U4        1.0  0.75000  0.42814  0.01117  1.0000
  H   H1        1.0  0.25000  0.16370  0.13486  1.0000
  H   H2        1.0  0.25001  0.33630  0.63486  1.0000
  H   H3        1.0  0.75000  0.83630  0.86514  1.0000
  H   H4        1.0  0.75000  0.66370  0.36514  1.0000
  H   H5        1.0  0.95486  0.39994  0.35964  1.0000
  H   H6        1.0  0.54514  0.10006  0.85964  1.0000
  H   H7        1.0  0.45485  0.60007  0.64036  1.0000
  H   H8        1.0  0.04514  0.89994  0.14036  1.0000
  H   H9        1.0  0.04513  0.60006  0.64036  1.0000
  H   H10       1.0  0.45487  0.89994  0.14036  1.0000
  H   H11       1.0  0.54514  0.39994  0.35964  1.0000
  H   H12       1.0  0.95487  0.10006  0.85964  1.0000
  H   H13       1.0  0.96745  0.22950  0.20489  1.0000
  H   H14       1.0  0.53255  0.27050  0.70489  1.0000
  H   H15       1.0  0.46745  0.77051  0.79511  1.0000
  H   H16       1.0  0.03254  0.72949  0.29512  1.0000
  H   H17       1.0  0.03254  0.77050  0.79511  1.0000
  H   H18       1.0  0.46746  0.72950  0.29511  1.0000
  H   H19       1.0  0.53254  0.22950  0.20488  1.0000
  H   H20       1.0  0.96746  0.27050  0.70489  1.0000
  C   C1        1.0  0.25000  0.52985  0.45722  1.0000
  C   C2        1.0  0.25000  0.97015  0.95723  1.0000
  C   C3        1.0  0.74999  0.47015  0.54278  1.0000
  C   C4        1.0  0.75000  0.02985  0.04278  1.0000
  C   C5        1.0  0.25000  0.41689  0.36966  1.0000
  C   C6        1.0  0.25001  0.08311  0.86966  1.0000
  C   C7        1.0  0.74999  0.58311  0.63034  1.0000
  C   C8        1.0  0.75000  0.91689  0.13034  1.0000
  C   C9        1.0  0.08553  0.36637  0.32744  1.0000
  C   C10       1.0  0.41448  0.13362  0.82745  1.0000
  C   C11       1.0  0.58552  0.63363  0.67255  1.0000
  C   C12       1.0  0.91448  0.86637  0.17255  1.0000
  C   C13       1.0  0.91447  0.63363  0.67255  1.0000
  C   C14       1.0  0.58553  0.86637  0.17255  1.0000
  C   C15       1.0  0.41447  0.36637  0.32744  1.0000
  C   C16       1.0  0.08553  0.13363  0.82745  1.0000
  C   C17       1.0  0.08956  0.27212  0.24226  1.0000
  C   C18       1.0  0.41044  0.22788  0.74226  1.0000
  C   C19       1.0  0.58955  0.72789  0.75774  1.0000
  C   C20       1.0  0.91044  0.77211  0.25774  1.0000
  C   C21       1.0  0.91043  0.72788  0.75774  1.0000
  C   C22       1.0  0.58956  0.77211  0.25774  1.0000
  C   C23       1.0  0.41044  0.27212  0.24225  1.0000
  C   C24       1.0  0.08957  0.22788  0.74226  1.0000
  N   N1        1.0  0.25000  0.23071  0.20103  1.0000
  N   N2        1.0  0.25001  0.26928  0.70104  1.0000
  N   N3        1.0  0.75000  0.76929  0.79896  1.0000
  N   N4        1.0  0.75000  0.73071  0.29896  1.0000
  O   O1        1.0  0.25000  0.87712  0.62324  1.0000
  O   O2        1.0  0.25000  0.62288  0.12324  1.0000
  O   O3        1.0  0.75000  0.12288  0.37676  1.0000
  O   O4        1.0  0.75000  0.37712  0.87675  1.0000
  O   O5        1.0  0.25000  0.97891  0.35449  1.0000
  O   O6        1.0  0.25000  0.52111  0.85447  1.0000
  O   O7        1.0  0.75000  0.02109  0.64553  1.0000
  O   O8        1.0  0.75000  0.47891  0.14551  1.0000
  O   O9        1.0  0.25000  0.67078  0.42768  1.0000
  O   O10       1.0  0.25000  0.82921  0.92768  1.0000
  O   O11       1.0  0.75000  0.32921  0.57232  1.0000
  O   O12       1.0  0.75000  0.17078  0.07232  1.0000
  O   O13       1.0  0.25000  0.48505  0.54813  1.0000
  O   O14       1.0  0.25000  0.01494  0.04813  1.0000
  O   O15       1.0  0.74999  0.51494  0.45188  1.0000
  O   O16       1.0  0.75001  0.98506  0.95187  1.0000
  F   F1        1.0  0.44354  0.13577  0.52109  1.0000
  F   F2        1.0  0.05646  0.36423  0.02109  1.0000
  F   F3        1.0  0.94354  0.86423  0.47891  1.0000
  F   F4        1.0  0.55646  0.63577  0.97891  1.0000
  F   F5        1.0  0.55646  0.86423  0.47891  1.0000
  F   F6        1.0  0.94354  0.63577  0.97891  1.0000
  F   F7        1.0  0.05646  0.13577  0.52109  1.0000
  F   F8        1.0  0.44354  0.36423  0.02109  1.0000
