data_image0
_chemical_formula_structural       Cd6H28C36N16O24
_chemical_formula_sum              "Cd6 H28 C36 N16 O24"
_cell_length_a       6.90331
_cell_length_b       11.0689
_cell_length_c       17.7579
_cell_angle_alpha    82.9763
_cell_angle_beta     78.7452
_cell_angle_gamma    71.827

_space_group_name_H-M_alt    "P 1"
_space_group_IT_number       1

loop_
  _space_group_symop_operation_xyz
  'x, y, z'

loop_
  _atom_site_type_symbol
  _atom_site_label
  _atom_site_symmetry_multiplicity
  _atom_site_fract_x
  _atom_site_fract_y
  _atom_site_fract_z
  _atom_site_occupancy
  Cd  Cd1       1.0  0.66780  0.99794  0.09489  1.0000
  Cd  Cd2       1.0  0.76017  0.50210  0.40497  1.0000
  Cd  Cd3       1.0  0.33220  0.00206  0.90511  1.0000
  Cd  Cd4       1.0  0.23983  0.49790  0.59503  1.0000
  Cd  Cd5       1.0  0.94769  0.75015  0.24983  1.0000
  Cd  Cd6       1.0  0.05231  0.24985  0.75017  1.0000
  H   H1        1.0  0.34778  0.40599  0.04924  1.0000
  H   H2        1.0  0.80307  0.09351  0.45047  1.0000
  H   H3        1.0  0.65222  0.59401  0.95076  1.0000
  H   H4        1.0  0.19693  0.90649  0.54953  1.0000
  H   H5        1.0  0.94870  0.14776  0.09593  1.0000
  H   H6        1.0  0.19316  0.35277  0.40409  1.0000
  H   H7        1.0  0.05130  0.85224  0.90407  1.0000
  H   H8        1.0  0.80684  0.64723  0.59591  1.0000
  H   H9        1.0  0.77098  0.16499  0.16924  1.0000
  H   H10       1.0  0.10692  0.33468  0.33088  1.0000
  H   H11       1.0  0.22902  0.83501  0.83076  1.0000
  H   H12       1.0  0.89307  0.66532  0.66912  1.0000
  H   H13       1.0  0.43775  0.26655  0.82584  1.0000
  H   H14       1.0  0.53146  0.23302  0.67396  1.0000
  H   H15       1.0  0.56225  0.73345  0.17416  1.0000
  H   H16       1.0  0.46854  0.76698  0.32604  1.0000
  H   H17       1.0  0.10250  0.65879  0.86235  1.0000
  H   H18       1.0  0.62331  0.84087  0.63753  1.0000
  H   H19       1.0  0.89750  0.34122  0.13765  1.0000
  H   H20       1.0  0.37670  0.15913  0.36247  1.0000
  H   H21       1.0  0.22775  0.50391  0.28398  1.0000
  H   H22       1.0  0.01562  0.99630  0.21558  1.0000
  H   H23       1.0  0.77224  0.49609  0.71602  1.0000
  H   H24       1.0  0.98438  0.00370  0.78442  1.0000
  H   H25       1.0  0.26053  0.54512  0.19371  1.0000
  H   H26       1.0  0.99882  0.95524  0.30586  1.0000
  H   H27       1.0  0.73946  0.45488  0.80629  1.0000
  H   H28       1.0  0.00118  0.04476  0.69414  1.0000
  C   C1        1.0  0.26997  0.46648  0.83606  1.0000
  C   C2        1.0  0.57306  0.03316  0.66379  1.0000
  C   C3        1.0  0.73003  0.53352  0.16394  1.0000
  C   C4        1.0  0.42693  0.96684  0.33620  1.0000
  C   C5        1.0  0.21721  0.54572  0.96209  1.0000
  C   C6        1.0  0.72491  0.95394  0.53775  1.0000
  C   C7        1.0  0.78278  0.45429  0.03791  1.0000
  C   C8        1.0  0.27509  0.04606  0.46225  1.0000
  C   C9        1.0  0.23942  0.49237  0.75418  1.0000
  C   C10       1.0  0.48651  0.00728  0.74576  1.0000
  C   C11       1.0  0.76058  0.50763  0.24582  1.0000
  C   C12       1.0  0.51349  0.99272  0.25424  1.0000
  C   C13       1.0  0.12644  0.64750  0.01462  1.0000
  C   C14       1.0  0.78822  0.85227  0.48517  1.0000
  C   C15       1.0  0.87357  0.35250  0.98538  1.0000
  C   C16       1.0  0.21178  0.14773  0.51483  1.0000
  C   C17       1.0  0.32593  0.42421  0.98942  1.0000
  C   C18       1.0  0.73999  0.07536  0.51036  1.0000
  C   C19       1.0  0.67407  0.57580  0.01058  1.0000
  C   C20       1.0  0.26002  0.92465  0.48964  1.0000
  C   C21       1.0  0.40411  0.32368  0.94072  1.0000
  C   C22       1.0  0.66953  0.17592  0.55902  1.0000
  C   C23       1.0  0.59589  0.67632  0.05929  1.0000
  C   C24       1.0  0.33047  0.82408  0.44098  1.0000
  C   C25       1.0  0.51420  0.19376  0.97262  1.0000
  C   C26       1.0  0.68116  0.30590  0.52697  1.0000
  C   C27       1.0  0.48580  0.80623  0.02738  1.0000
  C   C28       1.0  0.31884  0.69410  0.47302  1.0000
  C   C29       1.0  0.37599  0.34465  0.86383  1.0000
  C   C30       1.0  0.58549  0.15494  0.63595  1.0000
  C   C31       1.0  0.62401  0.65536  0.13617  1.0000
  C   C32       1.0  0.41453  0.84505  0.36405  1.0000
  C   C33       1.0  0.19046  0.56630  0.88496  1.0000
  C   C34       1.0  0.64164  0.93333  0.61491  1.0000
  C   C35       1.0  0.80954  0.43370  0.11504  1.0000
  C   C36       1.0  0.35836  0.06667  0.38509  1.0000
  N   N1        1.0  0.01220  0.76709  0.99571  1.0000
  N   N2        1.0  0.77490  0.73260  0.50401  1.0000
  N   N3        1.0  0.98781  0.23291  0.00429  1.0000
  N   N4        1.0  0.22510  0.26740  0.49599  1.0000
  N   N5        1.0  0.14020  0.63329  0.09011  1.0000
  N   N6        1.0  0.86290  0.86673  0.40962  1.0000
  N   N7        1.0  0.85980  0.36670  0.90989  1.0000
  N   N8        1.0  0.13710  0.13327  0.59038  1.0000
  N   N9        1.0  0.95503  0.82618  0.06107  1.0000
  N   N10       1.0  0.84200  0.67374  0.43856  1.0000
  N   N11       1.0  0.04497  0.17382  0.93893  1.0000
  N   N12       1.0  0.15801  0.32626  0.56144  1.0000
  N   N13       1.0  0.03173  0.74569  0.11729  1.0000
  N   N14       1.0  0.89404  0.75444  0.38235  1.0000
  N   N15       1.0  0.96827  0.25431  0.88271  1.0000
  N   N16       1.0  0.10595  0.24556  0.61764  1.0000
  O   O1        1.0  0.55924  0.09659  0.93394  1.0000
  O   O2        1.0  0.59038  0.40308  0.56567  1.0000
  O   O3        1.0  0.44076  0.90340  0.06606  1.0000
  O   O4        1.0  0.40963  0.59692  0.43433  1.0000
  O   O5        1.0  0.89181  0.10209  0.14351  1.0000
  O   O6        1.0  0.13836  0.39801  0.35644  1.0000
  O   O7        1.0  0.10819  0.89791  0.85649  1.0000
  O   O8        1.0  0.86164  0.60199  0.64356  1.0000
  O   O9        1.0  0.24509  0.57409  0.24522  1.0000
  O   O10       1.0  0.06430  0.92619  0.25439  1.0000
  O   O11       1.0  0.75491  0.42591  0.75478  1.0000
  O   O12       1.0  0.93570  0.07381  0.74561  1.0000
  O   O13       1.0  0.24363  0.39632  0.71750  1.0000
  O   O14       1.0  0.35783  0.10331  0.78248  1.0000
  O   O15       1.0  0.75637  0.60368  0.28251  1.0000
  O   O16       1.0  0.64217  0.89669  0.21752  1.0000
  O   O17       1.0  0.55845  0.18924  0.03985  1.0000
  O   O18       1.0  0.78749  0.31047  0.45957  1.0000
  O   O19       1.0  0.44154  0.81076  0.96014  1.0000
  O   O20       1.0  0.21251  0.68954  0.54043  1.0000
  O   O21       1.0  0.21319  0.60243  0.72191  1.0000
  O   O22       1.0  0.53793  0.89720  0.77805  1.0000
  O   O23       1.0  0.78681  0.39757  0.27809  1.0000
  O   O24       1.0  0.46207  0.10280  0.22195  1.0000
