data_image0
_chemical_formula_structural       Cd6H44C36N16O32
_chemical_formula_sum              "Cd6 H44 C36 N16 O32"
_cell_length_a       11.3838
_cell_length_b       11.2791
_cell_length_c       12.845
_cell_angle_alpha    106.8
_cell_angle_beta     106.641
_cell_angle_gamma    102.173

_space_group_name_H-M_alt    "P 1"
_space_group_IT_number       1

loop_
  _space_group_symop_operation_xyz
  'x, y, z'

loop_
  _atom_site_type_symbol
  _atom_site_label
  _atom_site_symmetry_multiplicity
  _atom_site_fract_x
  _atom_site_fract_y
  _atom_site_fract_z
  _atom_site_occupancy
  Cd  Cd1       1.0  0.32748  0.27429  0.94580  1.0000
  Cd  Cd2       1.0  0.72531  0.67299  0.55386  1.0000
  Cd  Cd3       1.0  0.67252  0.72571  0.05421  1.0000
  Cd  Cd4       1.0  0.27468  0.32700  0.44614  1.0000
  Cd  Cd5       1.0  0.75365  0.24659  0.75065  1.0000
  Cd  Cd6       1.0  0.24634  0.75341  0.24934  1.0000
  H   H1        1.0  0.48102  0.27918  0.16199  1.0000
  H   H2        1.0  0.72130  0.51778  0.33754  1.0000
  H   H3        1.0  0.51899  0.72083  0.83802  1.0000
  H   H4        1.0  0.27871  0.48222  0.66245  1.0000
  H   H5        1.0  0.56946  0.06408  0.38336  1.0000
  H   H6        1.0  0.93678  0.43123  0.11734  1.0000
  H   H7        1.0  0.43054  0.93593  0.61665  1.0000
  H   H8        1.0  0.06322  0.56876  0.88266  1.0000
  H   H9        1.0  0.72006  0.03396  0.10877  1.0000
  H   H10       1.0  0.96722  0.27965  0.39189  1.0000
  H   H11       1.0  0.27994  0.96604  0.89123  1.0000
  H   H12       1.0  0.03278  0.72034  0.60810  1.0000
  H   H13       1.0  0.37149  0.49659  0.14294  1.0000
  H   H14       1.0  0.50468  0.62997  0.35775  1.0000
  H   H15       1.0  0.62852  0.50342  0.85706  1.0000
  H   H16       1.0  0.49532  0.37004  0.64225  1.0000
  H   H17       1.0  0.51626  0.50451  0.14636  1.0000
  H   H18       1.0  0.49597  0.48374  0.35362  1.0000
  H   H19       1.0  0.48374  0.49549  0.85364  1.0000
  H   H20       1.0  0.50403  0.51626  0.64638  1.0000
  H   H21       1.0  0.15473  0.20439  0.06299  1.0000
  H   H22       1.0  0.79534  0.84619  0.43718  1.0000
  H   H23       1.0  0.84527  0.79561  0.93701  1.0000
  H   H24       1.0  0.20466  0.15381  0.56282  1.0000
  H   H25       1.0  0.12494  0.09066  0.94282  1.0000
  H   H26       1.0  0.90815  0.87660  0.55719  1.0000
  H   H27       1.0  0.87506  0.90934  0.05717  1.0000
  H   H28       1.0  0.09184  0.12340  0.44282  1.0000
  H   H29       1.0  0.49789  0.19113  0.54697  1.0000
  H   H30       1.0  0.80735  0.50314  0.95281  1.0000
  H   H31       1.0  0.50210  0.80888  0.45303  1.0000
  H   H32       1.0  0.19265  0.49686  0.04719  1.0000
  H   H33       1.0  0.45446  0.16968  0.64743  1.0000
  H   H34       1.0  0.82893  0.54689  0.85241  1.0000
  H   H35       1.0  0.54553  0.83032  0.35257  1.0000
  H   H36       1.0  0.17107  0.45311  0.14759  1.0000
  H   H37       1.0  0.74229  0.04245  0.53756  1.0000
  H   H38       1.0  0.95875  0.25957  0.96402  1.0000
  H   H39       1.0  0.25770  0.95755  0.46243  1.0000
  H   H40       1.0  0.04125  0.74043  0.03598  1.0000
  H   H41       1.0  0.69568  0.97471  0.61709  1.0000
  H   H42       1.0  0.02450  0.30566  0.88319  1.0000
  H   H43       1.0  0.30431  0.02529  0.38291  1.0000
  H   H44       1.0  0.97550  0.69434  0.11681  1.0000
  C   C1        1.0  0.60369  0.18693  0.01817  1.0000
  C   C2        1.0  0.81359  0.39532  0.48173  1.0000
  C   C3        1.0  0.39632  0.81307  0.98183  1.0000
  C   C4        1.0  0.18641  0.60468  0.51826  1.0000
  C   C5        1.0  0.59848  0.15663  0.12043  1.0000
  C   C6        1.0  0.84420  0.40083  0.37972  1.0000
  C   C7        1.0  0.40152  0.84338  0.87958  1.0000
  C   C8        1.0  0.15580  0.59916  0.62028  1.0000
  C   C9        1.0  0.52764  0.20988  0.18354  1.0000
  C   C10       1.0  0.79077  0.47163  0.31639  1.0000
  C   C11       1.0  0.47237  0.79013  0.81647  1.0000
  C   C12       1.0  0.20923  0.52836  0.68361  1.0000
  C   C13       1.0  0.51654  0.17587  0.27742  1.0000
  C   C14       1.0  0.82490  0.48334  0.22279  1.0000
  C   C15       1.0  0.48346  0.82415  0.72259  1.0000
  C   C16       1.0  0.17511  0.51665  0.77721  1.0000
  C   C17       1.0  0.57896  0.09116  0.31078  1.0000
  C   C18       1.0  0.90982  0.42138  0.18982  1.0000
  C   C19       1.0  0.42105  0.90885  0.68922  1.0000
  C   C20       1.0  0.09018  0.57861  0.81017  1.0000
  C   C21       1.0  0.65472  0.04206  0.25215  1.0000
  C   C22       1.0  0.95909  0.34545  0.24855  1.0000
  C   C23       1.0  0.34528  0.95795  0.74786  1.0000
  C   C24       1.0  0.04091  0.65454  0.75144  1.0000
  C   C25       1.0  0.66333  0.07414  0.15642  1.0000
  C   C26       1.0  0.92695  0.33642  0.34411  1.0000
  C   C27       1.0  0.33667  0.92587  0.84359  1.0000
  C   C28       1.0  0.07305  0.66357  0.65588  1.0000
  C   C29       1.0  0.43758  0.22930  0.34124  1.0000
  C   C30       1.0  0.77104  0.56223  0.15875  1.0000
  C   C31       1.0  0.56242  0.77070  0.65876  1.0000
  C   C32       1.0  0.22896  0.43776  0.84125  1.0000
  C   C33       1.0  0.72228  0.95163  0.28958  1.0000
  C   C34       1.0  0.04927  0.27776  0.21120  1.0000
  C   C35       1.0  0.27772  0.04838  0.71043  1.0000
  C   C36       1.0  0.95073  0.72223  0.78880  1.0000
  N   N1        1.0  0.52127  0.23920  0.96162  1.0000
  N   N2        1.0  0.76035  0.47776  0.53745  1.0000
  N   N3        1.0  0.47873  0.76081  0.03838  1.0000
  N   N4        1.0  0.23965  0.52223  0.46254  1.0000
  N   N5        1.0  0.55577  0.25266  0.87365  1.0000
  N   N6        1.0  0.74670  0.44320  0.62542  1.0000
  N   N7        1.0  0.44423  0.74734  0.12636  1.0000
  N   N8        1.0  0.25330  0.55680  0.37458  1.0000
  N   N9        1.0  0.65551  0.20938  0.87722  1.0000
  N   N10       1.0  0.79078  0.34341  0.62266  1.0000
  N   N11       1.0  0.34449  0.79062  0.12279  1.0000
  N   N12       1.0  0.20923  0.65658  0.37733  1.0000
  N   N13       1.0  0.68879  0.16780  0.96603  1.0000
  N   N14       1.0  0.83311  0.31010  0.53436  1.0000
  N   N15       1.0  0.31121  0.83221  0.03397  1.0000
  N   N16       1.0  0.16690  0.68989  0.46563  1.0000
  O   O1        1.0  0.40606  0.32825  0.33149  1.0000
  O   O2        1.0  0.67206  0.59245  0.16791  1.0000
  O   O3        1.0  0.59394  0.67175  0.66851  1.0000
  O   O4        1.0  0.32794  0.40754  0.83208  1.0000
  O   O5        1.0  0.42753  0.44501  0.12263  1.0000
  O   O6        1.0  0.55565  0.57300  0.37708  1.0000
  O   O7        1.0  0.57247  0.55499  0.87737  1.0000
  O   O8        1.0  0.44434  0.42700  0.62292  1.0000
  O   O9        1.0  0.40091  0.17292  0.40602  1.0000
  O   O10       1.0  0.82707  0.60018  0.09441  1.0000
  O   O11       1.0  0.59908  0.82708  0.59398  1.0000
  O   O12       1.0  0.17293  0.39982  0.90559  1.0000
  O   O13       1.0  0.19645  0.15606  0.01204  1.0000
  O   O14       1.0  0.84354  0.80424  0.48796  1.0000
  O   O15       1.0  0.80355  0.84393  0.98796  1.0000
  O   O16       1.0  0.15646  0.19576  0.51204  1.0000
  O   O17       1.0  0.71285  0.92955  0.38018  1.0000
  O   O18       1.0  0.07110  0.28707  0.12041  1.0000
  O   O19       1.0  0.28715  0.07046  0.61982  1.0000
  O   O20       1.0  0.92890  0.71292  0.87958  1.0000
  O   O21       1.0  0.52818  0.21749  0.63324  1.0000
  O   O22       1.0  0.78075  0.47275  0.86646  1.0000
  O   O23       1.0  0.47182  0.78251  0.36676  1.0000
  O   O24       1.0  0.21925  0.52725  0.13354  1.0000
  O   O25       1.0  0.78366  0.90115  0.23061  1.0000
  O   O26       1.0  0.09955  0.21620  0.27013  1.0000
  O   O27       1.0  0.21634  0.09885  0.76940  1.0000
  O   O28       1.0  0.90045  0.78380  0.72986  1.0000
  O   O29       1.0  0.75125  0.05679  0.61924  1.0000
  O   O30       1.0  0.94287  0.25181  0.88241  1.0000
  O   O31       1.0  0.24875  0.94321  0.38076  1.0000
  O   O32       1.0  0.05713  0.74819  0.11759  1.0000
