data_image0
_chemical_formula_structural       Cd6H44C36N16O32
_chemical_formula_sum              "Cd6 H44 C36 N16 O32"
_cell_length_a       11.3815
_cell_length_b       11.2733
_cell_length_c       12.8688
_cell_angle_alpha    106.735
_cell_angle_beta     106.571
_cell_angle_gamma    102.179

_space_group_name_H-M_alt    "P 1"
_space_group_IT_number       1

loop_
  _space_group_symop_operation_xyz
  'x, y, z'

loop_
  _atom_site_type_symbol
  _atom_site_label
  _atom_site_symmetry_multiplicity
  _atom_site_fract_x
  _atom_site_fract_y
  _atom_site_fract_z
  _atom_site_occupancy
  Cd  Cd1       1.0  0.17204  0.72501  0.55373  1.0000
  Cd  Cd2       1.0  0.77528  0.32753  0.94656  1.0000
  Cd  Cd3       1.0  0.82796  0.27499  0.44626  1.0000
  Cd  Cd4       1.0  0.22472  0.67247  0.05344  1.0000
  Cd  Cd5       1.0  0.25300  0.24713  0.25061  1.0000
  Cd  Cd6       1.0  0.74700  0.75287  0.74939  1.0000
  H   H1        1.0  0.34412  0.79344  0.43552  1.0000
  H   H2        1.0  0.70685  0.15515  0.06438  1.0000
  H   H3        1.0  0.65588  0.20656  0.56448  1.0000
  H   H4        1.0  0.29315  0.84485  0.93562  1.0000
  H   H5        1.0  0.37262  0.90887  0.55411  1.0000
  H   H6        1.0  0.59231  0.12602  0.94608  1.0000
  H   H7        1.0  0.62738  0.09113  0.44590  1.0000
  H   H8        1.0  0.40769  0.87398  0.05392  1.0000
  H   H9        1.0  0.95443  0.17127  0.14816  1.0000
  H   H10       1.0  0.32774  0.54704  0.35182  1.0000
  H   H11       1.0  0.04557  0.82873  0.85184  1.0000
  H   H12       1.0  0.67225  0.45296  0.64818  1.0000
  H   H13       1.0  0.99871  0.19284  0.04812  1.0000
  H   H14       1.0  0.30573  0.50227  0.45167  1.0000
  H   H15       1.0  0.00129  0.80716  0.95188  1.0000
  H   H16       1.0  0.69427  0.49774  0.54834  1.0000
  H   H17       1.0  0.21875  0.03305  0.60809  1.0000
  H   H18       1.0  0.46805  0.28096  0.89238  1.0000
  H   H19       1.0  0.78126  0.96695  0.39191  1.0000
  H   H20       1.0  0.53196  0.71905  0.10763  1.0000
  H   H21       1.0  0.98149  0.28007  0.66294  1.0000
  H   H22       1.0  0.22060  0.51758  0.83700  1.0000
  H   H23       1.0  0.01852  0.71993  0.33706  1.0000
  H   H24       1.0  0.77940  0.48242  0.16300  1.0000
  H   H25       1.0  0.06909  0.06346  0.88289  1.0000
  H   H26       1.0  0.43734  0.43161  0.61785  1.0000
  H   H27       1.0  0.93091  0.93653  0.11710  1.0000
  H   H28       1.0  0.56266  0.56839  0.38216  1.0000
  H   H29       1.0  0.98309  0.49582  0.35350  1.0000
  H   H30       1.0  0.00356  0.51701  0.14639  1.0000
  H   H31       1.0  0.01691  0.50418  0.64650  1.0000
  H   H32       1.0  0.99644  0.48299  0.85361  1.0000
  H   H33       1.0  0.12774  0.50339  0.35635  1.0000
  H   H34       1.0  0.99516  0.37081  0.14285  1.0000
  H   H35       1.0  0.87226  0.49661  0.64365  1.0000
  H   H36       1.0  0.00484  0.62919  0.85715  1.0000
  H   H37       1.0  0.45808  0.26152  0.46370  1.0000
  H   H38       1.0  0.23997  0.04307  0.03744  1.0000
  H   H39       1.0  0.54192  0.73848  0.53630  1.0000
  H   H40       1.0  0.76003  0.95692  0.96256  1.0000
  H   H41       1.0  0.52496  0.30884  0.38407  1.0000
  H   H42       1.0  0.19223  0.97445  0.11600  1.0000
  H   H43       1.0  0.47504  0.69116  0.61594  1.0000
  H   H44       1.0  0.80776  0.02555  0.88400  1.0000
  C   C1        1.0  0.09823  0.15677  0.62069  1.0000
  C   C2        1.0  0.34419  0.40132  0.87961  1.0000
  C   C3        1.0  0.90178  0.84324  0.37931  1.0000
  C   C4        1.0  0.65580  0.59868  0.12040  1.0000
  C   C5        1.0  0.10373  0.18710  0.51863  1.0000
  C   C6        1.0  0.31345  0.39530  0.98129  1.0000
  C   C7        1.0  0.89627  0.81290  0.48137  1.0000
  C   C8        1.0  0.68655  0.60470  0.01871  1.0000
  C   C9        1.0  0.15392  0.04135  0.75162  1.0000
  C   C10       1.0  0.45968  0.34627  0.74902  1.0000
  C   C11       1.0  0.84608  0.95865  0.24837  1.0000
  C   C12       1.0  0.54032  0.65373  0.25099  1.0000
  C   C13       1.0  0.01645  0.17587  0.77761  1.0000
  C   C14       1.0  0.32485  0.48354  0.72275  1.0000
  C   C15       1.0  0.98355  0.82412  0.22238  1.0000
  C   C16       1.0  0.67516  0.51646  0.27725  1.0000
  C   C17       1.0  0.16258  0.07365  0.65614  1.0000
  C   C18       1.0  0.42741  0.33733  0.84439  1.0000
  C   C19       1.0  0.83743  0.92635  0.34385  1.0000
  C   C20       1.0  0.57259  0.66268  0.15561  1.0000
  C   C21       1.0  0.02773  0.21031  0.68406  1.0000
  C   C22       1.0  0.29045  0.47181  0.81612  1.0000
  C   C23       1.0  0.97227  0.78969  0.31593  1.0000
  C   C24       1.0  0.70954  0.52819  0.18388  1.0000
  C   C25       1.0  0.93813  0.22963  0.84191  1.0000
  C   C26       1.0  0.27067  0.56170  0.65813  1.0000
  C   C27       1.0  0.06187  0.77036  0.15809  1.0000
  C   C28       1.0  0.72933  0.43830  0.34187  1.0000
  C   C29       1.0  0.22099  0.95035  0.78867  1.0000
  C   C30       1.0  0.55040  0.27900  0.71197  1.0000
  C   C31       1.0  0.77901  0.04965  0.21132  1.0000
  C   C32       1.0  0.44960  0.72100  0.28804  1.0000
  C   C33       1.0  0.07841  0.09059  0.81039  1.0000
  C   C34       1.0  0.41021  0.42197  0.69021  1.0000
  C   C35       1.0  0.92159  0.90940  0.18961  1.0000
  C   C36       1.0  0.58980  0.57803  0.30980  1.0000
  N   N1        1.0  0.05642  0.25305  0.37445  1.0000
  N   N2        1.0  0.24652  0.44268  0.12472  1.0000
  N   N3        1.0  0.94358  0.74695  0.62555  1.0000
  N   N4        1.0  0.75348  0.55732  0.87528  1.0000
  N   N5        1.0  0.15602  0.20948  0.37802  1.0000
  N   N6        1.0  0.29079  0.34295  0.12190  1.0000
  N   N7        1.0  0.84399  0.79052  0.62198  1.0000
  N   N8        1.0  0.70920  0.65705  0.87810  1.0000
  N   N9        1.0  0.02164  0.23966  0.46221  1.0000
  N   N10       1.0  0.26003  0.47748  0.03695  1.0000
  N   N11       1.0  0.97835  0.76034  0.53779  1.0000
  N   N12       1.0  0.73997  0.52252  0.96306  1.0000
  N   N13       1.0  0.18896  0.16774  0.46665  1.0000
  N   N14       1.0  0.33317  0.30991  0.03371  1.0000
  N   N15       1.0  0.81105  0.83226  0.53335  1.0000
  N   N16       1.0  0.66683  0.69009  0.96629  1.0000
  O   O1        1.0  0.28249  0.89995  0.72995  1.0000
  O   O2        1.0  0.60067  0.21737  0.77074  1.0000
  O   O3        1.0  0.71752  0.10005  0.27005  1.0000
  O   O4        1.0  0.39933  0.78264  0.22926  1.0000
  O   O5        1.0  0.90197  0.17349  0.90699  1.0000
  O   O6        1.0  0.32651  0.59916  0.59355  1.0000
  O   O7        1.0  0.09804  0.82651  0.09300  1.0000
  O   O8        1.0  0.67349  0.40084  0.40646  1.0000
  O   O9        1.0  0.30174  0.84185  0.48582  1.0000
  O   O10       1.0  0.65856  0.19779  0.01432  1.0000
  O   O11       1.0  0.69826  0.15816  0.51419  1.0000
  O   O12       1.0  0.34143  0.80221  0.98568  1.0000
  O   O13       1.0  0.21118  0.92811  0.87902  1.0000
  O   O14       1.0  0.57228  0.28854  0.62140  1.0000
  O   O15       1.0  0.78881  0.07189  0.12098  1.0000
  O   O16       1.0  0.42772  0.71146  0.37860  1.0000
  O   O17       1.0  0.02835  0.21922  0.13416  1.0000
  O   O18       1.0  0.27940  0.47260  0.36559  1.0000
  O   O19       1.0  0.97165  0.78078  0.86584  1.0000
  O   O20       1.0  0.72060  0.52740  0.63441  1.0000
  O   O21       1.0  0.07186  0.55514  0.37688  1.0000
  O   O22       1.0  0.94409  0.42767  0.12327  1.0000
  O   O23       1.0  0.92814  0.44486  0.62312  1.0000
  O   O24       1.0  0.05591  0.57232  0.87673  1.0000
  O   O25       1.0  0.44294  0.25484  0.38270  1.0000
  O   O26       1.0  0.24804  0.05678  0.11858  1.0000
  O   O27       1.0  0.55707  0.74516  0.61730  1.0000
  O   O28       1.0  0.75195  0.94322  0.88141  1.0000
  O   O29       1.0  0.90660  0.32873  0.83246  1.0000
  O   O30       1.0  0.17148  0.59183  0.66685  1.0000
  O   O31       1.0  0.09340  0.67127  0.16754  1.0000
  O   O32       1.0  0.82852  0.40817  0.33315  1.0000
