data_image0
_chemical_formula_structural       Mg4H36C44N8Cl4O24
_chemical_formula_sum              "Mg4 H36 C44 N8 Cl4 O24"
_cell_length_a       6.22101
_cell_length_b       12.3532
_cell_length_c       16.988
_cell_angle_alpha    104.654
_cell_angle_beta     90
_cell_angle_gamma    90

_space_group_name_H-M_alt    "P 1"
_space_group_IT_number       1

loop_
  _space_group_symop_operation_xyz
  'x, y, z'

loop_
  _atom_site_type_symbol
  _atom_site_label
  _atom_site_symmetry_multiplicity
  _atom_site_fract_x
  _atom_site_fract_y
  _atom_site_fract_z
  _atom_site_occupancy
  Mg  Mg1       1.0  0.30156  0.60433  0.90613  1.0000
  Mg  Mg2       1.0  0.80156  0.89567  0.09387  1.0000
  Mg  Mg3       1.0  0.69844  0.39567  0.09387  1.0000
  Mg  Mg4       1.0  0.19844  0.10433  0.90613  1.0000
  H   H1        1.0  0.39032  0.32365  0.65407  1.0000
  H   H2        1.0  0.89032  0.17635  0.34593  1.0000
  H   H3        1.0  0.60968  0.67635  0.34593  1.0000
  H   H4        1.0  0.10968  0.82365  0.65407  1.0000
  H   H5        1.0  0.24117  0.97867  0.53972  1.0000
  H   H6        1.0  0.74117  0.52133  0.46028  1.0000
  H   H7        1.0  0.75883  0.02132  0.46028  1.0000
  H   H8        1.0  0.25883  0.47867  0.53972  1.0000
  H   H9        1.0  0.98511  0.18796  0.77434  1.0000
  H   H10       1.0  0.48512  0.31204  0.22566  1.0000
  H   H11       1.0  0.01489  0.81204  0.22566  1.0000
  H   H12       1.0  0.51488  0.68796  0.77434  1.0000
  H   H13       1.0  0.54969  0.91878  0.61302  1.0000
  H   H14       1.0  0.04969  0.58122  0.38698  1.0000
  H   H15       1.0  0.45031  0.08122  0.38698  1.0000
  H   H16       1.0  0.95031  0.41878  0.61302  1.0000
  H   H17       1.0  0.77323  0.05839  0.70672  1.0000
  H   H18       1.0  0.27323  0.44161  0.29328  1.0000
  H   H19       1.0  0.22677  0.94161  0.29328  1.0000
  H   H20       1.0  0.72677  0.55839  0.70672  1.0000
  H   H21       1.0  0.48015  0.62385  0.04736  1.0000
  H   H22       1.0  0.98014  0.87615  0.95264  1.0000
  H   H23       1.0  0.51985  0.37615  0.95264  1.0000
  H   H24       1.0  0.01985  0.12385  0.04736  1.0000
  H   H25       1.0  0.38884  0.74232  0.04865  1.0000
  H   H26       1.0  0.88884  0.75768  0.95135  1.0000
  H   H27       1.0  0.61116  0.25768  0.95135  1.0000
  H   H28       1.0  0.11116  0.24232  0.04865  1.0000
  H   H29       1.0  0.44581  0.47888  0.76695  1.0000
  H   H30       1.0  0.94581  0.02112  0.23305  1.0000
  H   H31       1.0  0.55419  0.52112  0.23305  1.0000
  H   H32       1.0  0.05419  0.97888  0.76695  1.0000
  H   H33       1.0  0.22122  0.51699  0.73349  1.0000
  H   H34       1.0  0.72122  0.98301  0.26651  1.0000
  H   H35       1.0  0.77878  0.48301  0.26651  1.0000
  H   H36       1.0  0.27878  0.01699  0.73349  1.0000
  C   C1        1.0  0.17794  0.35458  0.88157  1.0000
  C   C2        1.0  0.67794  0.14543  0.11843  1.0000
  C   C3        1.0  0.82206  0.64543  0.11843  1.0000
  C   C4        1.0  0.32206  0.85458  0.88157  1.0000
  C   C5        1.0  0.80891  0.55874  0.87871  1.0000
  C   C6        1.0  0.30891  0.94126  0.12129  1.0000
  C   C7        1.0  0.19109  0.44126  0.12129  1.0000
  C   C8        1.0  0.69109  0.05874  0.87871  1.0000
  C   C9        1.0  0.72193  0.28547  0.74569  1.0000
  C   C10       1.0  0.22194  0.21453  0.25431  1.0000
  C   C11       1.0  0.27807  0.71453  0.25431  1.0000
  C   C12       1.0  0.77806  0.78547  0.74569  1.0000
  C   C13       1.0  0.59625  0.20165  0.68819  1.0000
  C   C14       1.0  0.09625  0.29835  0.31181  1.0000
  C   C15       1.0  0.40375  0.79835  0.31181  1.0000
  C   C16       1.0  0.90375  0.70165  0.68819  1.0000
  C   C17       1.0  0.98360  0.36073  0.83159  1.0000
  C   C18       1.0  0.48360  0.13927  0.16841  1.0000
  C   C19       1.0  0.01640  0.63927  0.16841  1.0000
  C   C20       1.0  0.51640  0.86073  0.83159  1.0000
  C   C21       1.0  0.82986  0.44168  0.82787  1.0000
  C   C22       1.0  0.32986  0.05832  0.17213  1.0000
  C   C23       1.0  0.17014  0.55832  0.17213  1.0000
  C   C24       1.0  0.67014  0.94168  0.82787  1.0000
  C   C25       1.0  0.51362  0.00752  0.62251  1.0000
  C   C26       1.0  0.01362  0.49248  0.37749  1.0000
  C   C27       1.0  0.48638  0.99248  0.37749  1.0000
  C   C28       1.0  0.98638  0.50752  0.62251  1.0000
  C   C29       1.0  0.34044  0.04018  0.58127  1.0000
  C   C30       1.0  0.84044  0.45982  0.41873  1.0000
  C   C31       1.0  0.65956  0.95982  0.41873  1.0000
  C   C32       1.0  0.15956  0.54018  0.58127  1.0000
  C   C33       1.0  0.64090  0.08683  0.67512  1.0000
  C   C34       1.0  0.14089  0.41317  0.32488  1.0000
  C   C35       1.0  0.35911  0.91317  0.32488  1.0000
  C   C36       1.0  0.85911  0.58683  0.67512  1.0000
  C   C37       1.0  0.29975  0.15443  0.59351  1.0000
  C   C38       1.0  0.79976  0.34557  0.40649  1.0000
  C   C39       1.0  0.70025  0.84557  0.40649  1.0000
  C   C40       1.0  0.20025  0.65443  0.59351  1.0000
  C   C41       1.0  0.42428  0.23510  0.64604  1.0000
  C   C42       1.0  0.92428  0.26490  0.35396  1.0000
  C   C43       1.0  0.57572  0.76490  0.35396  1.0000
  C   C44       1.0  0.07572  0.73510  0.64604  1.0000
  N   N1        1.0  0.66957  0.39366  0.77432  1.0000
  N   N2        1.0  0.16957  0.10634  0.22568  1.0000
  N   N3        1.0  0.33043  0.60634  0.22568  1.0000
  N   N4        1.0  0.83043  0.89366  0.77432  1.0000
  N   N5        1.0  0.91020  0.26373  0.77982  1.0000
  N   N6        1.0  0.41020  0.23627  0.22018  1.0000
  N   N7        1.0  0.08980  0.73627  0.22019  1.0000
  N   N8        1.0  0.58980  0.76373  0.77982  1.0000
  Cl  Cl1       1.0  0.09010  0.19710  0.54057  1.0000
  Cl  Cl2       1.0  0.59010  0.30290  0.45943  1.0000
  Cl  Cl3       1.0  0.90990  0.80290  0.45943  1.0000
  Cl  Cl4       1.0  0.40990  0.69710  0.54057  1.0000
  O   O1        1.0  0.28654  0.44166  0.91398  1.0000
  O   O2        1.0  0.78655  0.05834  0.08602  1.0000
  O   O3        1.0  0.71345  0.55834  0.08602  1.0000
  O   O4        1.0  0.21346  0.94166  0.91398  1.0000
  O   O5        1.0  0.97596  0.61189  0.90967  1.0000
  O   O6        1.0  0.47596  0.88811  0.09033  1.0000
  O   O7        1.0  0.02404  0.38811  0.09034  1.0000
  O   O8        1.0  0.52404  0.11189  0.90966  1.0000
  O   O9        1.0  0.22795  0.25795  0.88683  1.0000
  O   O10       1.0  0.72794  0.24204  0.11316  1.0000
  O   O11       1.0  0.77206  0.74204  0.11317  1.0000
  O   O12       1.0  0.27206  0.75796  0.88683  1.0000
  O   O13       1.0  0.33968  0.54224  0.77119  1.0000
  O   O14       1.0  0.83968  0.95776  0.22881  1.0000
  O   O15       1.0  0.66031  0.45776  0.22881  1.0000
  O   O16       1.0  0.16031  0.04224  0.77119  1.0000
  O   O17       1.0  0.35582  0.66129  0.02902  1.0000
  O   O18       1.0  0.85582  0.83871  0.97098  1.0000
  O   O19       1.0  0.64418  0.33871  0.97098  1.0000
  O   O20       1.0  0.14418  0.16129  0.02902  1.0000
  O   O21       1.0  0.62362  0.60090  0.88832  1.0000
  O   O22       1.0  0.12361  0.89910  0.11168  1.0000
  O   O23       1.0  0.37638  0.39910  0.11168  1.0000
  O   O24       1.0  0.87639  0.10090  0.88832  1.0000
