data_image0
_chemical_formula_structural       Sr4H28C44N8Cl4O20
_chemical_formula_sum              "Sr4 H28 C44 N8 Cl4 O20"
_cell_length_a       6.64806
_cell_length_b       12.7226
_cell_length_c       14.299
_cell_angle_alpha    94.6852
_cell_angle_beta     90
_cell_angle_gamma    90

_space_group_name_H-M_alt    "P 1"
_space_group_IT_number       1

loop_
  _space_group_symop_operation_xyz
  'x, y, z'

loop_
  _atom_site_type_symbol
  _atom_site_label
  _atom_site_symmetry_multiplicity
  _atom_site_fract_x
  _atom_site_fract_y
  _atom_site_fract_z
  _atom_site_occupancy
  Sr  Sr1       1.0  0.05967  0.66700  0.96857  1.0000
  Sr  Sr2       1.0  0.55966  0.83300  0.03143  1.0000
  Sr  Sr3       1.0  0.94034  0.33300  0.03143  1.0000
  Sr  Sr4       1.0  0.44034  0.16700  0.96857  1.0000
  H   H1        1.0  0.43064  0.99919  0.37845  1.0000
  H   H2        1.0  0.93065  0.50081  0.62155  1.0000
  H   H3        1.0  0.56935  0.00081  0.62155  1.0000
  H   H4        1.0  0.06935  0.49919  0.37844  1.0000
  H   H5        1.0  0.30823  0.30104  0.27371  1.0000
  H   H6        1.0  0.80823  0.19896  0.72628  1.0000
  H   H7        1.0  0.69177  0.69896  0.72628  1.0000
  H   H8        1.0  0.19178  0.80104  0.27372  1.0000
  H   H9        1.0  0.68246  0.08338  0.48912  1.0000
  H   H10       1.0  0.18246  0.41662  0.51088  1.0000
  H   H11       1.0  0.31753  0.91662  0.51088  1.0000
  H   H12       1.0  0.81753  0.58338  0.48912  1.0000
  H   H13       1.0  0.74765  0.27652  0.49276  1.0000
  H   H14       1.0  0.24765  0.22348  0.50724  1.0000
  H   H15       1.0  0.25234  0.72348  0.50724  1.0000
  H   H16       1.0  0.75234  0.77652  0.49275  1.0000
  H   H17       1.0  0.17080  0.62151  0.74289  1.0000
  H   H18       1.0  0.67080  0.87849  0.25711  1.0000
  H   H19       1.0  0.82920  0.37849  0.25711  1.0000
  H   H20       1.0  0.32920  0.12151  0.74289  1.0000
  H   H21       1.0  0.34107  0.94844  0.21640  1.0000
  H   H22       1.0  0.84107  0.55156  0.78360  1.0000
  H   H23       1.0  0.65893  0.05156  0.78360  1.0000
  H   H24       1.0  0.15893  0.44844  0.21640  1.0000
  H   H25       1.0  0.03032  0.72232  0.76543  1.0000
  H   H26       1.0  0.53032  0.77769  0.23457  1.0000
  H   H27       1.0  0.96968  0.27769  0.23457  1.0000
  H   H28       1.0  0.46968  0.22231  0.76543  1.0000
  C   C1        1.0  0.05872  0.88319  0.08719  1.0000
  C   C2        1.0  0.55872  0.61681  0.91281  1.0000
  C   C3        1.0  0.94128  0.11681  0.91281  1.0000
  C   C4        1.0  0.44128  0.38319  0.08719  1.0000
  C   C5        1.0  0.93693  0.06980  0.16533  1.0000
  C   C6        1.0  0.43693  0.43020  0.83467  1.0000
  C   C7        1.0  0.06307  0.93020  0.83467  1.0000
  C   C8        1.0  0.56307  0.56980  0.16533  1.0000
  C   C9        1.0  0.05656  0.97902  0.15334  1.0000
  C   C10       1.0  0.55655  0.52098  0.84666  1.0000
  C   C11       1.0  0.94344  0.02098  0.84666  1.0000
  C   C12       1.0  0.44345  0.47902  0.15334  1.0000
  C   C13       1.0  0.20078  0.09763  0.25445  1.0000
  C   C14       1.0  0.70077  0.40237  0.74555  1.0000
  C   C15       1.0  0.79923  0.90237  0.74555  1.0000
  C   C16       1.0  0.29923  0.59763  0.25445  1.0000
  C   C17       1.0  0.34964  0.14520  0.32020  1.0000
  C   C18       1.0  0.84963  0.35480  0.67980  1.0000
  C   C19       1.0  0.65036  0.85481  0.67980  1.0000
  C   C20       1.0  0.15037  0.64520  0.32020  1.0000
  C   C21       1.0  0.45816  0.08375  0.38014  1.0000
  C   C22       1.0  0.95816  0.41625  0.61986  1.0000
  C   C23       1.0  0.54184  0.91625  0.61986  1.0000
  C   C24       1.0  0.04184  0.58375  0.38014  1.0000
  C   C25       1.0  0.38672  0.25399  0.32226  1.0000
  C   C26       1.0  0.88671  0.24601  0.67774  1.0000
  C   C27       1.0  0.61329  0.74601  0.67774  1.0000
  C   C28       1.0  0.11329  0.75399  0.32226  1.0000
  C   C29       1.0  0.59970  0.13095  0.44215  1.0000
  C   C30       1.0  0.09970  0.36905  0.55786  1.0000
  C   C31       1.0  0.40029  0.86905  0.55786  1.0000
  C   C32       1.0  0.90030  0.63095  0.44214  1.0000
  C   C33       1.0  0.53006  0.29873  0.38417  1.0000
  C   C34       1.0  0.03006  0.20127  0.61583  1.0000
  C   C35       1.0  0.46994  0.70127  0.61583  1.0000
  C   C36       1.0  0.96994  0.79873  0.38417  1.0000
  C   C37       1.0  0.63726  0.23899  0.44489  1.0000
  C   C38       1.0  0.13726  0.26101  0.55511  1.0000
  C   C39       1.0  0.36274  0.76101  0.55511  1.0000
  C   C40       1.0  0.86274  0.73899  0.44489  1.0000
  C   C41       1.0  0.74599  0.09814  0.11819  1.0000
  C   C42       1.0  0.24599  0.40186  0.88181  1.0000
  C   C43       1.0  0.25401  0.90186  0.88181  1.0000
  C   C44       1.0  0.75401  0.59814  0.11819  1.0000
  N   N1        1.0  0.03029  0.14282  0.22725  1.0000
  N   N2        1.0  0.53029  0.35718  0.77275  1.0000
  N   N3        1.0  0.96971  0.85718  0.77275  1.0000
  N   N4        1.0  0.46971  0.64282  0.22725  1.0000
  N   N5        1.0  0.22002  0.99925  0.21113  1.0000
  N   N6        1.0  0.72002  0.50075  0.78887  1.0000
  N   N7        1.0  0.77998  0.00075  0.78887  1.0000
  N   N8        1.0  0.27999  0.49925  0.21113  1.0000
  Cl  Cl1       1.0  0.58127  0.43291  0.38505  1.0000
  Cl  Cl2       1.0  0.08126  0.06709  0.61495  1.0000
  Cl  Cl3       1.0  0.41874  0.56709  0.61495  1.0000
  Cl  Cl4       1.0  0.91873  0.93291  0.38505  1.0000
  O   O1        1.0  0.92633  0.86956  0.02370  1.0000
  O   O2        1.0  0.42633  0.63043  0.97631  1.0000
  O   O3        1.0  0.07367  0.13044  0.97630  1.0000
  O   O4        1.0  0.57367  0.36957  0.02369  1.0000
  O   O5        1.0  0.20414  0.81848  0.09616  1.0000
  O   O6        1.0  0.70414  0.68151  0.90384  1.0000
  O   O7        1.0  0.79586  0.18152  0.90384  1.0000
  O   O8        1.0  0.29586  0.31848  0.09616  1.0000
  O   O9        1.0  0.71518  0.19568  0.11017  1.0000
  O   O10       1.0  0.21518  0.30432  0.88983  1.0000
  O   O11       1.0  0.28482  0.80432  0.88983  1.0000
  O   O12       1.0  0.78482  0.69568  0.11017  1.0000
  O   O13       1.0  0.62321  0.02707  0.08654  1.0000
  O   O14       1.0  0.12321  0.47293  0.91347  1.0000
  O   O15       1.0  0.37679  0.97293  0.91346  1.0000
  O   O16       1.0  0.87680  0.52707  0.08654  1.0000
  O   O17       1.0  0.04436  0.64406  0.77266  1.0000
  O   O18       1.0  0.54436  0.85593  0.22734  1.0000
  O   O19       1.0  0.95565  0.35594  0.22734  1.0000
  O   O20       1.0  0.45565  0.14407  0.77266  1.0000
