data_image0
_chemical_formula_structural       La4H32C24N4O28
_chemical_formula_sum              "La4 H32 C24 N4 O28"
_cell_length_a       7.03789
_cell_length_b       10.2611
_cell_length_c       12.167
_cell_angle_alpha    89.9999
_cell_angle_beta     90.0001
_cell_angle_gamma    90.0004

_space_group_name_H-M_alt    "P 1"
_space_group_IT_number       1

loop_
  _space_group_symop_operation_xyz
  'x, y, z'

loop_
  _atom_site_type_symbol
  _atom_site_label
  _atom_site_symmetry_multiplicity
  _atom_site_fract_x
  _atom_site_fract_y
  _atom_site_fract_z
  _atom_site_occupancy
  La  La1       1.0  0.86822  0.15074  0.89834  1.0000
  La  La2       1.0  0.63178  0.84926  0.39834  1.0000
  La  La3       1.0  0.13179  0.65074  0.60166  1.0000
  La  La4       1.0  0.36821  0.34926  0.10166  1.0000
  H   H1        1.0  0.59721  0.77687  0.81842  1.0000
  H   H2        1.0  0.90279  0.22313  0.31842  1.0000
  H   H3        1.0  0.40279  0.27687  0.68158  1.0000
  H   H4        1.0  0.09721  0.72313  0.18158  1.0000
  H   H5        1.0  0.73342  0.72789  0.93109  1.0000
  H   H6        1.0  0.76658  0.27212  0.43109  1.0000
  H   H7        1.0  0.26658  0.22788  0.56891  1.0000
  H   H8        1.0  0.23342  0.77212  0.06891  1.0000
  H   H9        1.0  0.61304  0.79644  0.07644  1.0000
  H   H10       1.0  0.88696  0.20356  0.57644  1.0000
  H   H11       1.0  0.38696  0.29645  0.42356  1.0000
  H   H12       1.0  0.11304  0.70356  0.92356  1.0000
  H   H13       1.0  0.51623  0.95269  0.09653  1.0000
  H   H14       1.0  0.98378  0.04731  0.59653  1.0000
  H   H15       1.0  0.48378  0.45269  0.40347  1.0000
  H   H16       1.0  0.01623  0.54731  0.90347  1.0000
  H   H17       1.0  0.33485  0.89315  0.92794  1.0000
  H   H18       1.0  0.16515  0.10685  0.42795  1.0000
  H   H19       1.0  0.66515  0.39315  0.57205  1.0000
  H   H20       1.0  0.83486  0.60685  0.07205  1.0000
  H   H21       1.0  0.44750  0.96220  0.81122  1.0000
  H   H22       1.0  0.05250  0.03780  0.31123  1.0000
  H   H23       1.0  0.55250  0.46220  0.68878  1.0000
  H   H24       1.0  0.94751  0.53780  0.18878  1.0000
  H   H25       1.0  0.63724  0.42405  0.86038  1.0000
  H   H26       1.0  0.86276  0.57595  0.36039  1.0000
  H   H27       1.0  0.36276  0.92405  0.63962  1.0000
  H   H28       1.0  0.13723  0.07595  0.13962  1.0000
  H   H29       1.0  0.82427  0.41869  0.77729  1.0000
  H   H30       1.0  0.67573  0.58131  0.27729  1.0000
  H   H31       1.0  0.17574  0.91869  0.72271  1.0000
  H   H32       1.0  0.32426  0.08130  0.22271  1.0000
  C   C1        1.0  0.88588  0.83218  0.80974  1.0000
  C   C2        1.0  0.61412  0.16782  0.30975  1.0000
  C   C3        1.0  0.11412  0.33218  0.69025  1.0000
  C   C4        1.0  0.38588  0.66782  0.19026  1.0000
  C   C5        1.0  0.70589  0.81152  0.87650  1.0000
  C   C6        1.0  0.79411  0.18848  0.37650  1.0000
  C   C7        1.0  0.29412  0.31152  0.62350  1.0000
  C   C8        1.0  0.20589  0.68848  0.12350  1.0000
  C   C9        1.0  0.63590  0.90033  0.05874  1.0000
  C   C10       1.0  0.86410  0.09967  0.55874  1.0000
  C   C11       1.0  0.36410  0.40033  0.44126  1.0000
  C   C12       1.0  0.13590  0.59967  0.94126  1.0000
  C   C13       1.0  0.81078  0.94380  0.12333  1.0000
  C   C14       1.0  0.68923  0.05619  0.62333  1.0000
  C   C15       1.0  0.18923  0.44381  0.37667  1.0000
  C   C16       1.0  0.31078  0.55620  0.87667  1.0000
  C   C17       1.0  0.44646  0.96177  0.90130  1.0000
  C   C18       1.0  0.05354  0.03824  0.40130  1.0000
  C   C19       1.0  0.55354  0.46176  0.59870  1.0000
  C   C20       1.0  0.94647  0.53824  0.09871  1.0000
  C   C21       1.0  0.39088  0.09810  0.93560  1.0000
  C   C22       1.0  0.10912  0.90190  0.43560  1.0000
  C   C23       1.0  0.60913  0.59810  0.56439  1.0000
  C   C24       1.0  0.89087  0.40190  0.06440  1.0000
  N   N1        1.0  0.63714  0.92474  0.93933  1.0000
  N   N2        1.0  0.86286  0.07526  0.43933  1.0000
  N   N3        1.0  0.36286  0.42474  0.56067  1.0000
  N   N4        1.0  0.13714  0.57526  0.06067  1.0000
  O   O1        1.0  0.97714  0.93951  0.81594  1.0000
  O   O2        1.0  0.52286  0.06049  0.31594  1.0000
  O   O3        1.0  0.02287  0.43951  0.68406  1.0000
  O   O4        1.0  0.47713  0.56049  0.18407  1.0000
  O   O5        1.0  0.93540  0.73592  0.75213  1.0000
  O   O6        1.0  0.56460  0.26408  0.25213  1.0000
  O   O7        1.0  0.06460  0.23592  0.74787  1.0000
  O   O8        1.0  0.43540  0.76408  0.24787  1.0000
  O   O9        1.0  0.92659  0.02274  0.07703  1.0000
  O   O10       1.0  0.57341  0.97725  0.57703  1.0000
  O   O11       1.0  0.07342  0.52275  0.42297  1.0000
  O   O12       1.0  0.42659  0.47726  0.92297  1.0000
  O   O13       1.0  0.82776  0.90141  0.22036  1.0000
  O   O14       1.0  0.67224  0.09857  0.72036  1.0000
  O   O15       1.0  0.17223  0.40142  0.27964  1.0000
  O   O16       1.0  0.32777  0.59858  0.77964  1.0000
  O   O17       1.0  0.52411  0.17554  0.96721  1.0000
  O   O18       1.0  0.97588  0.82446  0.46721  1.0000
  O   O19       1.0  0.47589  0.67554  0.53278  1.0000
  O   O20       1.0  0.02411  0.32446  0.03279  1.0000
  O   O21       1.0  0.22019  0.13172  0.93164  1.0000
  O   O22       1.0  0.27980  0.86828  0.43164  1.0000
  O   O23       1.0  0.77980  0.63172  0.56835  1.0000
  O   O24       1.0  0.72019  0.36829  0.06836  1.0000
  O   O25       1.0  0.75235  0.37509  0.83668  1.0000
  O   O26       1.0  0.74764  0.62490  0.33669  1.0000
  O   O27       1.0  0.24765  0.87510  0.66332  1.0000
  O   O28       1.0  0.25234  0.12490  0.16332  1.0000
