data_image0
_chemical_formula_structural       V4H20C24N4Cl12
_chemical_formula_sum              "V4 H20 C24 N4 Cl12"
_cell_length_a       9.23638
_cell_length_b       10.3652
_cell_length_c       10.6984
_cell_angle_alpha    96.2416
_cell_angle_beta     114.68
_cell_angle_gamma    106.317

_space_group_name_H-M_alt    "P 1"
_space_group_IT_number       1

loop_
  _space_group_symop_operation_xyz
  'x, y, z'

loop_
  _atom_site_type_symbol
  _atom_site_label
  _atom_site_symmetry_multiplicity
  _atom_site_fract_x
  _atom_site_fract_y
  _atom_site_fract_z
  _atom_site_occupancy
  V   V1        1.0  0.51711  0.63291  0.89770  1.0000
  V   V2        1.0  0.48289  0.36708  0.10230  1.0000
  V   V3        1.0  0.99502  0.86380  0.10028  1.0000
  V   V4        1.0  0.00498  0.13620  0.89973  1.0000
  H   H1        1.0  0.25045  0.69678  0.56697  1.0000
  H   H2        1.0  0.74955  0.30322  0.43303  1.0000
  H   H3        1.0  0.93495  0.35372  0.19042  1.0000
  H   H4        1.0  0.06504  0.64628  0.80957  1.0000
  H   H5        1.0  0.04136  0.60542  0.30722  1.0000
  H   H6        1.0  0.95863  0.39458  0.69277  1.0000
  H   H7        1.0  0.03539  0.19218  0.33015  1.0000
  H   H8        1.0  0.96460  0.80782  0.66985  1.0000
  H   H9        1.0  0.24326  0.28202  0.58988  1.0000
  H   H10       1.0  0.75674  0.71797  0.41011  1.0000
  H   H11       1.0  0.08450  0.86015  0.46172  1.0000
  H   H12       1.0  0.91550  0.13985  0.53828  1.0000
  H   H13       1.0  0.27991  0.95701  0.72328  1.0000
  H   H14       1.0  0.72010  0.04299  0.27672  1.0000
  H   H15       1.0  0.54960  0.15908  0.81105  1.0000
  H   H16       1.0  0.45041  0.84093  0.18895  1.0000
  H   H17       1.0  0.62464  0.26799  0.64007  1.0000
  H   H18       1.0  0.37537  0.73202  0.35993  1.0000
  H   H19       1.0  0.43084  0.17102  0.37790  1.0000
  H   H20       1.0  0.56916  0.82898  0.62210  1.0000
  C   C1        1.0  0.25895  0.49473  0.59306  1.0000
  C   C2        1.0  0.74105  0.50527  0.40694  1.0000
  C   C3        1.0  0.20275  0.58698  0.51314  1.0000
  C   C4        1.0  0.79724  0.41302  0.48685  1.0000
  C   C5        1.0  0.08612  0.53524  0.36938  1.0000
  C   C6        1.0  0.91388  0.46476  0.63062  1.0000
  C   C7        1.0  0.02533  0.39322  0.30362  1.0000
  C   C8        1.0  0.97467  0.60678  0.69637  1.0000
  C   C9        1.0  0.08144  0.30224  0.38272  1.0000
  C   C10       1.0  0.91856  0.69777  0.61728  1.0000
  C   C11       1.0  0.19779  0.35131  0.52695  1.0000
  C   C12       1.0  0.80221  0.64869  0.47305  1.0000
  C   C13       1.0  0.24762  0.00938  0.40488  1.0000
  C   C14       1.0  0.75238  0.99062  0.59512  1.0000
  C   C15       1.0  0.20324  0.94902  0.50244  1.0000
  C   C16       1.0  0.79676  0.05098  0.49756  1.0000
  C   C17       1.0  0.31239  0.00362  0.64755  1.0000
  C   C18       1.0  0.68762  0.99638  0.35245  1.0000
  C   C19       1.0  0.46446  0.11757  0.69703  1.0000
  C   C20       1.0  0.53554  0.88243  0.30297  1.0000
  C   C21       1.0  0.50671  0.17850  0.60053  1.0000
  C   C22       1.0  0.49329  0.82150  0.39947  1.0000
  C   C23       1.0  0.40000  0.12548  0.45471  1.0000
  C   C24       1.0  0.60001  0.87452  0.54530  1.0000
  N   N1        1.0  0.37163  0.54666  0.73416  1.0000
  N   N2        1.0  0.62837  0.45334  0.26584  1.0000
  N   N3        1.0  0.14140  0.95252  0.26299  1.0000
  N   N4        1.0  0.85859  0.04748  0.73701  1.0000
  Cl  Cl1       1.0  0.44573  0.81807  0.91402  1.0000
  Cl  Cl2       1.0  0.55427  0.18193  0.08598  1.0000
  Cl  Cl3       1.0  0.37298  0.54849  0.03166  1.0000
  Cl  Cl4       1.0  0.62701  0.45151  0.96834  1.0000
  Cl  Cl5       1.0  0.72852  0.71321  0.83845  1.0000
  Cl  Cl6       1.0  0.27148  0.28679  0.16155  1.0000
  Cl  Cl7       1.0  0.78759  0.77586  0.16257  1.0000
  Cl  Cl8       1.0  0.21240  0.22414  0.83743  1.0000
  Cl  Cl9       1.0  0.07609  0.68470  0.08318  1.0000
  Cl  Cl10      1.0  0.92392  0.31530  0.91682  1.0000
  Cl  Cl11      1.0  0.87299  0.04259  0.03706  1.0000
  Cl  Cl12      1.0  0.12700  0.95741  0.96294  1.0000
