data_image0
_chemical_formula_structural       K4V4H48C48N8O36
_chemical_formula_sum              "K4 V4 H48 C48 N8 O36"
_cell_length_a       9.5523
_cell_length_b       12.8254
_cell_length_c       13.8879
_cell_angle_alpha    90
_cell_angle_beta     90
_cell_angle_gamma    97.4538

_space_group_name_H-M_alt    "P 1"
_space_group_IT_number       1

loop_
  _space_group_symop_operation_xyz
  'x, y, z'

loop_
  _atom_site_type_symbol
  _atom_site_label
  _atom_site_symmetry_multiplicity
  _atom_site_fract_x
  _atom_site_fract_y
  _atom_site_fract_z
  _atom_site_occupancy
  K   K1        1.0  0.40564  0.96038  0.64410  1.0000
  K   K2        1.0  0.40564  0.46038  0.85591  1.0000
  K   K3        1.0  0.59436  0.03962  0.35590  1.0000
  K   K4        1.0  0.59436  0.53961  0.14409  1.0000
  V   V1        1.0  0.63279  0.91058  0.84456  1.0000
  V   V2        1.0  0.63278  0.41058  0.65544  1.0000
  V   V3        1.0  0.36721  0.08942  0.15545  1.0000
  V   V4        1.0  0.36721  0.58942  0.34456  1.0000
  H   H1        1.0  0.56603  0.12154  0.91323  1.0000
  H   H2        1.0  0.56603  0.62155  0.58677  1.0000
  H   H3        1.0  0.43397  0.87846  0.08678  1.0000
  H   H4        1.0  0.43396  0.37846  0.41323  1.0000
  H   H5        1.0  0.69503  0.29826  0.96347  1.0000
  H   H6        1.0  0.69503  0.79826  0.53654  1.0000
  H   H7        1.0  0.30497  0.70174  0.03653  1.0000
  H   H8        1.0  0.30496  0.20174  0.46347  1.0000
  H   H9        1.0  0.95896  0.32130  0.96474  1.0000
  H   H10       1.0  0.95896  0.82130  0.53526  1.0000
  H   H11       1.0  0.04104  0.67871  0.03526  1.0000
  H   H12       1.0  0.04104  0.17870  0.46474  1.0000
  H   H13       1.0  0.08477  0.17058  0.91580  1.0000
  H   H14       1.0  0.08477  0.67058  0.58420  1.0000
  H   H15       1.0  0.91523  0.82942  0.08420  1.0000
  H   H16       1.0  0.91523  0.32942  0.41580  1.0000
  H   H17       1.0  0.17710  0.03412  0.88655  1.0000
  H   H18       1.0  0.17709  0.53413  0.61346  1.0000
  H   H19       1.0  0.82291  0.96587  0.11345  1.0000
  H   H20       1.0  0.82290  0.46588  0.38655  1.0000
  H   H21       1.0  0.19826  0.09073  0.64432  1.0000
  H   H22       1.0  0.19826  0.59073  0.85568  1.0000
  H   H23       1.0  0.80174  0.90927  0.35568  1.0000
  H   H24       1.0  0.80174  0.40927  0.14432  1.0000
  H   H25       1.0  0.05420  0.02205  0.62076  1.0000
  H   H26       1.0  0.05420  0.52205  0.87924  1.0000
  H   H27       1.0  0.94580  0.97794  0.37924  1.0000
  H   H28       1.0  0.94580  0.47794  0.12076  1.0000
  H   H29       1.0  0.26459  0.87020  0.83622  1.0000
  H   H30       1.0  0.26459  0.37021  0.66378  1.0000
  H   H31       1.0  0.73542  0.12980  0.16378  1.0000
  H   H32       1.0  0.73541  0.62980  0.33621  1.0000
  H   H33       1.0  0.32158  0.17685  0.79038  1.0000
  H   H34       1.0  0.32158  0.67685  0.70962  1.0000
  H   H35       1.0  0.67842  0.82315  0.20962  1.0000
  H   H36       1.0  0.67842  0.32315  0.29038  1.0000
  H   H37       1.0  0.41973  0.18959  0.69880  1.0000
  H   H38       1.0  0.41973  0.68959  0.80120  1.0000
  H   H39       1.0  0.58027  0.81041  0.30120  1.0000
  H   H40       1.0  0.58027  0.31041  0.19880  1.0000
  H   H41       1.0  0.09098  0.71658  0.78250  1.0000
  H   H42       1.0  0.09098  0.21658  0.71750  1.0000
  H   H43       1.0  0.90902  0.28342  0.21750  1.0000
  H   H44       1.0  0.90902  0.78342  0.28249  1.0000
  H   H45       1.0  0.83066  0.73400  0.79063  1.0000
  H   H46       1.0  0.83066  0.23400  0.70937  1.0000
  H   H47       1.0  0.16934  0.26600  0.20937  1.0000
  H   H48       1.0  0.16934  0.76600  0.29063  1.0000
  C   C1        1.0  0.65720  0.78681  0.01916  1.0000
  C   C2        1.0  0.65720  0.28681  0.48085  1.0000
  C   C3        1.0  0.34280  0.21319  0.98084  1.0000
  C   C4        1.0  0.34280  0.71320  0.51915  1.0000
  C   C5        1.0  0.58341  0.70964  0.94449  1.0000
  C   C6        1.0  0.58341  0.20965  0.55551  1.0000
  C   C7        1.0  0.41659  0.29036  0.05551  1.0000
  C   C8        1.0  0.41659  0.79035  0.44448  1.0000
  C   C9        1.0  0.68071  0.13719  0.91567  1.0000
  C   C10       1.0  0.68071  0.63719  0.58433  1.0000
  C   C11       1.0  0.31929  0.86281  0.08433  1.0000
  C   C12       1.0  0.31928  0.36281  0.41567  1.0000
  C   C13       1.0  0.75293  0.23385  0.94351  1.0000
  C   C14       1.0  0.75293  0.73385  0.55649  1.0000
  C   C15       1.0  0.24708  0.76615  0.05649  1.0000
  C   C16       1.0  0.24707  0.26615  0.44352  1.0000
  C   C17       1.0  0.90002  0.24631  0.94350  1.0000
  C   C18       1.0  0.90003  0.74631  0.55650  1.0000
  C   C19       1.0  0.09998  0.75369  0.05650  1.0000
  C   C20       1.0  0.09997  0.25369  0.44350  1.0000
  C   C21       1.0  0.96999  0.16196  0.91695  1.0000
  C   C22       1.0  0.96999  0.66196  0.58305  1.0000
  C   C23       1.0  0.03001  0.83805  0.08304  1.0000
  C   C24       1.0  0.03001  0.33805  0.41695  1.0000
  C   C25       1.0  0.89160  0.06635  0.89092  1.0000
  C   C26       1.0  0.89159  0.56635  0.60908  1.0000
  C   C27       1.0  0.10841  0.93365  0.10908  1.0000
  C   C28       1.0  0.10840  0.43365  0.39092  1.0000
  C   C29       1.0  0.95638  0.97212  0.86352  1.0000
  C   C30       1.0  0.95638  0.47212  0.63648  1.0000
  C   C31       1.0  0.04363  0.02788  0.13648  1.0000
  C   C32       1.0  0.04362  0.52789  0.36352  1.0000
  C   C33       1.0  0.10217  0.96792  0.86277  1.0000
  C   C34       1.0  0.10217  0.46792  0.63723  1.0000
  C   C35       1.0  0.89783  0.03208  0.13723  1.0000
  C   C36       1.0  0.89782  0.53208  0.36277  1.0000
  C   C37       1.0  0.15138  0.87498  0.83427  1.0000
  C   C38       1.0  0.15138  0.37498  0.66573  1.0000
  C   C39       1.0  0.84863  0.12502  0.16573  1.0000
  C   C40       1.0  0.84862  0.62502  0.33427  1.0000
  C   C41       1.0  0.05505  0.78942  0.80613  1.0000
  C   C42       1.0  0.05505  0.28942  0.69388  1.0000
  C   C43       1.0  0.94495  0.21058  0.19387  1.0000
  C   C44       1.0  0.94495  0.71058  0.30612  1.0000
  C   C45       1.0  0.91144  0.79861  0.81041  1.0000
  C   C46       1.0  0.91144  0.29861  0.68959  1.0000
  C   C47       1.0  0.08856  0.20139  0.18959  1.0000
  C   C48       1.0  0.08856  0.70139  0.31041  1.0000
  N   N1        1.0  0.74836  0.05613  0.88975  1.0000
  N   N2        1.0  0.74835  0.55613  0.61025  1.0000
  N   N3        1.0  0.25165  0.94387  0.11025  1.0000
  N   N4        1.0  0.25164  0.44387  0.38975  1.0000
  N   N5        1.0  0.86405  0.88733  0.83903  1.0000
  N   N6        1.0  0.86404  0.38733  0.66097  1.0000
  N   N7        1.0  0.13596  0.11267  0.16097  1.0000
  N   N8        1.0  0.13595  0.61267  0.33903  1.0000
  O   O1        1.0  0.48076  0.94698  0.87072  1.0000
  O   O2        1.0  0.48076  0.44698  0.62928  1.0000
  O   O3        1.0  0.51924  0.05301  0.12929  1.0000
  O   O4        1.0  0.51923  0.55302  0.37071  1.0000
  O   O5        1.0  0.67849  0.97560  0.72477  1.0000
  O   O6        1.0  0.67849  0.47560  0.77523  1.0000
  O   O7        1.0  0.32151  0.02440  0.27524  1.0000
  O   O8        1.0  0.32151  0.52440  0.22477  1.0000
  O   O9        1.0  0.62178  0.86649  0.71672  1.0000
  O   O10       1.0  0.62178  0.36649  0.78328  1.0000
  O   O11       1.0  0.37822  0.13351  0.28329  1.0000
  O   O12       1.0  0.37822  0.63351  0.21671  1.0000
  O   O13       1.0  0.68329  0.88168  0.98869  1.0000
  O   O14       1.0  0.68329  0.38168  0.51131  1.0000
  O   O15       1.0  0.31672  0.11832  0.01131  1.0000
  O   O16       1.0  0.31671  0.61833  0.48869  1.0000
  O   O17       1.0  0.57413  0.75167  0.85981  1.0000
  O   O18       1.0  0.57413  0.25167  0.64019  1.0000
  O   O19       1.0  0.42587  0.24833  0.14019  1.0000
  O   O20       1.0  0.42587  0.74833  0.35981  1.0000
  O   O21       1.0  0.68546  0.75499  0.10127  1.0000
  O   O22       1.0  0.68546  0.25499  0.39873  1.0000
  O   O23       1.0  0.31455  0.24500  0.89873  1.0000
  O   O24       1.0  0.31454  0.74501  0.60127  1.0000
  O   O25       1.0  0.53657  0.61821  0.96610  1.0000
  O   O26       1.0  0.53657  0.11821  0.53390  1.0000
  O   O27       1.0  0.46343  0.38178  0.03390  1.0000
  O   O28       1.0  0.46343  0.88180  0.46609  1.0000
  O   O29       1.0  0.14817  0.04357  0.59517  1.0000
  O   O30       1.0  0.14817  0.54357  0.90483  1.0000
  O   O31       1.0  0.85182  0.95643  0.40483  1.0000
  O   O32       1.0  0.85183  0.45643  0.09517  1.0000
  O   O33       1.0  0.33172  0.14979  0.72423  1.0000
  O   O34       1.0  0.33172  0.64979  0.77577  1.0000
  O   O35       1.0  0.66828  0.85021  0.27577  1.0000
  O   O36       1.0  0.66828  0.35020  0.22423  1.0000
