data_image0
_chemical_formula_structural       Co2H36C54S2N2Cl2O12
_chemical_formula_sum              "Co2 H36 C54 S2 N2 Cl2 O12"
_cell_length_a       9.39995
_cell_length_b       11.3043
_cell_length_c       12.7932
_cell_angle_alpha    102.601
_cell_angle_beta     107.601
_cell_angle_gamma    107.245

_space_group_name_H-M_alt    "P 1"
_space_group_IT_number       1

loop_
  _space_group_symop_operation_xyz
  'x, y, z'

loop_
  _atom_site_type_symbol
  _atom_site_label
  _atom_site_symmetry_multiplicity
  _atom_site_fract_x
  _atom_site_fract_y
  _atom_site_fract_z
  _atom_site_occupancy
  Co  Co1       1.0  0.11963  0.59302  0.54659  1.0000
  Co  Co2       1.0  0.88037  0.40698  0.45340  1.0000
  H   H1        1.0  0.38425  0.75395  0.48726  1.0000
  H   H2        1.0  0.61574  0.24603  0.51274  1.0000
  H   H3        1.0  0.60190  0.97876  0.57144  1.0000
  H   H4        1.0  0.39809  0.02123  0.42856  1.0000
  H   H5        1.0  0.48626  0.03065  0.87681  1.0000
  H   H6        1.0  0.51374  0.96933  0.12319  1.0000
  H   H7        1.0  0.27672  0.80627  0.78025  1.0000
  H   H8        1.0  0.72327  0.19372  0.21974  1.0000
  H   H9        1.0  0.73530  0.19484  0.71970  1.0000
  H   H10       1.0  0.26470  0.80514  0.28030  1.0000
  H   H11       1.0  0.69859  0.20533  0.95257  1.0000
  H   H12       1.0  0.30140  0.79466  0.04743  1.0000
  H   H13       1.0  0.89135  0.39878  0.78445  1.0000
  H   H14       1.0  0.10865  0.60121  0.21554  1.0000
  H   H15       1.0  0.88262  0.38468  0.11697  1.0000
  H   H16       1.0  0.11737  0.61532  0.88303  1.0000
  H   H17       1.0  0.94717  0.19904  0.18035  1.0000
  H   H18       1.0  0.05284  0.80096  0.81965  1.0000
  H   H19       1.0  0.02874  0.10179  0.02899  1.0000
  H   H20       1.0  0.97127  0.89822  0.97101  1.0000
  H   H21       1.0  0.52871  0.36417  0.24092  1.0000
  H   H22       1.0  0.47129  0.63584  0.75908  1.0000
  H   H23       1.0  0.44202  0.47034  0.38810  1.0000
  H   H24       1.0  0.55798  0.52968  0.61191  1.0000
  H   H25       1.0  0.02527  0.07397  0.81845  1.0000
  H   H26       1.0  0.97474  0.92603  0.18156  1.0000
  H   H27       1.0  0.93416  0.17469  0.66844  1.0000
  H   H28       1.0  0.06584  0.82530  0.33157  1.0000
  H   H29       1.0  0.40343  0.49066  0.81991  1.0000
  H   H30       1.0  0.59656  0.50935  0.18009  1.0000
  H   H31       1.0  0.50023  0.38608  0.96477  1.0000
  H   H32       1.0  0.49978  0.61393  0.03523  1.0000
  H   H33       1.0  0.96959  0.15307  0.38929  1.0000
  H   H34       1.0  0.03042  0.84694  0.61071  1.0000
  H   H35       1.0  0.72677  0.96751  0.36559  1.0000
  H   H36       1.0  0.27324  0.03250  0.63441  1.0000
  C   C1        1.0  0.41062  0.81944  0.57314  1.0000
  C   C2        1.0  0.58937  0.18054  0.42686  1.0000
  C   C3        1.0  0.53172  0.94510  0.62085  1.0000
  C   C4        1.0  0.46828  0.05489  0.37915  1.0000
  C   C5        1.0  0.56388  0.02810  0.73211  1.0000
  C   C6        1.0  0.43611  0.97189  0.26788  1.0000
  C   C7        1.0  0.46924  0.97458  0.79013  1.0000
  C   C8        1.0  0.53075  0.02541  0.20987  1.0000
  C   C9        1.0  0.35069  0.84823  0.73640  1.0000
  C   C10       1.0  0.64930  0.15175  0.26360  1.0000
  C   C11       1.0  0.68700  0.16104  0.78037  1.0000
  C   C12       1.0  0.31300  0.83894  0.21964  1.0000
  C   C13       1.0  0.74535  0.24167  0.89223  1.0000
  C   C14       1.0  0.25464  0.75832  0.10777  1.0000
  C   C15       1.0  0.87136  0.37339  0.94363  1.0000
  C   C16       1.0  0.12862  0.62659  0.05636  1.0000
  C   C17       1.0  0.93898  0.44190  0.87904  1.0000
  C   C18       1.0  0.06102  0.55809  0.12096  1.0000
  C   C19       1.0  0.93463  0.43552  0.06572  1.0000
  C   C20       1.0  0.06536  0.56447  0.93428  1.0000
  C   C21       1.0  0.12893  0.40584  0.37657  1.0000
  C   C22       1.0  0.87107  0.59416  0.62343  1.0000
  C   C23       1.0  0.18812  0.34380  0.29262  1.0000
  C   C24       1.0  0.81189  0.65621  0.70738  1.0000
  C   C25       1.0  0.07383  0.23710  0.19272  1.0000
  C   C26       1.0  0.92618  0.76291  0.80728  1.0000
  C   C27       1.0  0.12031  0.18107  0.10778  1.0000
  C   C28       1.0  0.87970  0.81894  0.89222  1.0000
  C   C29       1.0  0.28370  0.22953  0.12466  1.0000
  C   C30       1.0  0.71630  0.77050  0.87534  1.0000
  C   C31       1.0  0.40074  0.33164  0.22599  1.0000
  C   C32       1.0  0.59926  0.66838  0.77401  1.0000
  C   C33       1.0  0.35198  0.38977  0.30938  1.0000
  C   C34       1.0  0.64802  0.61025  0.69062  1.0000
  C   C35       1.0  0.26639  0.22773  0.90215  1.0000
  C   C36       1.0  0.73363  0.77228  0.09785  1.0000
  C   C37       1.0  0.10683  0.16616  0.81945  1.0000
  C   C38       1.0  0.89318  0.83384  0.18054  1.0000
  C   C39       1.0  0.05581  0.22273  0.73643  1.0000
  C   C40       1.0  0.94419  0.77727  0.26357  1.0000
  C   C41       1.0  0.16115  0.34126  0.73783  1.0000
  C   C42       1.0  0.83885  0.65874  0.26218  1.0000
  C   C43       1.0  0.32119  0.40033  0.82058  1.0000
  C   C44       1.0  0.67880  0.59967  0.17941  1.0000
  C   C45       1.0  0.37497  0.34312  0.90207  1.0000
  C   C46       1.0  0.62504  0.65688  0.09793  1.0000
  C   C47       1.0  0.10337  0.40295  0.65072  1.0000
  C   C48       1.0  0.89662  0.59704  0.34928  1.0000
  C   C49       1.0  0.13525  0.10211  0.51214  1.0000
  C   C50       1.0  0.86476  0.89789  0.48786  1.0000
  C   C51       1.0  0.98272  0.08549  0.43686  1.0000
  C   C52       1.0  0.01729  0.91452  0.56315  1.0000
  C   C53       1.0  0.84634  0.98261  0.42502  1.0000
  C   C54       1.0  0.15367  0.01739  0.57498  1.0000
  S   S1        1.0  0.33842  0.16084  0.01108  1.0000
  S   S2        1.0  0.66158  0.83916  0.98891  1.0000
  N   N1        1.0  0.31935  0.77053  0.62905  1.0000
  N   N2        1.0  0.68064  0.22946  0.37095  1.0000
  Cl  Cl1       1.0  0.30544  0.23392  0.53204  1.0000
  Cl  Cl2       1.0  0.69457  0.76608  0.46796  1.0000
  O   O1        1.0  0.22048  0.51860  0.45421  1.0000
  O   O2        1.0  0.77951  0.48139  0.54578  1.0000
  O   O3        1.0  0.98342  0.34044  0.36272  1.0000
  O   O4        1.0  0.01658  0.65957  0.63728  1.0000
  O   O5        1.0  0.51393  0.21368  0.05212  1.0000
  O   O6        1.0  0.48608  0.78634  0.94789  1.0000
  O   O7        1.0  0.24690  0.01933  0.96530  1.0000
  O   O8        1.0  0.75312  0.98068  0.03472  1.0000
  O   O9        1.0  0.19792  0.51643  0.66031  1.0000
  O   O10       1.0  0.80207  0.48357  0.33969  1.0000
  O   O11       1.0  0.96066  0.33813  0.57124  1.0000
  O   O12       1.0  0.03933  0.66186  0.42875  1.0000
