data_image0
_chemical_formula_structural       Ag4H32C40Br4N8O12
_chemical_formula_sum              "Ag4 H32 C40 Br4 N8 O12"
_cell_length_a       7.13246
_cell_length_b       12.7553
_cell_length_c       14.1521
_cell_angle_alpha    113.603
_cell_angle_beta     90.0048
_cell_angle_gamma    89.9979

_space_group_name_H-M_alt    "P 1"
_space_group_IT_number       1

loop_
  _space_group_symop_operation_xyz
  'x, y, z'

loop_
  _atom_site_type_symbol
  _atom_site_label
  _atom_site_symmetry_multiplicity
  _atom_site_fract_x
  _atom_site_fract_y
  _atom_site_fract_z
  _atom_site_occupancy
  Ag  Ag1       1.0  0.78938  0.01342  0.46634  1.0000
  Ag  Ag2       1.0  0.71071  0.51346  0.96636  1.0000
  Ag  Ag3       1.0  0.21066  0.98655  0.53363  1.0000
  Ag  Ag4       1.0  0.28941  0.48656  0.03364  1.0000
  H   H1        1.0  0.75251  0.26207  0.49081  1.0000
  H   H2        1.0  0.74751  0.76209  0.99080  1.0000
  H   H3        1.0  0.24750  0.73793  0.50920  1.0000
  H   H4        1.0  0.25250  0.23792  0.00921  1.0000
  H   H5        1.0  0.75495  0.37312  0.37950  1.0000
  H   H6        1.0  0.74505  0.87314  0.87949  1.0000
  H   H7        1.0  0.24502  0.62687  0.62050  1.0000
  H   H8        1.0  0.25494  0.12687  0.12051  1.0000
  H   H9        1.0  0.90672  0.06011  0.12362  1.0000
  H   H10       1.0  0.59323  0.56012  0.62362  1.0000
  H   H11       1.0  0.09328  0.93988  0.87638  1.0000
  H   H12       1.0  0.40676  0.43988  0.37639  1.0000
  H   H13       1.0  0.91339  0.96465  0.24655  1.0000
  H   H14       1.0  0.58662  0.46466  0.74656  1.0000
  H   H15       1.0  0.08662  0.03535  0.75345  1.0000
  H   H16       1.0  0.41339  0.53534  0.25346  1.0000
  H   H17       1.0  0.90697  0.54420  0.16211  1.0000
  H   H18       1.0  0.59302  0.04418  0.66207  1.0000
  H   H19       1.0  0.09305  0.45581  0.83789  1.0000
  H   H20       1.0  0.40698  0.95580  0.33790  1.0000
  H   H21       1.0  0.93685  0.44801  0.28103  1.0000
  H   H22       1.0  0.56313  0.94800  0.78099  1.0000
  H   H23       1.0  0.06313  0.55199  0.71898  1.0000
  H   H24       1.0  0.43685  0.05202  0.21900  1.0000
  H   H25       1.0  0.70565  0.14385  0.04004  1.0000
  H   H26       1.0  0.79433  0.64384  0.54004  1.0000
  H   H27       1.0  0.29432  0.85615  0.95996  1.0000
  H   H28       1.0  0.20567  0.35616  0.45997  1.0000
  H   H29       1.0  0.67916  0.25469  0.93149  1.0000
  H   H30       1.0  0.82082  0.75466  0.43147  1.0000
  H   H31       1.0  0.32083  0.74532  0.06852  1.0000
  H   H32       1.0  0.17917  0.24532  0.56852  1.0000
  C   C1        1.0  0.78814  0.22168  0.40906  1.0000
  C   C2        1.0  0.71185  0.72171  0.90906  1.0000
  C   C3        1.0  0.21184  0.77831  0.59094  1.0000
  C   C4        1.0  0.28814  0.27831  0.09094  1.0000
  C   C5        1.0  0.78999  0.28239  0.34664  1.0000
  C   C6        1.0  0.71001  0.78241  0.84663  1.0000
  C   C7        1.0  0.20998  0.71760  0.65336  1.0000
  C   C8        1.0  0.28997  0.21760  0.15337  1.0000
  C   C9        1.0  0.82822  0.22558  0.24095  1.0000
  C   C10       1.0  0.67180  0.72558  0.74093  1.0000
  C   C11       1.0  0.17178  0.77442  0.75906  1.0000
  C   C12       1.0  0.32820  0.27443  0.25907  1.0000
  C   C13       1.0  0.87190  0.10887  0.20445  1.0000
  C   C14       1.0  0.62807  0.60888  0.70445  1.0000
  C   C15       1.0  0.12809  0.89113  0.79555  1.0000
  C   C16       1.0  0.37191  0.39113  0.29556  1.0000
  C   C17       1.0  0.87430  0.05433  0.27199  1.0000
  C   C18       1.0  0.62570  0.55435  0.77200  1.0000
  C   C19       1.0  0.12570  0.94567  0.72801  1.0000
  C   C20       1.0  0.37431  0.44566  0.22802  1.0000
  C   C21       1.0  0.86263  0.45566  0.13809  1.0000
  C   C22       1.0  0.63736  0.95564  0.63807  1.0000
  C   C23       1.0  0.13740  0.54434  0.86190  1.0000
  C   C24       1.0  0.36262  0.04435  0.36191  1.0000
  C   C25       1.0  0.87757  0.40060  0.20479  1.0000
  C   C26       1.0  0.62239  0.90059  0.70475  1.0000
  C   C27       1.0  0.12242  0.59940  0.79521  1.0000
  C   C28       1.0  0.37757  0.09941  0.29523  1.0000
  C   C29       1.0  0.82094  0.28620  0.17156  1.0000
  C   C30       1.0  0.67903  0.78619  0.67155  1.0000
  C   C31       1.0  0.17903  0.71380  0.82844  1.0000
  C   C32       1.0  0.32094  0.21381  0.32845  1.0000
  C   C33       1.0  0.75493  0.23208  0.07002  1.0000
  C   C34       1.0  0.74506  0.73207  0.57000  1.0000
  C   C35       1.0  0.24506  0.76792  0.92998  1.0000
  C   C36       1.0  0.25493  0.26792  0.42999  1.0000
  C   C37       1.0  0.74092  0.29340  0.00826  1.0000
  C   C38       1.0  0.75907  0.79337  0.50824  1.0000
  C   C39       1.0  0.25908  0.70661  0.99174  1.0000
  C   C40       1.0  0.24091  0.20661  0.49175  1.0000
  Br  Br1       1.0  0.17512  0.74673  0.29778  1.0000
  Br  Br2       1.0  0.32491  0.24678  0.79781  1.0000
  Br  Br3       1.0  0.82491  0.25324  0.70221  1.0000
  Br  Br4       1.0  0.67512  0.75325  0.20220  1.0000
  N   N1        1.0  0.82886  0.10905  0.37241  1.0000
  N   N2        1.0  0.67118  0.60907  0.87241  1.0000
  N   N3        1.0  0.17115  0.89094  0.62759  1.0000
  N   N4        1.0  0.32885  0.39093  0.12760  1.0000
  N   N5        1.0  0.79187  0.40402  0.04211  1.0000
  N   N6        1.0  0.70813  0.90399  0.54208  1.0000
  N   N7        1.0  0.20815  0.59598  0.95789  1.0000
  N   N8        1.0  0.29187  0.09598  0.45789  1.0000
  O   O1        1.0  0.03576  0.86466  0.34665  1.0000
  O   O2        1.0  0.46430  0.36469  0.84671  1.0000
  O   O3        1.0  0.96426  0.13531  0.65330  1.0000
  O   O4        1.0  0.53574  0.63534  0.15335  1.0000
  O   O5        1.0  0.36846  0.78520  0.37292  1.0000
  O   O6        1.0  0.13154  0.28525  0.87292  1.0000
  O   O7        1.0  0.63150  0.21480  0.62711  1.0000
  O   O8        1.0  0.86846  0.71476  0.12707  1.0000
  O   O9        1.0  0.06846  0.64663  0.32812  1.0000
  O   O10       1.0  0.43152  0.14665  0.82815  1.0000
  O   O11       1.0  0.93153  0.35336  0.67186  1.0000
  O   O12       1.0  0.56847  0.85335  0.17185  1.0000
