data_image0
_chemical_formula_structural       Zn4H40C56S8O20
_chemical_formula_sum              "Zn4 H40 C56 S8 O20"
_cell_length_a       10.9868
_cell_length_b       11.5576
_cell_length_c       17.2715
_cell_angle_alpha    90
_cell_angle_beta     90
_cell_angle_gamma    95.9731

_space_group_name_H-M_alt    "P 1"
_space_group_IT_number       1

loop_
  _space_group_symop_operation_xyz
  'x, y, z'

loop_
  _atom_site_type_symbol
  _atom_site_label
  _atom_site_symmetry_multiplicity
  _atom_site_fract_x
  _atom_site_fract_y
  _atom_site_fract_z
  _atom_site_occupancy
  Zn  Zn1       1.0  0.92456  0.89802  0.99212  1.0000
  Zn  Zn2       1.0  0.92457  0.39804  0.50787  1.0000
  Zn  Zn3       1.0  0.07543  0.10196  0.00788  1.0000
  Zn  Zn4       1.0  0.07544  0.60198  0.49212  1.0000
  H   H1        1.0  0.49546  0.86691  0.24134  1.0000
  H   H2        1.0  0.49547  0.36693  0.25866  1.0000
  H   H3        1.0  0.50453  0.13308  0.75866  1.0000
  H   H4        1.0  0.50454  0.63309  0.74134  1.0000
  H   H5        1.0  0.38967  0.71736  0.32680  1.0000
  H   H6        1.0  0.38969  0.21737  0.17321  1.0000
  H   H7        1.0  0.61031  0.28263  0.67321  1.0000
  H   H8        1.0  0.61032  0.78263  0.82680  1.0000
  H   H9        1.0  0.17160  0.64380  0.30336  1.0000
  H   H10       1.0  0.17162  0.14380  0.19666  1.0000
  H   H11       1.0  0.82839  0.35619  0.69665  1.0000
  H   H12       1.0  0.82840  0.85619  0.80336  1.0000
  H   H13       1.0  0.06025  0.72718  0.19276  1.0000
  H   H14       1.0  0.06027  0.22720  0.30725  1.0000
  H   H15       1.0  0.93974  0.27279  0.80725  1.0000
  H   H16       1.0  0.93975  0.77281  0.69276  1.0000
  H   H17       1.0  0.49487  0.06852  0.24852  1.0000
  H   H18       1.0  0.49489  0.56855  0.25147  1.0000
  H   H19       1.0  0.50512  0.93146  0.75147  1.0000
  H   H20       1.0  0.50513  0.43147  0.74852  1.0000
  H   H21       1.0  0.58612  0.21211  0.34243  1.0000
  H   H22       1.0  0.58617  0.71212  0.15755  1.0000
  H   H23       1.0  0.41384  0.78788  0.65755  1.0000
  H   H24       1.0  0.41386  0.28788  0.84242  1.0000
  H   H25       1.0  0.80402  0.29876  0.32740  1.0000
  H   H26       1.0  0.80407  0.79876  0.17259  1.0000
  H   H27       1.0  0.19594  0.70124  0.67259  1.0000
  H   H28       1.0  0.19596  0.20124  0.82740  1.0000
  H   H29       1.0  0.92858  0.22911  0.21842  1.0000
  H   H30       1.0  0.92861  0.72912  0.28159  1.0000
  H   H31       1.0  0.07140  0.77088  0.78159  1.0000
  H   H32       1.0  0.07140  0.27090  0.71842  1.0000
  H   H33       1.0  0.72727  0.76571  0.02099  1.0000
  H   H34       1.0  0.72728  0.26574  0.47901  1.0000
  H   H35       1.0  0.27272  0.23426  0.97901  1.0000
  H   H36       1.0  0.27273  0.73430  0.52099  1.0000
  H   H37       1.0  0.83834  0.70075  0.04500  1.0000
  H   H38       1.0  0.83835  0.20077  0.45501  1.0000
  H   H39       1.0  0.16165  0.29923  0.95501  1.0000
  H   H40       1.0  0.16166  0.79924  0.54500  1.0000
  C   C1        1.0  0.33609  0.88761  0.17170  1.0000
  C   C2        1.0  0.33611  0.38763  0.32830  1.0000
  C   C3        1.0  0.66390  0.11237  0.82830  1.0000
  C   C4        1.0  0.66390  0.61238  0.67170  1.0000
  C   C5        1.0  0.39872  0.83878  0.23212  1.0000
  C   C6        1.0  0.39873  0.33880  0.26788  1.0000
  C   C7        1.0  0.60127  0.16120  0.76788  1.0000
  C   C8        1.0  0.60128  0.66121  0.73212  1.0000
  C   C9        1.0  0.33931  0.75327  0.27968  1.0000
  C   C10       1.0  0.33933  0.25328  0.22032  1.0000
  C   C11       1.0  0.66067  0.24672  0.72032  1.0000
  C   C12       1.0  0.66068  0.74672  0.77969  1.0000
  C   C13       1.0  0.21712  0.71147  0.26644  1.0000
  C   C14       1.0  0.21714  0.21148  0.23357  1.0000
  C   C15       1.0  0.78286  0.28852  0.73357  1.0000
  C   C16       1.0  0.78287  0.78852  0.76644  1.0000
  C   C17       1.0  0.15500  0.75827  0.20574  1.0000
  C   C18       1.0  0.15502  0.25828  0.29427  1.0000
  C   C19       1.0  0.84499  0.24171  0.79426  1.0000
  C   C20       1.0  0.84500  0.74173  0.70575  1.0000
  C   C21       1.0  0.21132  0.84784  0.15928  1.0000
  C   C22       1.0  0.21134  0.34786  0.34073  1.0000
  C   C23       1.0  0.78867  0.15214  0.84072  1.0000
  C   C24       1.0  0.78868  0.65216  0.65928  1.0000
  C   C25       1.0  0.13619  0.90078  0.09984  1.0000
  C   C26       1.0  0.13620  0.40079  0.40017  1.0000
  C   C27       1.0  0.86380  0.09920  0.90016  1.0000
  C   C28       1.0  0.86381  0.59922  0.59984  1.0000
  C   C29       1.0  0.66081  0.06220  0.18227  1.0000
  C   C30       1.0  0.66082  0.56222  0.31772  1.0000
  C   C31       1.0  0.33918  0.93778  0.81773  1.0000
  C   C32       1.0  0.33919  0.43781  0.68228  1.0000
  C   C33       1.0  0.59140  0.10061  0.24345  1.0000
  C   C34       1.0  0.59143  0.60063  0.25653  1.0000
  C   C35       1.0  0.40858  0.89938  0.75653  1.0000
  C   C36       1.0  0.40859  0.39939  0.74346  1.0000
  C   C37       1.0  0.64328  0.18256  0.29631  1.0000
  C   C38       1.0  0.64332  0.68258  0.20368  1.0000
  C   C39       1.0  0.35669  0.81743  0.70368  1.0000
  C   C40       1.0  0.35671  0.31743  0.79631  1.0000
  C   C41       1.0  0.76501  0.23030  0.28845  1.0000
  C   C42       1.0  0.76505  0.73031  0.21154  1.0000
  C   C43       1.0  0.23496  0.76969  0.71154  1.0000
  C   C44       1.0  0.23498  0.26970  0.78845  1.0000
  C   C45       1.0  0.83438  0.19252  0.22785  1.0000
  C   C46       1.0  0.83441  0.69253  0.27215  1.0000
  C   C47       1.0  0.16560  0.80746  0.77215  1.0000
  C   C48       1.0  0.16560  0.30749  0.72785  1.0000
  C   C49       1.0  0.78521  0.10745  0.17554  1.0000
  C   C50       1.0  0.78523  0.60748  0.32446  1.0000
  C   C51       1.0  0.21478  0.89252  0.82446  1.0000
  C   C52       1.0  0.21478  0.39256  0.67554  1.0000
  C   C53       1.0  0.86590  0.06867  0.11352  1.0000
  C   C54       1.0  0.86590  0.56868  0.38648  1.0000
  C   C55       1.0  0.13410  0.93131  0.88648  1.0000
  C   C56       1.0  0.13411  0.43136  0.61353  1.0000
  S   S1        1.0  0.41145  0.99385  0.10829  1.0000
  S   S2        1.0  0.41147  0.49387  0.39171  1.0000
  S   S3        1.0  0.58853  0.00613  0.89171  1.0000
  S   S4        1.0  0.58854  0.50615  0.60829  1.0000
  S   S5        1.0  0.59287  0.96464  0.11064  1.0000
  S   S6        1.0  0.59288  0.46466  0.38936  1.0000
  S   S7        1.0  0.40712  0.03534  0.88936  1.0000
  S   S8        1.0  0.40713  0.53536  0.61064  1.0000
  O   O1        1.0  0.04153  0.84044  0.07342  1.0000
  O   O2        1.0  0.04155  0.34045  0.42659  1.0000
  O   O3        1.0  0.95845  0.15954  0.92659  1.0000
  O   O4        1.0  0.95847  0.65956  0.57342  1.0000
  O   O5        1.0  0.17182  0.00595  0.08059  1.0000
  O   O6        1.0  0.17182  0.50597  0.41940  1.0000
  O   O7        1.0  0.82818  0.99402  0.91940  1.0000
  O   O8        1.0  0.82818  0.49406  0.58058  1.0000
  O   O9        1.0  0.83374  0.96913  0.08336  1.0000
  O   O10       1.0  0.83376  0.46914  0.41663  1.0000
  O   O11       1.0  0.16624  0.03086  0.91663  1.0000
  O   O12       1.0  0.16626  0.53089  0.58336  1.0000
  O   O13       1.0  0.96096  0.13592  0.09526  1.0000
  O   O14       1.0  0.96096  0.63595  0.40475  1.0000
  O   O15       1.0  0.03904  0.86405  0.90475  1.0000
  O   O16       1.0  0.03904  0.36410  0.59526  1.0000
  O   O17       1.0  0.80573  0.74402  0.00247  1.0000
  O   O18       1.0  0.80574  0.24405  0.49753  1.0000
  O   O19       1.0  0.19426  0.25595  0.99753  1.0000
  O   O20       1.0  0.19427  0.75598  0.50247  1.0000
