data_image0
_chemical_formula_structural       Li4H16C20S4N4O12
_chemical_formula_sum              "Li4 H16 C20 S4 N4 O12"
_cell_length_a       7.64709
_cell_length_b       8.77154
_cell_length_c       10.3619
_cell_angle_alpha    80.7792
_cell_angle_beta     71.7624
_cell_angle_gamma    82.3856

_space_group_name_H-M_alt    "P 1"
_space_group_IT_number       1

loop_
  _space_group_symop_operation_xyz
  'x, y, z'

loop_
  _atom_site_type_symbol
  _atom_site_label
  _atom_site_symmetry_multiplicity
  _atom_site_fract_x
  _atom_site_fract_y
  _atom_site_fract_z
  _atom_site_occupancy
  Li  Li1       1.0  0.44635  0.82609  0.88943  1.0000
  Li  Li2       1.0  0.55366  0.17391  0.11057  1.0000
  Li  Li3       1.0  0.62400  0.31932  0.62416  1.0000
  Li  Li4       1.0  0.37600  0.68068  0.37585  1.0000
  H   H1        1.0  0.63040  0.99666  0.41064  1.0000
  H   H2        1.0  0.36960  0.00334  0.58936  1.0000
  H   H3        1.0  0.90762  0.13288  0.27188  1.0000
  H   H4        1.0  0.09238  0.86712  0.72812  1.0000
  H   H5        1.0  0.00102  0.61600  0.51646  1.0000
  H   H6        1.0  0.99898  0.38401  0.48354  1.0000
  H   H7        1.0  0.22688  0.48522  0.76087  1.0000
  H   H8        1.0  0.77312  0.51478  0.23913  1.0000
  H   H9        1.0  0.90787  0.61578  0.76714  1.0000
  H   H10       1.0  0.09213  0.38422  0.23286  1.0000
  H   H11       1.0  0.63288  0.48218  0.90828  1.0000
  H   H12       1.0  0.36711  0.51783  0.09173  1.0000
  H   H13       1.0  0.95342  0.11123  0.04414  1.0000
  H   H14       1.0  0.04658  0.88878  0.95587  1.0000
  H   H15       1.0  0.22264  0.99893  0.25594  1.0000
  H   H16       1.0  0.77736  0.00108  0.74406  1.0000
  C   C1        1.0  0.79551  0.79667  0.47628  1.0000
  C   C2        1.0  0.20449  0.20333  0.52372  1.0000
  C   C3        1.0  0.76822  0.94282  0.40596  1.0000
  C   C4        1.0  0.23178  0.05718  0.59403  1.0000
  C   C5        1.0  0.92348  0.01802  0.32722  1.0000
  C   C6        1.0  0.07652  0.98198  0.67278  1.0000
  C   C7        1.0  0.09876  0.94394  0.31900  1.0000
  C   C8        1.0  0.90124  0.05606  0.68100  1.0000
  C   C9        1.0  0.97555  0.73075  0.46369  1.0000
  C   C10       1.0  0.02445  0.26925  0.53631  1.0000
  C   C11       1.0  0.11209  0.28897  0.90255  1.0000
  C   C12       1.0  0.88791  0.71104  0.09745  1.0000
  C   C13       1.0  0.10123  0.43221  0.82292  1.0000
  C   C14       1.0  0.89877  0.56778  0.17708  1.0000
  C   C15       1.0  0.92621  0.50358  0.82591  1.0000
  C   C16       1.0  0.07379  0.49642  0.17409  1.0000
  C   C17       1.0  0.77071  0.42971  0.90674  1.0000
  C   C18       1.0  0.22929  0.57029  0.09326  1.0000
  C   C19       1.0  0.94948  0.22321  0.98127  1.0000
  C   C20       1.0  0.05052  0.77679  0.01873  1.0000
  S   S1        1.0  0.60563  0.69423  0.58349  1.0000
  S   S2        1.0  0.39438  0.30576  0.41651  1.0000
  S   S3        1.0  0.32995  0.18965  0.90619  1.0000
  S   S4        1.0  0.67005  0.81035  0.09381  1.0000
  N   N1        1.0  0.12485  0.80205  0.38588  1.0000
  N   N2        1.0  0.87515  0.19795  0.61413  1.0000
  N   N3        1.0  0.78075  0.29193  0.98412  1.0000
  N   N4        1.0  0.21925  0.70807  0.01589  1.0000
  O   O1        1.0  0.67830  0.53110  0.58974  1.0000
  O   O2        1.0  0.32171  0.46890  0.41025  1.0000
  O   O3        1.0  0.55450  0.75360  0.71593  1.0000
  O   O4        1.0  0.44551  0.24639  0.28407  1.0000
  O   O5        1.0  0.45770  0.73116  0.51849  1.0000
  O   O6        1.0  0.54230  0.26883  0.48152  1.0000
  O   O7        1.0  0.46861  0.28212  0.80527  1.0000
  O   O8        1.0  0.53138  0.71789  0.19474  1.0000
  O   O9        1.0  0.32771  0.03440  0.87128  1.0000
  O   O10       1.0  0.67229  0.96560  0.12872  1.0000
  O   O11       1.0  0.33779  0.18665  0.04658  1.0000
  O   O12       1.0  0.66220  0.81334  0.95343  1.0000
