data_image0
_chemical_formula_structural       Ag4H36C24I4N8
_chemical_formula_sum              "Ag4 H36 C24 I4 N8"
_cell_length_a       4.64112
_cell_length_b       9.77641
_cell_length_c       18.234
_cell_angle_alpha    96.4182
_cell_angle_beta     90
_cell_angle_gamma    89.9999

_space_group_name_H-M_alt    "P 1"
_space_group_IT_number       1

loop_
  _space_group_symop_operation_xyz
  'x, y, z'

loop_
  _atom_site_type_symbol
  _atom_site_label
  _atom_site_symmetry_multiplicity
  _atom_site_fract_x
  _atom_site_fract_y
  _atom_site_fract_z
  _atom_site_occupancy
  Ag  Ag1       1.0  0.43183  0.19502  0.19892  1.0000
  Ag  Ag2       1.0  0.93183  0.30498  0.30108  1.0000
  Ag  Ag3       1.0  0.56817  0.80498  0.80109  1.0000
  Ag  Ag4       1.0  0.06817  0.69502  0.69892  1.0000
  H   H1        1.0  0.87702  0.94931  0.24545  1.0000
  H   H2        1.0  0.37702  0.55069  0.25455  1.0000
  H   H3        1.0  0.12298  0.05069  0.75455  1.0000
  H   H4        1.0  0.62298  0.44931  0.74545  1.0000
  H   H5        1.0  0.81688  0.66877  0.19850  1.0000
  H   H6        1.0  0.31688  0.83123  0.30150  1.0000
  H   H7        1.0  0.18311  0.33123  0.80150  1.0000
  H   H8        1.0  0.68311  0.16877  0.69850  1.0000
  H   H9        1.0  0.29560  0.89071  0.00278  1.0000
  H   H10       1.0  0.79560  0.60929  0.49722  1.0000
  H   H11       1.0  0.70440  0.10929  0.99722  1.0000
  H   H12       1.0  0.20440  0.39071  0.50278  1.0000
  H   H13       1.0  0.14533  0.01894  0.06948  1.0000
  H   H14       1.0  0.64533  0.48107  0.43052  1.0000
  H   H15       1.0  0.85467  0.98107  0.93052  1.0000
  H   H16       1.0  0.35467  0.51894  0.56948  1.0000
  H   H17       1.0  0.00817  0.84830  0.05994  1.0000
  H   H18       1.0  0.50817  0.65170  0.44006  1.0000
  H   H19       1.0  0.99183  0.15170  0.94006  1.0000
  H   H20       1.0  0.49183  0.34830  0.55994  1.0000
  H   H21       1.0  0.78929  0.55308  0.03221  1.0000
  H   H22       1.0  0.28928  0.94692  0.46779  1.0000
  H   H23       1.0  0.21071  0.44692  0.96779  1.0000
  H   H24       1.0  0.71071  0.05309  0.53221  1.0000
  H   H25       1.0  0.55629  0.64558  0.97857  1.0000
  H   H26       1.0  0.05628  0.85442  0.52143  1.0000
  H   H27       1.0  0.44372  0.35442  0.02143  1.0000
  H   H28       1.0  0.94371  0.14558  0.47857  1.0000
  H   H29       1.0  0.16903  0.63583  0.07467  1.0000
  H   H30       1.0  0.66903  0.86417  0.42533  1.0000
  H   H31       1.0  0.83097  0.36417  0.92533  1.0000
  H   H32       1.0  0.33097  0.13583  0.57467  1.0000
  H   H33       1.0  0.40168  0.54173  0.12675  1.0000
  H   H34       1.0  0.90168  0.95827  0.37325  1.0000
  H   H35       1.0  0.59832  0.45827  0.87325  1.0000
  H   H36       1.0  0.09832  0.04173  0.62675  1.0000
  C   C1        1.0  0.41529  0.87777  0.11567  1.0000
  C   C2        1.0  0.91529  0.62223  0.38433  1.0000
  C   C3        1.0  0.58471  0.12223  0.88433  1.0000
  C   C4        1.0  0.08471  0.37777  0.61567  1.0000
  C   C5        1.0  0.73795  0.89689  0.20360  1.0000
  C   C6        1.0  0.23794  0.60311  0.29640  1.0000
  C   C7        1.0  0.26205  0.10311  0.79640  1.0000
  C   C8        1.0  0.76205  0.39689  0.70360  1.0000
  C   C9        1.0  0.71248  0.75873  0.18080  1.0000
  C   C10       1.0  0.21248  0.74126  0.31920  1.0000
  C   C11       1.0  0.28752  0.24126  0.81920  1.0000
  C   C12       1.0  0.78751  0.25874  0.68080  1.0000
  C   C13       1.0  0.20531  0.91011  0.05881  1.0000
  C   C14       1.0  0.70530  0.58989  0.44119  1.0000
  C   C15       1.0  0.79470  0.08989  0.94119  1.0000
  C   C16       1.0  0.29470  0.41011  0.55881  1.0000
  C   C17       1.0  0.56197  0.56797  0.01791  1.0000
  C   C18       1.0  0.06196  0.93203  0.48209  1.0000
  C   C19       1.0  0.43804  0.43203  0.98209  1.0000
  C   C20       1.0  0.93803  0.06797  0.51791  1.0000
  C   C21       1.0  0.39646  0.61935  0.08767  1.0000
  C   C22       1.0  0.89646  0.88065  0.41233  1.0000
  C   C23       1.0  0.60354  0.38065  0.91233  1.0000
  C   C24       1.0  0.10354  0.11935  0.58767  1.0000
  I   I1        1.0  0.44425  0.18155  0.35847  1.0000
  I   I2        1.0  0.94424  0.31845  0.14154  1.0000
  I   I3        1.0  0.55576  0.81845  0.64154  1.0000
  I   I4        1.0  0.05575  0.68155  0.85847  1.0000
  N   N1        1.0  0.55190  0.96953  0.16328  1.0000
  N   N2        1.0  0.05190  0.53047  0.33672  1.0000
  N   N3        1.0  0.44810  0.03047  0.83672  1.0000
  N   N4        1.0  0.94810  0.46953  0.66328  1.0000
  N   N5        1.0  0.50677  0.74789  0.12542  1.0000
  N   N6        1.0  0.00677  0.75211  0.37458  1.0000
  N   N7        1.0  0.49323  0.25211  0.87458  1.0000
  N   N8        1.0  0.99323  0.24789  0.62542  1.0000
