data_image0
_chemical_formula_structural       Ag4H36C24Br4N8
_chemical_formula_sum              "Ag4 H36 C24 Br4 N8"
_cell_length_a       4.57521
_cell_length_b       9.49436
_cell_length_c       17.8785
_cell_angle_alpha    93.9376
_cell_angle_beta     90.0001
_cell_angle_gamma    89.9998

_space_group_name_H-M_alt    "P 1"
_space_group_IT_number       1

loop_
  _space_group_symop_operation_xyz
  'x, y, z'

loop_
  _atom_site_type_symbol
  _atom_site_label
  _atom_site_symmetry_multiplicity
  _atom_site_fract_x
  _atom_site_fract_y
  _atom_site_fract_z
  _atom_site_occupancy
  Ag  Ag1       1.0  0.91639  0.30347  0.30898  1.0000
  Ag  Ag2       1.0  0.41636  0.19653  0.19101  1.0000
  Ag  Ag3       1.0  0.08363  0.69654  0.69102  1.0000
  Ag  Ag4       1.0  0.58363  0.80347  0.80897  1.0000
  H   H1        1.0  0.39919  0.54235  0.25738  1.0000
  H   H2        1.0  0.89919  0.95766  0.24261  1.0000
  H   H3        1.0  0.60080  0.45765  0.74261  1.0000
  H   H4        1.0  0.10080  0.04235  0.75738  1.0000
  H   H5        1.0  0.63854  0.48178  0.43499  1.0000
  H   H6        1.0  0.13852  0.01821  0.06501  1.0000
  H   H7        1.0  0.36147  0.51822  0.56502  1.0000
  H   H8        1.0  0.86145  0.98177  0.93498  1.0000
  H   H9        1.0  0.52345  0.66093  0.44500  1.0000
  H   H10       1.0  0.02344  0.83906  0.05500  1.0000
  H   H11       1.0  0.47656  0.33906  0.55500  1.0000
  H   H12       1.0  0.97655  0.16092  0.94499  1.0000
  H   H13       1.0  0.80902  0.60275  0.50235  1.0000
  H   H14       1.0  0.30900  0.89724  0.99764  1.0000
  H   H15       1.0  0.19100  0.39725  0.49765  1.0000
  H   H16       1.0  0.69098  0.10274  0.00235  1.0000
  H   H17       1.0  0.34806  0.83139  0.29804  1.0000
  H   H18       1.0  0.84805  0.66862  0.20196  1.0000
  H   H19       1.0  0.65194  0.16862  0.70195  1.0000
  H   H20       1.0  0.15194  0.33139  0.79804  1.0000
  H   H21       1.0  0.29555  0.93105  0.47936  1.0000
  H   H22       1.0  0.79553  0.56894  0.02065  1.0000
  H   H23       1.0  0.70447  0.06895  0.52065  1.0000
  H   H24       1.0  0.20445  0.43105  0.97936  1.0000
  H   H25       1.0  0.00576  0.84814  0.52477  1.0000
  H   H26       1.0  0.50574  0.65185  0.97524  1.0000
  H   H27       1.0  0.99428  0.15185  0.47524  1.0000
  H   H28       1.0  0.49424  0.34814  0.02477  1.0000
  H   H29       1.0  0.68230  0.87985  0.41303  1.0000
  H   H30       1.0  0.18228  0.62015  0.08697  1.0000
  H   H31       1.0  0.31773  0.12015  0.58697  1.0000
  H   H32       1.0  0.81771  0.37985  0.91303  1.0000
  H   H33       1.0  0.96741  0.96902  0.36978  1.0000
  H   H34       1.0  0.46740  0.53098  0.13023  1.0000
  H   H35       1.0  0.03260  0.03098  0.63023  1.0000
  H   H36       1.0  0.53259  0.46902  0.86978  1.0000
  C   C1        1.0  0.93058  0.62174  0.38729  1.0000
  C   C2        1.0  0.43057  0.87826  0.11271  1.0000
  C   C3        1.0  0.06943  0.37826  0.61271  1.0000
  C   C4        1.0  0.56942  0.12174  0.88729  1.0000
  C   C5        1.0  0.26017  0.59799  0.29865  1.0000
  C   C6        1.0  0.76016  0.90202  0.20135  1.0000
  C   C7        1.0  0.73983  0.40202  0.70135  1.0000
  C   C8        1.0  0.23983  0.09800  0.79865  1.0000
  C   C9        1.0  0.71416  0.59085  0.44566  1.0000
  C   C10       1.0  0.21414  0.90915  0.05434  1.0000
  C   C11       1.0  0.28586  0.40915  0.55434  1.0000
  C   C12       1.0  0.78584  0.09084  0.94566  1.0000
  C   C13       1.0  0.23951  0.74000  0.31836  1.0000
  C   C14       1.0  0.73951  0.76001  0.18163  1.0000
  C   C15       1.0  0.76047  0.26000  0.68163  1.0000
  C   C16       1.0  0.26049  0.24000  0.81836  1.0000
  C   C17       1.0  0.05605  0.92798  0.48481  1.0000
  C   C18       1.0  0.55603  0.57202  0.01520  1.0000
  C   C19       1.0  0.94398  0.07202  0.51520  1.0000
  C   C20       1.0  0.44395  0.42798  0.98481  1.0000
  C   C21       1.0  0.92118  0.88720  0.40860  1.0000
  C   C22       1.0  0.42116  0.61280  0.09141  1.0000
  C   C23       1.0  0.07885  0.11281  0.59141  1.0000
  C   C24       1.0  0.57883  0.38720  0.90860  1.0000
  Br  Br1       1.0  0.94405  0.32901  0.15014  1.0000
  Br  Br2       1.0  0.44406  0.17100  0.34985  1.0000
  Br  Br3       1.0  0.05595  0.67100  0.84986  1.0000
  Br  Br4       1.0  0.55595  0.82900  0.65014  1.0000
  N   N1        1.0  0.02921  0.75368  0.37404  1.0000
  N   N2        1.0  0.52920  0.74633  0.12596  1.0000
  N   N3        1.0  0.97080  0.24633  0.62596  1.0000
  N   N4        1.0  0.47078  0.25367  0.87404  1.0000
  N   N5        1.0  0.06669  0.52583  0.34132  1.0000
  N   N6        1.0  0.56667  0.97418  0.15867  1.0000
  N   N7        1.0  0.93332  0.47418  0.65867  1.0000
  N   N8        1.0  0.43331  0.02583  0.84132  1.0000
