data_image0
_chemical_formula_structural       Cu2H18C20I2N2
_chemical_formula_sum              "Cu2 H18 C20 I2 N2"
_cell_length_a       4.34679
_cell_length_b       9.83432
_cell_length_c       11.0922
_cell_angle_alpha    87.962
_cell_angle_beta     82.9452
_cell_angle_gamma    79.9237

_space_group_name_H-M_alt    "P 1"
_space_group_IT_number       1

loop_
  _space_group_symop_operation_xyz
  'x, y, z'

loop_
  _atom_site_type_symbol
  _atom_site_label
  _atom_site_symmetry_multiplicity
  _atom_site_fract_x
  _atom_site_fract_y
  _atom_site_fract_z
  _atom_site_occupancy
  Cu  Cu1       1.0  0.87825  0.39826  0.96864  1.0000
  Cu  Cu2       1.0  0.12177  0.60175  0.03137  1.0000
  H   H1        1.0  0.74155  0.12034  0.95535  1.0000
  H   H2        1.0  0.25846  0.87967  0.04466  1.0000
  H   H3        1.0  0.98375  0.89987  0.85020  1.0000
  H   H4        1.0  0.01624  0.10014  0.14981  1.0000
  H   H5        1.0  0.41285  0.90402  0.67787  1.0000
  H   H6        1.0  0.58712  0.09598  0.32213  1.0000
  H   H7        1.0  0.72940  0.04580  0.53675  1.0000
  H   H8        1.0  0.27056  0.95419  0.46325  1.0000
  H   H9        1.0  0.64906  0.47975  0.60170  1.0000
  H   H10       1.0  0.35096  0.52024  0.39829  1.0000
  H   H11       1.0  0.24386  0.46396  0.77650  1.0000
  H   H12       1.0  0.75616  0.53604  0.22350  1.0000
  H   H13       1.0  0.06083  0.17774  0.40892  1.0000
  H   H14       1.0  0.93916  0.82224  0.59108  1.0000
  H   H15       1.0  0.12345  0.33578  0.46658  1.0000
  H   H16       1.0  0.87656  0.66421  0.53341  1.0000
  H   H17       1.0  0.82811  0.33574  0.37046  1.0000
  H   H18       1.0  0.17189  0.66425  0.62953  1.0000
  C   C1        1.0  0.93013  0.11934  0.88051  1.0000
  C   C2        1.0  0.06987  0.88067  0.11949  1.0000
  C   C3        1.0  0.06621  0.99560  0.82060  1.0000
  C   C4        1.0  0.93377  0.00441  0.17941  1.0000
  C   C5        1.0  0.29969  0.99839  0.72513  1.0000
  C   C6        1.0  0.70028  0.00162  0.27487  1.0000
  C   C7        1.0  0.39187  0.12586  0.68784  1.0000
  C   C8        1.0  0.60812  0.87415  0.31217  1.0000
  C   C9        1.0  0.62134  0.13849  0.58758  1.0000
  C   C10       1.0  0.37864  0.86151  0.41242  1.0000
  C   C11       1.0  0.70979  0.26392  0.55350  1.0000
  C   C12       1.0  0.29020  0.73608  0.44650  1.0000
  C   C13       1.0  0.57113  0.38139  0.62434  1.0000
  C   C14       1.0  0.42889  0.61861  0.37566  1.0000
  C   C15       1.0  0.34640  0.37344  0.72201  1.0000
  C   C16       1.0  0.65362  0.62656  0.27799  1.0000
  C   C17       1.0  0.24791  0.24638  0.75539  1.0000
  C   C18       1.0  0.75209  0.75363  0.24461  1.0000
  C   C19       1.0  0.94300  0.27847  0.44452  1.0000
  C   C20       1.0  0.05700  0.72152  0.55547  1.0000
  I   I1        1.0  0.65168  0.64855  0.88973  1.0000
  I   I2        1.0  0.34833  0.35145  0.11027  1.0000
  N   N1        1.0  0.01967  0.24051  0.85222  1.0000
  N   N2        1.0  0.98033  0.75949  0.14778  1.0000
