data_image0
_chemical_formula_structural       Cu2H18C20I2N2
_chemical_formula_sum              "Cu2 H18 C20 I2 N2"
_cell_length_a       4.33166
_cell_length_b       9.82439
_cell_length_c       10.9553
_cell_angle_alpha    88.5156
_cell_angle_beta     84.2454
_cell_angle_gamma    80.0022

_space_group_name_H-M_alt    "P 1"
_space_group_IT_number       1

loop_
  _space_group_symop_operation_xyz
  'x, y, z'

loop_
  _atom_site_type_symbol
  _atom_site_label
  _atom_site_symmetry_multiplicity
  _atom_site_fract_x
  _atom_site_fract_y
  _atom_site_fract_z
  _atom_site_occupancy
  Cu  Cu1       1.0  0.12636  0.60266  0.03269  1.0000
  Cu  Cu2       1.0  0.87365  0.39733  0.96731  1.0000
  H   H1        1.0  0.25867  0.88332  0.04885  1.0000
  H   H2        1.0  0.74134  0.11668  0.95115  1.0000
  H   H3        1.0  0.77747  0.53499  0.22641  1.0000
  H   H4        1.0  0.22251  0.46501  0.77359  1.0000
  H   H5        1.0  0.26855  0.95344  0.46417  1.0000
  H   H6        1.0  0.73146  0.04656  0.53583  1.0000
  H   H7        1.0  0.00366  0.10370  0.15256  1.0000
  H   H8        1.0  0.99636  0.89629  0.84744  1.0000
  H   H9        1.0  0.37769  0.51685  0.40075  1.0000
  H   H10       1.0  0.62228  0.48315  0.59925  1.0000
  H   H11       1.0  0.57404  0.09751  0.32259  1.0000
  H   H12       1.0  0.42598  0.90249  0.67741  1.0000
  H   H13       1.0  0.20795  0.68987  0.64186  1.0000
  H   H14       1.0  0.79205  0.31013  0.35814  1.0000
  H   H15       1.0  0.94760  0.63401  0.54770  1.0000
  H   H16       1.0  0.05240  0.36599  0.45230  1.0000
  H   H17       1.0  0.91339  0.81265  0.58080  1.0000
  H   H18       1.0  0.08660  0.18735  0.41921  1.0000
  C   C1        1.0  0.76050  0.75395  0.24719  1.0000
  C   C2        1.0  0.23951  0.24605  0.75281  1.0000
  C   C3        1.0  0.60934  0.87444  0.31417  1.0000
  C   C4        1.0  0.39066  0.12555  0.68583  1.0000
  C   C5        1.0  0.06983  0.88325  0.12278  1.0000
  C   C6        1.0  0.93016  0.11675  0.87722  1.0000
  C   C7        1.0  0.67042  0.62561  0.28051  1.0000
  C   C8        1.0  0.32957  0.37438  0.71949  1.0000
  C   C9        1.0  0.38292  0.86054  0.41429  1.0000
  C   C10       1.0  0.61708  0.13947  0.58571  1.0000
  C   C11       1.0  0.92661  0.00704  0.18200  1.0000
  C   C12       1.0  0.07340  0.99296  0.81800  1.0000
  C   C13       1.0  0.30501  0.73345  0.44915  1.0000
  C   C14       1.0  0.69498  0.26655  0.55085  1.0000
  C   C15       1.0  0.44886  0.61639  0.37820  1.0000
  C   C16       1.0  0.55112  0.38361  0.62180  1.0000
  C   C17       1.0  0.69323  0.00308  0.27639  1.0000
  C   C18       1.0  0.30678  0.99691  0.72362  1.0000
  C   C19       1.0  0.08080  0.71712  0.55994  1.0000
  C   C20       1.0  0.91919  0.28288  0.44006  1.0000
  I   I1        1.0  0.35327  0.35121  0.11023  1.0000
  I   I2        1.0  0.64675  0.64879  0.88977  1.0000
  N   N1        1.0  0.98683  0.76094  0.15063  1.0000
  N   N2        1.0  0.01319  0.23905  0.84937  1.0000
