data_image0
_chemical_formula_structural       Cu4H24C16N12
_chemical_formula_sum              "Cu4 H24 C16 N12"
_cell_length_a       5.17441
_cell_length_b       10.2037
_cell_length_c       10.2038
_cell_angle_alpha    86.3098
_cell_angle_beta     75.3172
_cell_angle_gamma    75.3182

_space_group_name_H-M_alt    "P 1"
_space_group_IT_number       1

loop_
  _space_group_symop_operation_xyz
  'x, y, z'

loop_
  _atom_site_type_symbol
  _atom_site_label
  _atom_site_symmetry_multiplicity
  _atom_site_fract_x
  _atom_site_fract_y
  _atom_site_fract_z
  _atom_site_occupancy
  Cu  Cu1       1.0  0.87500  0.91513  0.58487  1.0000
  Cu  Cu2       1.0  0.37500  0.08498  0.41502  1.0000
  Cu  Cu3       1.0  0.20986  0.41507  0.91498  1.0000
  Cu  Cu4       1.0  0.54014  0.58502  0.08493  1.0000
  H   H1        1.0  0.84138  0.67901  0.47326  1.0000
  H   H2        1.0  0.99318  0.32077  0.52696  1.0000
  H   H3        1.0  0.47960  0.52685  0.67901  1.0000
  H   H4        1.0  0.68621  0.47303  0.32075  1.0000
  H   H5        1.0  0.90862  0.02674  0.82099  1.0000
  H   H6        1.0  0.75683  0.97305  0.17924  1.0000
  H   H7        1.0  0.27040  0.82098  0.97313  1.0000
  H   H8        1.0  0.06377  0.17925  0.02698  1.0000
  H   H9        1.0  0.11325  0.54307  0.38941  1.0000
  H   H10       1.0  0.04556  0.45679  0.61057  1.0000
  H   H11       1.0  0.34367  0.61057  0.54303  1.0000
  H   H12       1.0  0.49789  0.38929  0.45671  1.0000
  H   H13       1.0  0.63673  0.11059  0.95693  1.0000
  H   H14       1.0  0.70445  0.88944  0.04322  1.0000
  H   H15       1.0  0.40632  0.95697  0.88942  1.0000
  H   H16       1.0  0.25209  0.04329  0.11072  1.0000
  H   H17       1.0  0.88498  0.64319  0.29952  1.0000
  H   H18       1.0  0.82779  0.35670  0.70070  1.0000
  H   H19       1.0  0.47148  0.70060  0.64311  1.0000
  H   H20       1.0  0.81580  0.29927  0.35662  1.0000
  H   H21       1.0  0.86501  0.20048  0.85681  1.0000
  H   H22       1.0  0.92222  0.79931  0.14330  1.0000
  H   H23       1.0  0.27854  0.85688  0.79939  1.0000
  H   H24       1.0  0.93418  0.14337  0.20074  1.0000
  C   C1        1.0  0.17479  0.74217  0.34183  1.0000
  C   C2        1.0  0.25881  0.25779  0.65819  1.0000
  C   C3        1.0  0.08293  0.65821  0.74211  1.0000
  C   C4        1.0  0.48360  0.34181  0.25770  1.0000
  C   C5        1.0  0.57522  0.15817  0.75783  1.0000
  C   C6        1.0  0.49120  0.84181  0.24222  1.0000
  C   C7        1.0  0.66707  0.75789  0.84179  1.0000
  C   C8        1.0  0.26639  0.24230  0.15820  1.0000
  C   C9        1.0  0.99434  0.64662  0.37793  1.0000
  C   C10       1.0  0.01874  0.35323  0.62219  1.0000
  C   C11       1.0  0.35887  0.62214  0.64658  1.0000
  C   C12       1.0  0.62824  0.37776  0.35316  1.0000
  C   C13       1.0  0.75566  0.12208  0.85338  1.0000
  C   C14       1.0  0.73127  0.87781  0.14677  1.0000
  C   C15       1.0  0.39114  0.85341  0.87785  1.0000
  C   C16       1.0  0.12174  0.14684  0.12225  1.0000
  N   N1        1.0  0.13894  0.85212  0.41605  1.0000
  N   N2        1.0  0.40713  0.14791  0.58393  1.0000
  N   N3        1.0  0.00885  0.58394  0.85199  1.0000
  N   N4        1.0  0.44511  0.41608  0.14780  1.0000
  N   N5        1.0  0.61106  0.08395  0.64788  1.0000
  N   N6        1.0  0.34288  0.91607  0.35210  1.0000
  N   N7        1.0  0.74116  0.64801  0.91606  1.0000
  N   N8        1.0  0.30487  0.35219  0.08393  1.0000
  N   N9        1.0  0.39327  0.73176  0.23184  1.0000
  N   N10       1.0  0.35675  0.26816  0.76824  1.0000
  N   N11       1.0  0.87500  0.76827  0.73172  1.0000
  N   N12       1.0  0.37499  0.23183  0.26817  1.0000
