data_image0
_chemical_formula_structural       Cu8H48C32N24
_chemical_formula_sum              "Cu8 H48 C32 N24"
_cell_length_a       5.60241
_cell_length_b       13.7047
_cell_length_c       13.47
_cell_angle_alpha    90
_cell_angle_beta     90
_cell_angle_gamma    90

_space_group_name_H-M_alt    "P 1"
_space_group_IT_number       1

loop_
  _space_group_symop_operation_xyz
  'x, y, z'

loop_
  _atom_site_type_symbol
  _atom_site_label
  _atom_site_symmetry_multiplicity
  _atom_site_fract_x
  _atom_site_fract_y
  _atom_site_fract_z
  _atom_site_occupancy
  Cu  Cu1       1.0  0.19041  0.60156  0.47940  1.0000
  Cu  Cu2       1.0  0.69124  0.52133  0.09733  1.0000
  Cu  Cu3       1.0  0.69125  0.97867  0.40267  1.0000
  Cu  Cu4       1.0  0.19042  0.89843  0.02060  1.0000
  Cu  Cu5       1.0  0.80959  0.39845  0.52059  1.0000
  Cu  Cu6       1.0  0.30876  0.47866  0.90267  1.0000
  Cu  Cu7       1.0  0.30876  0.02133  0.59734  1.0000
  Cu  Cu8       1.0  0.80956  0.10156  0.97941  1.0000
  H   H1        1.0  0.74783  0.77622  0.32339  1.0000
  H   H2        1.0  0.23500  0.67954  0.27515  1.0000
  H   H3        1.0  0.23502  0.82046  0.22483  1.0000
  H   H4        1.0  0.74782  0.72379  0.17660  1.0000
  H   H5        1.0  0.25217  0.22380  0.67660  1.0000
  H   H6        1.0  0.76501  0.32046  0.72484  1.0000
  H   H7        1.0  0.76500  0.17953  0.77516  1.0000
  H   H8        1.0  0.25216  0.27620  0.82341  1.0000
  H   H9        1.0  0.59659  0.66259  0.34404  1.0000
  H   H10       1.0  0.09901  0.65204  0.15789  1.0000
  H   H11       1.0  0.09900  0.84794  0.34211  1.0000
  H   H12       1.0  0.59664  0.83741  0.15594  1.0000
  H   H13       1.0  0.40340  0.33742  0.65596  1.0000
  H   H14       1.0  0.90101  0.34796  0.84211  1.0000
  H   H15       1.0  0.90099  0.15206  0.65789  1.0000
  H   H16       1.0  0.40335  0.16258  0.84407  1.0000
  H   H17       1.0  0.83259  0.69885  0.42285  1.0000
  H   H18       1.0  0.33904  0.58086  0.20210  1.0000
  H   H19       1.0  0.33903  0.91914  0.29790  1.0000
  H   H20       1.0  0.83260  0.80114  0.07715  1.0000
  H   H21       1.0  0.16743  0.30116  0.57715  1.0000
  H   H22       1.0  0.66098  0.41914  0.79790  1.0000
  H   H23       1.0  0.66097  0.08086  0.70210  1.0000
  H   H24       1.0  0.16739  0.19884  0.92286  1.0000
  H   H25       1.0  0.99073  0.85913  0.66023  1.0000
  H   H26       1.0  0.47698  0.35121  0.36272  1.0000
  H   H27       1.0  0.47691  0.14875  0.13726  1.0000
  H   H28       1.0  0.99069  0.64088  0.83977  1.0000
  H   H29       1.0  0.00921  0.14090  0.33973  1.0000
  H   H30       1.0  0.52297  0.64880  0.63727  1.0000
  H   H31       1.0  0.52302  0.85121  0.86274  1.0000
  H   H32       1.0  0.00932  0.35913  0.16021  1.0000
  H   H33       1.0  0.03366  0.72931  0.65883  1.0000
  H   H34       1.0  0.54771  0.33676  0.23385  1.0000
  H   H35       1.0  0.54774  0.16325  0.26612  1.0000
  H   H36       1.0  0.03362  0.77068  0.84119  1.0000
  H   H37       1.0  0.96645  0.27071  0.34123  1.0000
  H   H38       1.0  0.45231  0.66324  0.76616  1.0000
  H   H39       1.0  0.45229  0.83677  0.73387  1.0000
  H   H40       1.0  0.96634  0.22933  0.15884  1.0000
  H   H41       1.0  0.84325  0.78601  0.57093  1.0000
  H   H42       1.0  0.35123  0.43030  0.27250  1.0000
  H   H43       1.0  0.35122  0.06970  0.22754  1.0000
  H   H44       1.0  0.84328  0.71399  0.92906  1.0000
  H   H45       1.0  0.15674  0.21393  0.42906  1.0000
  H   H46       1.0  0.64881  0.56970  0.72746  1.0000
  H   H47       1.0  0.64878  0.93030  0.77251  1.0000
  H   H48       1.0  0.15669  0.28598  0.07094  1.0000
  C   C1        1.0  0.50563  0.77728  0.44386  1.0000
  C   C2        1.0  0.00593  0.55681  0.27644  1.0000
  C   C3        1.0  0.00593  0.94319  0.22355  1.0000
  C   C4        1.0  0.50563  0.72272  0.05613  1.0000
  C   C5        1.0  0.49437  0.22272  0.55615  1.0000
  C   C6        1.0  0.99408  0.44321  0.72356  1.0000
  C   C7        1.0  0.99407  0.05681  0.77645  1.0000
  C   C8        1.0  0.49434  0.27728  0.94387  1.0000
  C   C9        1.0  0.21809  0.80749  0.54543  1.0000
  C   C10       1.0  0.72006  0.45623  0.30641  1.0000
  C   C11       1.0  0.72002  0.04376  0.19358  1.0000
  C   C12       1.0  0.21810  0.69251  0.95456  1.0000
  C   C13       1.0  0.78191  0.19252  0.45457  1.0000
  C   C14       1.0  0.27994  0.54379  0.69357  1.0000
  C   C15       1.0  0.27996  0.95624  0.80641  1.0000
  C   C16       1.0  0.78189  0.30748  0.04544  1.0000
  C   C17       1.0  0.67893  0.72606  0.37977  1.0000
  C   C18       1.0  0.17793  0.62099  0.22522  1.0000
  C   C19       1.0  0.17794  0.87900  0.27478  1.0000
  C   C20       1.0  0.67893  0.77393  0.12021  1.0000
  C   C21       1.0  0.32110  0.27394  0.62022  1.0000
  C   C22       1.0  0.82208  0.37901  0.77478  1.0000
  C   C23       1.0  0.82208  0.12100  0.72522  1.0000
  C   C24       1.0  0.32106  0.22606  0.87980  1.0000
  C   C25       1.0  0.01017  0.79474  0.61271  1.0000
  C   C26       1.0  0.51280  0.38990  0.29319  1.0000
  C   C27       1.0  0.51277  0.11010  0.20680  1.0000
  C   C28       1.0  0.01020  0.70526  0.88730  1.0000
  C   C29       1.0  0.98980  0.20527  0.38730  1.0000
  C   C30       1.0  0.48721  0.61011  0.70680  1.0000
  C   C31       1.0  0.48721  0.88990  0.79321  1.0000
  C   C32       1.0  0.98979  0.29473  0.11270  1.0000
  N   N1        1.0  0.31823  0.73394  0.49078  1.0000
  N   N2        1.0  0.82014  0.51023  0.23191  1.0000
  N   N3        1.0  0.82014  0.98977  0.26809  1.0000
  N   N4        1.0  0.31824  0.76607  0.00921  1.0000
  N   N5        1.0  0.68175  0.26608  0.50922  1.0000
  N   N6        1.0  0.17988  0.48978  0.76808  1.0000
  N   N7        1.0  0.17985  0.01023  0.73192  1.0000
  N   N8        1.0  0.68175  0.23391  0.99080  1.0000
  N   N9        1.0  0.51980  0.87249  0.46636  1.0000
  N   N10       1.0  0.01930  0.53476  0.37324  1.0000
  N   N11       1.0  0.01930  0.96524  0.12676  1.0000
  N   N12       1.0  0.51979  0.62751  0.03363  1.0000
  N   N13       1.0  0.48023  0.12751  0.53364  1.0000
  N   N14       1.0  0.98068  0.46524  0.62676  1.0000
  N   N15       1.0  0.98069  0.03475  0.87325  1.0000
  N   N16       1.0  0.48021  0.37248  0.96637  1.0000
  N   N17       1.0  0.33496  0.89180  0.53183  1.0000
  N   N18       1.0  0.83587  0.46965  0.39239  1.0000
  N   N19       1.0  0.83585  0.03034  0.10762  1.0000
  N   N20       1.0  0.33495  0.60820  0.96816  1.0000
  N   N21       1.0  0.66508  0.10822  0.46817  1.0000
  N   N22       1.0  0.16411  0.53035  0.60761  1.0000
  N   N23       1.0  0.16415  0.96965  0.89238  1.0000
  N   N24       1.0  0.66506  0.39179  0.03183  1.0000
