data_image0
_chemical_formula_structural       Cu6H36C24N18
_chemical_formula_sum              "Cu6 H36 C24 N18"
_cell_length_a       7.85796
_cell_length_b       11.0546
_cell_length_c       11.0546
_cell_angle_alpha    62.8445
_cell_angle_beta     69.179
_cell_angle_gamma    69.1791

_space_group_name_H-M_alt    "P 1"
_space_group_IT_number       1

loop_
  _space_group_symop_operation_xyz
  'x, y, z'

loop_
  _atom_site_type_symbol
  _atom_site_label
  _atom_site_symmetry_multiplicity
  _atom_site_fract_x
  _atom_site_fract_y
  _atom_site_fract_z
  _atom_site_occupancy
  Cu  Cu1       1.0  0.01835  0.21200  0.37475  1.0000
  Cu  Cu2       1.0  0.39499  0.37464  0.21188  1.0000
  Cu  Cu3       1.0  0.51835  0.87475  0.71200  1.0000
  Cu  Cu4       1.0  0.89499  0.71188  0.87464  1.0000
  Cu  Cu5       1.0  0.54624  0.95371  0.95378  1.0000
  Cu  Cu6       1.0  0.04624  0.45378  0.45371  1.0000
  H   H1        1.0  0.05165  0.96326  0.31537  1.0000
  H   H2        1.0  0.66966  0.31519  0.96330  1.0000
  H   H3        1.0  0.55165  0.81538  0.46326  1.0000
  H   H4        1.0  0.16967  0.46329  0.81519  1.0000
  H   H5        1.0  0.05064  0.02187  0.13700  1.0000
  H   H6        1.0  0.79031  0.13682  0.02189  1.0000
  H   H7        1.0  0.55064  0.63700  0.52187  1.0000
  H   H8        1.0  0.29031  0.52189  0.63682  1.0000
  H   H9        1.0  0.21928  0.87176  0.20766  1.0000
  H   H10       1.0  0.70121  0.20755  0.87174  1.0000
  H   H11       1.0  0.71928  0.70767  0.37176  1.0000
  H   H12       1.0  0.20121  0.37173  0.70755  1.0000
  H   H13       1.0  0.26760  0.63891  0.82611  1.0000
  H   H14       1.0  0.26763  0.82637  0.63895  1.0000
  H   H15       1.0  0.76760  0.32611  0.13891  1.0000
  H   H16       1.0  0.76763  0.13895  0.32637  1.0000
  H   H17       1.0  0.33886  0.46914  0.95002  1.0000
  H   H18       1.0  0.24210  0.95030  0.46920  1.0000
  H   H19       1.0  0.83886  0.45002  0.96914  1.0000
  H   H20       1.0  0.74210  0.96920  0.45030  1.0000
  H   H21       1.0  0.50664  0.54725  0.79879  1.0000
  H   H22       1.0  0.14786  0.79887  0.54727  1.0000
  H   H23       1.0  0.00664  0.29880  0.04725  1.0000
  H   H24       1.0  0.64786  0.04727  0.29887  1.0000
  H   H25       1.0  0.49830  0.72506  0.26382  1.0000
  H   H26       1.0  0.51275  0.26362  0.72521  1.0000
  H   H27       1.0  0.99830  0.76382  0.22506  1.0000
  H   H28       1.0  0.01275  0.22521  0.76362  1.0000
  H   H29       1.0  0.59193  0.54307  0.29828  1.0000
  H   H30       1.0  0.56664  0.29812  0.54320  1.0000
  H   H31       1.0  0.09193  0.79828  0.04307  1.0000
  H   H32       1.0  0.06664  0.04320  0.79812  1.0000
  H   H33       1.0  0.34683  0.60634  0.34641  1.0000
  H   H34       1.0  0.70028  0.34633  0.60645  1.0000
  H   H35       1.0  0.84683  0.84642  0.10634  1.0000
  H   H36       1.0  0.20027  0.10645  0.84633  1.0000
  C   C1        1.0  0.27053  0.06403  0.17202  1.0000
  C   C2        1.0  0.49323  0.17194  0.06403  1.0000
  C   C3        1.0  0.77053  0.67202  0.56403  1.0000
  C   C4        1.0  0.99323  0.56403  0.67194  1.0000
  C   C5        1.0  0.14161  0.97470  0.21092  1.0000
  C   C6        1.0  0.67261  0.21078  0.97469  1.0000
  C   C7        1.0  0.64161  0.71092  0.47470  1.0000
  C   C8        1.0  0.17261  0.47469  0.71078  1.0000
  C   C9        1.0  0.41573  0.62865  0.96003  1.0000
  C   C10       1.0  0.99562  0.96002  0.62870  1.0000
  C   C11       1.0  0.91574  0.46003  0.12865  1.0000
  C   C12       1.0  0.49562  0.12870  0.46002  1.0000
  C   C13       1.0  0.45791  0.65704  0.12691  1.0000
  C   C14       1.0  0.75810  0.12682  0.65713  1.0000
  C   C15       1.0  0.95791  0.62692  0.15704  1.0000
  C   C16       1.0  0.25810  0.15713  0.62682  1.0000
  C   C17       1.0  0.38112  0.56745  0.87887  1.0000
  C   C18       1.0  0.17280  0.87904  0.56748  1.0000
  C   C19       1.0  0.88112  0.37887  0.06745  1.0000
  C   C20       1.0  0.67280  0.06748  0.37904  1.0000
  C   C21       1.0  0.47486  0.63191  0.26638  1.0000
  C   C22       1.0  0.62676  0.26625  0.63204  1.0000
  C   C23       1.0  0.97486  0.76639  0.13191  1.0000
  C   C24       1.0  0.12676  0.13204  0.76625  1.0000
  N   N1        1.0  0.23645  0.15707  0.22861  1.0000
  N   N2        1.0  0.37777  0.22854  0.15709  1.0000
  N   N3        1.0  0.73645  0.72862  0.65707  1.0000
  N   N4        1.0  0.87777  0.65709  0.72854  1.0000
  N   N5        1.0  0.43099  0.06883  0.06889  1.0000
  N   N6        1.0  0.93099  0.56889  0.56883  1.0000
  N   N7        1.0  0.44366  0.75697  0.90780  1.0000
  N   N8        1.0  0.89165  0.90773  0.75702  1.0000
  N   N9        1.0  0.94366  0.40780  0.25697  1.0000
  N   N10       1.0  0.39165  0.25702  0.40773  1.0000
  N   N11       1.0  0.47197  0.77608  0.01386  1.0000
  N   N12       1.0  0.73808  0.01374  0.77615  1.0000
  N   N13       1.0  0.97197  0.51386  0.27607  1.0000
  N   N14       1.0  0.23808  0.27615  0.51374  1.0000
  N   N15       1.0  0.42327  0.56217  0.09713  1.0000
  N   N16       1.0  0.91743  0.09711  0.56227  1.0000
  N   N17       1.0  0.92328  0.59713  0.06217  1.0000
  N   N18       1.0  0.41743  0.06227  0.59711  1.0000
