data_image0
_chemical_formula_structural       Ca6H60C36O48
_chemical_formula_sum              "Ca6 H60 C36 O48"
_cell_length_a       11.1851
_cell_length_b       11.2192
_cell_length_c       12.975
_cell_angle_alpha    76.0246
_cell_angle_beta     75.9811
_cell_angle_gamma    61.4517

_space_group_name_H-M_alt    "P 1"
_space_group_IT_number       1

loop_
  _space_group_symop_operation_xyz
  'x, y, z'

loop_
  _atom_site_type_symbol
  _atom_site_label
  _atom_site_symmetry_multiplicity
  _atom_site_fract_x
  _atom_site_fract_y
  _atom_site_fract_z
  _atom_site_occupancy
  Ca  Ca1       1.0  0.53671  0.73274  0.97485  1.0000
  Ca  Ca2       1.0  0.26722  0.46385  0.52508  1.0000
  Ca  Ca3       1.0  0.46329  0.26726  0.02515  1.0000
  Ca  Ca4       1.0  0.73278  0.53615  0.47492  1.0000
  Ca  Ca5       1.0  1.00000  0.50000  1.00000  1.0000
  Ca  Ca6       1.0  0.50000  0.00000  0.50000  1.0000
  H   H1        1.0  0.75414  0.19182  0.12671  1.0000
  H   H2        1.0  0.80775  0.24562  0.37337  1.0000
  H   H3        1.0  0.24586  0.80818  0.87329  1.0000
  H   H4        1.0  0.19225  0.75438  0.62663  1.0000
  H   H5        1.0  0.96452  0.75033  0.17937  1.0000
  H   H6        1.0  0.25073  0.03520  0.32068  1.0000
  H   H7        1.0  0.03548  0.24966  0.82063  1.0000
  H   H8        1.0  0.74927  0.96480  0.67933  1.0000
  H   H9        1.0  0.19626  0.98306  0.08745  1.0000
  H   H10       1.0  0.01647  0.80497  0.41244  1.0000
  H   H11       1.0  0.80374  0.01694  0.91255  1.0000
  H   H12       1.0  0.98353  0.19503  0.58756  1.0000
  H   H13       1.0  0.60003  0.97243  0.89629  1.0000
  H   H14       1.0  0.02743  0.39968  0.60368  1.0000
  H   H15       1.0  0.39997  0.02757  0.10371  1.0000
  H   H16       1.0  0.97257  0.60032  0.39632  1.0000
  H   H17       1.0  0.74588  0.84266  0.91611  1.0000
  H   H18       1.0  0.15768  0.25425  0.58387  1.0000
  H   H19       1.0  0.25412  0.15734  0.08389  1.0000
  H   H20       1.0  0.84232  0.74575  0.41613  1.0000
  H   H21       1.0  0.71405  0.45406  0.09234  1.0000
  H   H22       1.0  0.54600  0.28600  0.40769  1.0000
  H   H23       1.0  0.28595  0.54594  0.90766  1.0000
  H   H24       1.0  0.45400  0.71400  0.59231  1.0000
  H   H25       1.0  0.55931  0.48051  0.12735  1.0000
  H   H26       1.0  0.52016  0.44033  0.37252  1.0000
  H   H27       1.0  0.44068  0.51949  0.87265  1.0000
  H   H28       1.0  0.47984  0.55967  0.62748  1.0000
  H   H29       1.0  0.57435  0.85267  0.14672  1.0000
  H   H30       1.0  0.14761  0.42564  0.35308  1.0000
  H   H31       1.0  0.42565  0.14733  0.85328  1.0000
  H   H32       1.0  0.85239  0.57436  0.64692  1.0000
  H   H33       1.0  0.44415  0.82577  0.19462  1.0000
  H   H34       1.0  0.17427  0.55575  0.30524  1.0000
  H   H35       1.0  0.55585  0.17424  0.80538  1.0000
  H   H36       1.0  0.82573  0.44425  0.69476  1.0000
  H   H37       1.0  0.52937  0.64202  0.75955  1.0000
  H   H38       1.0  0.35775  0.47086  0.74041  1.0000
  H   H39       1.0  0.47063  0.35798  0.24045  1.0000
  H   H40       1.0  0.64225  0.52914  0.25959  1.0000
  H   H41       1.0  0.62945  0.51949  0.83330  1.0000
  H   H42       1.0  0.48046  0.37067  0.66669  1.0000
  H   H43       1.0  0.37055  0.48051  0.16670  1.0000
  H   H44       1.0  0.51954  0.62933  0.33331  1.0000
  H   H45       1.0  0.81420  0.63665  0.83147  1.0000
  H   H46       1.0  0.36302  0.18599  0.66843  1.0000
  H   H47       1.0  0.18580  0.36335  0.16853  1.0000
  H   H48       1.0  0.63698  0.81401  0.33157  1.0000
  H   H49       1.0  0.80455  0.49986  0.88519  1.0000
  H   H50       1.0  0.50021  0.19539  0.61476  1.0000
  H   H51       1.0  0.19545  0.50014  0.11481  1.0000
  H   H52       1.0  0.49979  0.80461  0.38524  1.0000
  H   H53       1.0  0.10762  0.47086  0.76462  1.0000
  H   H54       1.0  0.52897  0.89260  0.73535  1.0000
  H   H55       1.0  0.89238  0.52914  0.23538  1.0000
  H   H56       1.0  0.47103  0.10740  0.26465  1.0000
  H   H57       1.0  0.17750  0.31757  0.82526  1.0000
  H   H58       1.0  0.68256  0.82250  0.67459  1.0000
  H   H59       1.0  0.82250  0.68243  0.17474  1.0000
  H   H60       1.0  0.31744  0.17750  0.32541  1.0000
  C   C1        1.0  0.97561  0.10277  0.10899  1.0000
  C   C2        1.0  0.89684  0.02485  0.39099  1.0000
  C   C3        1.0  0.02439  0.89723  0.89101  1.0000
  C   C4        1.0  0.10316  0.97515  0.60901  1.0000
  C   C5        1.0  0.84934  0.09723  0.13118  1.0000
  C   C6        1.0  0.90254  0.15063  0.36889  1.0000
  C   C7        1.0  0.15066  0.90277  0.86882  1.0000
  C   C8        1.0  0.09746  0.84937  0.63111  1.0000
  C   C9        1.0  0.84436  0.97103  0.15507  1.0000
  C   C10       1.0  0.02923  0.15545  0.34500  1.0000
  C   C11       1.0  0.15564  0.02897  0.84493  1.0000
  C   C12       1.0  0.97077  0.84456  0.65500  1.0000
  C   C13       1.0  0.96695  0.84912  0.16010  1.0000
  C   C14       1.0  0.15150  0.03300  0.33997  1.0000
  C   C15       1.0  0.03305  0.15088  0.83990  1.0000
  C   C16       1.0  0.84850  0.96700  0.66003  1.0000
  C   C17       1.0  0.09357  0.85357  0.13495  1.0000
  C   C18       1.0  0.14668  0.90687  0.36514  1.0000
  C   C19       1.0  0.90643  0.14643  0.86505  1.0000
  C   C20       1.0  0.85332  0.09313  0.63486  1.0000
  C   C21       1.0  0.09719  0.98045  0.10928  1.0000
  C   C22       1.0  0.01932  0.90360  0.39069  1.0000
  C   C23       1.0  0.90281  0.01955  0.89072  1.0000
  C   C24       1.0  0.98068  0.09640  0.60931  1.0000
  C   C25       1.0  0.98149  0.23775  0.07626  1.0000
  C   C26       1.0  0.76167  0.01873  0.42364  1.0000
  C   C27       1.0  0.01851  0.76225  0.92374  1.0000
  C   C28       1.0  0.23833  0.98127  0.57636  1.0000
  C   C29       1.0  0.70889  0.96870  0.16741  1.0000
  C   C30       1.0  0.03148  0.29067  0.33254  1.0000
  C   C31       1.0  0.29111  0.03130  0.83259  1.0000
  C   C32       1.0  0.96852  0.70933  0.66746  1.0000
  C   C33       1.0  0.22581  0.72488  0.12606  1.0000
  C   C34       1.0  0.27515  0.77445  0.37394  1.0000
  C   C35       1.0  0.77419  0.27511  0.87394  1.0000
  C   C36       1.0  0.72485  0.22555  0.62606  1.0000
  O   O1        1.0  0.87212  0.34817  0.06097  1.0000
  O   O2        1.0  0.65083  0.12771  0.43903  1.0000
  O   O3        1.0  0.12788  0.65183  0.93903  1.0000
  O   O4        1.0  0.34916  0.87229  0.56097  1.0000
  O   O5        1.0  0.09670  0.24159  0.05983  1.0000
  O   O6        1.0  0.75816  0.90373  0.43986  1.0000
  O   O7        1.0  0.90330  0.75841  0.94017  1.0000
  O   O8        1.0  0.24184  0.09627  0.56014  1.0000
  O   O9        1.0  0.33168  0.73302  0.07122  1.0000
  O   O10       1.0  0.26640  0.66906  0.42855  1.0000
  O   O11       1.0  0.66833  0.26698  0.92878  1.0000
  O   O12       1.0  0.73360  0.33095  0.57145  1.0000
  O   O13       1.0  0.22400  0.61040  0.17407  1.0000
  O   O14       1.0  0.39021  0.77565  0.32583  1.0000
  O   O15       1.0  0.77601  0.38960  0.82593  1.0000
  O   O16       1.0  0.60979  0.22435  0.67417  1.0000
  O   O17       1.0  0.60318  0.08217  0.15101  1.0000
  O   O18       1.0  0.91765  0.39615  0.34893  1.0000
  O   O19       1.0  0.39682  0.91783  0.84899  1.0000
  O   O20       1.0  0.08235  0.60385  0.65107  1.0000
  O   O21       1.0  0.70434  0.85261  0.19323  1.0000
  O   O22       1.0  0.14787  0.29535  0.30654  1.0000
  O   O23       1.0  0.29567  0.14739  0.80677  1.0000
  O   O24       1.0  0.85213  0.70466  0.69346  1.0000
  O   O25       1.0  0.65018  0.87078  0.90528  1.0000
  O   O26       1.0  0.12943  0.34972  0.59450  1.0000
  O   O27       1.0  0.34982  0.12922  0.09472  1.0000
  O   O28       1.0  0.87057  0.65028  0.40550  1.0000
  O   O29       1.0  0.61924  0.52809  0.10934  1.0000
  O   O30       1.0  0.47220  0.38078  0.39068  1.0000
  O   O31       1.0  0.38076  0.47191  0.89066  1.0000
  O   O32       1.0  0.52780  0.61922  0.60931  1.0000
  O   O33       1.0  0.49470  0.85095  0.12535  1.0000
  O   O34       1.0  0.14921  0.50510  0.37444  1.0000
  O   O35       1.0  0.50530  0.14905  0.87466  1.0000
  O   O36       1.0  0.85079  0.49490  0.62556  1.0000
  O   O37       1.0  0.54031  0.60809  0.83601  1.0000
  O   O38       1.0  0.39188  0.45990  0.66394  1.0000
  O   O39       1.0  0.45969  0.39191  0.16399  1.0000
  O   O40       1.0  0.60812  0.54010  0.33606  1.0000
  O   O41       1.0  0.79743  0.58464  0.90250  1.0000
  O   O42       1.0  0.41509  0.20280  0.59739  1.0000
  O   O43       1.0  0.20257  0.41536  0.09750  1.0000
  O   O44       1.0  0.58491  0.79720  0.40261  1.0000
  O   O45       1.0  0.12060  0.41477  0.83640  1.0000
  O   O46       1.0  0.58511  0.87963  0.66346  1.0000
  O   O47       1.0  0.87940  0.58523  0.16360  1.0000
  O   O48       1.0  0.41489  0.12037  0.33654  1.0000
