data_image0
_chemical_formula_structural       V4Zn2H16C24N6O12
_chemical_formula_sum              "V4 Zn2 H16 C24 N6 O12"
_cell_length_a       8.04283
_cell_length_b       8.95846
_cell_length_c       11.0737
_cell_angle_alpha    105.849
_cell_angle_beta     102.102
_cell_angle_gamma    108.242

_space_group_name_H-M_alt    "P 1"
_space_group_IT_number       1

loop_
  _space_group_symop_operation_xyz
  'x, y, z'

loop_
  _atom_site_type_symbol
  _atom_site_label
  _atom_site_symmetry_multiplicity
  _atom_site_fract_x
  _atom_site_fract_y
  _atom_site_fract_z
  _atom_site_occupancy
  V   V1        1.0  0.47415  0.27857  0.07148  1.0000
  V   V2        1.0  0.52585  0.72144  0.92852  1.0000
  V   V3        1.0  0.72780  0.06817  0.19456  1.0000
  V   V4        1.0  0.27220  0.93183  0.80544  1.0000
  Zn  Zn1       1.0  0.16381  0.35527  0.25120  1.0000
  Zn  Zn2       1.0  0.83619  0.64473  0.74879  1.0000
  H   H1        1.0  0.21426  0.54523  0.05972  1.0000
  H   H2        1.0  0.78574  0.45477  0.94028  1.0000
  H   H3        1.0  0.17639  0.80335  0.03326  1.0000
  H   H4        1.0  0.82361  0.19665  0.96674  1.0000
  H   H5        1.0  0.06548  0.96924  0.19598  1.0000
  H   H6        1.0  0.93452  0.03076  0.80402  1.0000
  H   H7        1.0  0.98949  0.86840  0.37441  1.0000
  H   H8        1.0  0.01051  0.13160  0.62559  1.0000
  H   H9        1.0  0.69608  0.65466  0.27416  1.0000
  H   H10       1.0  0.30392  0.34534  0.72584  1.0000
  H   H11       1.0  0.47955  0.79597  0.29103  1.0000
  H   H12       1.0  0.52045  0.20403  0.70897  1.0000
  H   H13       1.0  0.39781  0.86738  0.50425  1.0000
  H   H14       1.0  0.60219  0.13262  0.49575  1.0000
  H   H15       1.0  0.55637  0.80757  0.69184  1.0000
  H   H16       1.0  0.44363  0.19242  0.30816  1.0000
  C   C1        1.0  0.15759  0.61652  0.12402  1.0000
  C   C2        1.0  0.84241  0.38348  0.87598  1.0000
  C   C3        1.0  0.14150  0.76293  0.11219  1.0000
  C   C4        1.0  0.85850  0.23707  0.88781  1.0000
  C   C5        1.0  0.07863  0.85385  0.20209  1.0000
  C   C6        1.0  0.92137  0.14615  0.79791  1.0000
  C   C7        1.0  0.03180  0.79566  0.30006  1.0000
  C   C8        1.0  0.96820  0.20434  0.69994  1.0000
  C   C9        1.0  0.04257  0.64387  0.30199  1.0000
  C   C10       1.0  0.95743  0.35613  0.69800  1.0000
  C   C11       1.0  0.00520  0.57125  0.40383  1.0000
  C   C12       1.0  0.99480  0.42875  0.59617  1.0000
  C   C13       1.0  0.88994  0.58874  0.48287  1.0000
  C   C14       1.0  0.11006  0.41127  0.51713  1.0000
  C   C15       1.0  0.75630  0.67108  0.47896  1.0000
  C   C16       1.0  0.24370  0.32892  0.52104  1.0000
  C   C17       1.0  0.67016  0.69663  0.36777  1.0000
  C   C18       1.0  0.32984  0.30337  0.63223  1.0000
  C   C19       1.0  0.54285  0.77154  0.37634  1.0000
  C   C20       1.0  0.45715  0.22846  0.62366  1.0000
  C   C21       1.0  0.49888  0.81206  0.49272  1.0000
  C   C22       1.0  0.50112  0.18794  0.50728  1.0000
  C   C23       1.0  0.58668  0.77871  0.59872  1.0000
  C   C24       1.0  0.41331  0.22129  0.40128  1.0000
  N   N1        1.0  0.10841  0.55848  0.21590  1.0000
  N   N2        1.0  0.89159  0.44152  0.78410  1.0000
  N   N3        1.0  0.10593  0.48189  0.42525  1.0000
  N   N4        1.0  0.89407  0.51812  0.57475  1.0000
  N   N5        1.0  0.71265  0.71100  0.59237  1.0000
  N   N6        1.0  0.28735  0.28900  0.40763  1.0000
  O   O1        1.0  0.65050  0.44788  0.09561  1.0000
  O   O2        1.0  0.34950  0.55212  0.90439  1.0000
  O   O3        1.0  0.32462  0.33021  0.14432  1.0000
  O   O4        1.0  0.67538  0.66979  0.85568  1.0000
  O   O5        1.0  0.55676  0.15045  0.14782  1.0000
  O   O6        1.0  0.44324  0.84955  0.85218  1.0000
  O   O7        1.0  0.36905  0.15577  0.89526  1.0000
  O   O8        1.0  0.63095  0.84423  0.10474  1.0000
  O   O9        1.0  0.92015  0.16365  0.16009  1.0000
  O   O10       1.0  0.07985  0.83635  0.83991  1.0000
  O   O11       1.0  0.78045  0.10441  0.35361  1.0000
  O   O12       1.0  0.21955  0.89559  0.64639  1.0000
