data_image0
_chemical_formula_structural       Na4Zn4H12C36O24
_chemical_formula_sum              "Na4 Zn4 H12 C36 O24"
_cell_length_a       6.89898
_cell_length_b       9.80228
_cell_length_c       12.3948
_cell_angle_alpha    90
_cell_angle_beta     90
_cell_angle_gamma    91.6362

_space_group_name_H-M_alt    "P 1"
_space_group_IT_number       1

loop_
  _space_group_symop_operation_xyz
  'x, y, z'

loop_
  _atom_site_type_symbol
  _atom_site_label
  _atom_site_symmetry_multiplicity
  _atom_site_fract_x
  _atom_site_fract_y
  _atom_site_fract_z
  _atom_site_occupancy
  Na  Na1       1.0  0.97026  0.35006  0.74093  1.0000
  Na  Na2       1.0  0.47026  0.35006  0.75907  1.0000
  Na  Na3       1.0  0.02975  0.64994  0.25907  1.0000
  Na  Na4       1.0  0.52974  0.64994  0.24093  1.0000
  Zn  Zn1       1.0  0.17727  0.59203  0.93125  1.0000
  Zn  Zn2       1.0  0.67727  0.59203  0.56875  1.0000
  Zn  Zn3       1.0  0.82273  0.40797  0.06875  1.0000
  Zn  Zn4       1.0  0.32273  0.40797  0.43125  1.0000
  H   H1        1.0  0.31698  0.96013  0.44697  1.0000
  H   H2        1.0  0.81698  0.96013  0.05303  1.0000
  H   H3        1.0  0.68302  0.03987  0.55303  1.0000
  H   H4        1.0  0.18302  0.03987  0.94697  1.0000
  H   H5        1.0  0.11438  0.09178  0.75667  1.0000
  H   H6        1.0  0.61438  0.09178  0.74332  1.0000
  H   H7        1.0  0.88562  0.90822  0.24333  1.0000
  H   H8        1.0  0.38562  0.90822  0.25668  1.0000
  H   H9        1.0  0.03347  0.85153  0.80550  1.0000
  H   H10       1.0  0.53347  0.85153  0.69450  1.0000
  H   H11       1.0  0.96653  0.14847  0.19450  1.0000
  H   H12       1.0  0.46653  0.14847  0.30550  1.0000
  C   C1        1.0  0.13330  0.76899  0.65513  1.0000
  C   C2        1.0  0.63330  0.76898  0.84487  1.0000
  C   C3        1.0  0.86670  0.23102  0.34487  1.0000
  C   C4        1.0  0.36670  0.23101  0.15513  1.0000
  C   C5        1.0  0.21867  0.79980  0.55396  1.0000
  C   C6        1.0  0.71867  0.79980  0.94603  1.0000
  C   C7        1.0  0.78133  0.20020  0.44604  1.0000
  C   C8        1.0  0.28133  0.20020  0.05396  1.0000
  C   C9        1.0  0.25479  0.93615  0.52560  1.0000
  C   C10       1.0  0.75479  0.93614  0.97440  1.0000
  C   C11       1.0  0.74521  0.06385  0.47440  1.0000
  C   C12       1.0  0.24521  0.06386  0.02560  1.0000
  C   C13       1.0  0.21494  0.04216  0.59710  1.0000
  C   C14       1.0  0.71493  0.04216  0.90290  1.0000
  C   C15       1.0  0.78506  0.95784  0.40290  1.0000
  C   C16       1.0  0.28507  0.95784  0.09710  1.0000
  C   C17       1.0  0.13892  0.01020  0.69905  1.0000
  C   C18       1.0  0.63891  0.01020  0.80095  1.0000
  C   C19       1.0  0.86109  0.98980  0.30095  1.0000
  C   C20       1.0  0.36109  0.98980  0.19905  1.0000
  C   C21       1.0  0.09641  0.87518  0.72703  1.0000
  C   C22       1.0  0.59641  0.87518  0.77297  1.0000
  C   C23       1.0  0.90359  0.12482  0.27297  1.0000
  C   C24       1.0  0.40359  0.12482  0.22703  1.0000
  C   C25       1.0  0.05916  0.62815  0.68315  1.0000
  C   C26       1.0  0.55916  0.62815  0.81685  1.0000
  C   C27       1.0  0.94084  0.37185  0.31685  1.0000
  C   C28       1.0  0.44084  0.37185  0.18315  1.0000
  C   C29       1.0  0.28230  0.69266  0.47626  1.0000
  C   C30       1.0  0.78230  0.69266  0.02374  1.0000
  C   C31       1.0  0.71770  0.30734  0.52374  1.0000
  C   C32       1.0  0.21770  0.30734  0.97626  1.0000
  C   C33       1.0  0.25287  0.18828  0.56608  1.0000
  C   C34       1.0  0.75287  0.18828  0.93392  1.0000
  C   C35       1.0  0.74714  0.81172  0.43392  1.0000
  C   C36       1.0  0.24713  0.81172  0.06608  1.0000
  O   O1        1.0  0.08808  0.57691  0.77634  1.0000
  O   O2        1.0  0.58808  0.57691  0.72366  1.0000
  O   O3        1.0  0.91192  0.42309  0.22366  1.0000
  O   O4        1.0  0.41192  0.42309  0.27634  1.0000
  O   O5        1.0  0.96039  0.56266  0.61272  1.0000
  O   O6        1.0  0.46039  0.56266  0.88728  1.0000
  O   O7        1.0  0.03961  0.43734  0.38728  1.0000
  O   O8        1.0  0.53961  0.43734  0.11272  1.0000
  O   O9        1.0  0.34440  0.58008  0.51827  1.0000
  O   O10       1.0  0.84439  0.58008  0.98173  1.0000
  O   O11       1.0  0.65561  0.41992  0.48173  1.0000
  O   O12       1.0  0.15560  0.41992  0.01827  1.0000
  O   O13       1.0  0.28146  0.71680  0.37695  1.0000
  O   O14       1.0  0.78146  0.71679  0.12305  1.0000
  O   O15       1.0  0.71853  0.28320  0.62305  1.0000
  O   O16       1.0  0.21854  0.28320  0.87695  1.0000
  O   O17       1.0  0.31016  0.21147  0.46866  1.0000
  O   O18       1.0  0.81016  0.21147  0.03134  1.0000
  O   O19       1.0  0.68984  0.78853  0.53134  1.0000
  O   O20       1.0  0.18984  0.78853  0.96866  1.0000
  O   O21       1.0  0.22869  0.28176  0.63439  1.0000
  O   O22       1.0  0.72869  0.28176  0.86561  1.0000
  O   O23       1.0  0.77131  0.71824  0.36561  1.0000
  O   O24       1.0  0.27131  0.71824  0.13439  1.0000
