data_image0
_chemical_formula_structural       Cd4H64C24N4Cl12O12
_chemical_formula_sum              "Cd4 H64 C24 N4 Cl12 O12"
_cell_length_a       7.71558
_cell_length_b       9.3939
_cell_length_c       16.5639
_cell_angle_alpha    90
_cell_angle_beta     90
_cell_angle_gamma    101.883

_space_group_name_H-M_alt    "P 1"
_space_group_IT_number       1

loop_
  _space_group_symop_operation_xyz
  'x, y, z'

loop_
  _atom_site_type_symbol
  _atom_site_label
  _atom_site_symmetry_multiplicity
  _atom_site_fract_x
  _atom_site_fract_y
  _atom_site_fract_z
  _atom_site_occupancy
  Cd  Cd1       1.0  0.72462  0.32101  0.23968  1.0000
  Cd  Cd2       1.0  0.77538  0.67899  0.73968  1.0000
  Cd  Cd3       1.0  0.27538  0.67899  0.76032  1.0000
  Cd  Cd4       1.0  0.22462  0.32101  0.26032  1.0000
  H   H1        1.0  0.03534  0.22077  0.66707  1.0000
  H   H2        1.0  0.46466  0.77923  0.16707  1.0000
  H   H3        1.0  0.96466  0.77923  0.33293  1.0000
  H   H4        1.0  0.53534  0.22077  0.83293  1.0000
  H   H5        1.0  0.81722  0.13008  0.69246  1.0000
  H   H6        1.0  0.68278  0.86993  0.19246  1.0000
  H   H7        1.0  0.18278  0.86992  0.30754  1.0000
  H   H8        1.0  0.31722  0.13008  0.80754  1.0000
  H   H9        1.0  0.59067  0.42437  0.54755  1.0000
  H   H10       1.0  0.90933  0.57563  0.04756  1.0000
  H   H11       1.0  0.40933  0.57563  0.45245  1.0000
  H   H12       1.0  0.09067  0.42437  0.95244  1.0000
  H   H13       1.0  0.54902  0.23832  0.66515  1.0000
  H   H14       1.0  0.95098  0.76168  0.16516  1.0000
  H   H15       1.0  0.45098  0.76168  0.33485  1.0000
  H   H16       1.0  0.04902  0.23832  0.83484  1.0000
  H   H17       1.0  0.56595  0.05823  0.63580  1.0000
  H   H18       1.0  0.93405  0.94177  0.13580  1.0000
  H   H19       1.0  0.43405  0.94177  0.36420  1.0000
  H   H20       1.0  0.06596  0.05823  0.86420  1.0000
  H   H21       1.0  0.86710  0.46338  0.46605  1.0000
  H   H22       1.0  0.63290  0.53662  0.96605  1.0000
  H   H23       1.0  0.13290  0.53662  0.53395  1.0000
  H   H24       1.0  0.36709  0.46338  0.03395  1.0000
  H   H25       1.0  0.26164  0.07428  0.63836  1.0000
  H   H26       1.0  0.23836  0.92572  0.13836  1.0000
  H   H27       1.0  0.73836  0.92572  0.36164  1.0000
  H   H28       1.0  0.76164  0.07428  0.86164  1.0000
  H   H29       1.0  0.66548  0.13296  0.51035  1.0000
  H   H30       1.0  0.83452  0.86704  0.01035  1.0000
  H   H31       1.0  0.33452  0.86704  0.48965  1.0000
  H   H32       1.0  0.16548  0.13296  0.98965  1.0000
  H   H33       1.0  0.48172  0.29392  0.47487  1.0000
  H   H34       1.0  0.01828  0.70608  0.97487  1.0000
  H   H35       1.0  0.51828  0.70608  0.52513  1.0000
  H   H36       1.0  0.98172  0.29392  0.02513  1.0000
  H   H37       1.0  0.84731  0.37118  0.61836  1.0000
  H   H38       1.0  0.65269  0.62882  0.11837  1.0000
  H   H39       1.0  0.15269  0.62882  0.38164  1.0000
  H   H40       1.0  0.34731  0.37118  0.88164  1.0000
  H   H41       1.0  0.29502  0.23147  0.57534  1.0000
  H   H42       1.0  0.20497  0.76853  0.07534  1.0000
  H   H43       1.0  0.70498  0.76853  0.42466  1.0000
  H   H44       1.0  0.79503  0.23147  0.92466  1.0000
  H   H45       1.0  0.68360  0.48994  0.40786  1.0000
  H   H46       1.0  0.81640  0.51006  0.90786  1.0000
  H   H47       1.0  0.31640  0.51006  0.59214  1.0000
  H   H48       1.0  0.18360  0.48994  0.09214  1.0000
  H   H49       1.0  0.93894  0.29158  0.53457  1.0000
  H   H50       1.0  0.56106  0.70842  0.03457  1.0000
  H   H51       1.0  0.06107  0.70842  0.46543  1.0000
  H   H52       1.0  0.43894  0.29158  0.96543  1.0000
  H   H53       1.0  0.89677  0.29245  0.38778  1.0000
  H   H54       1.0  0.60322  0.70754  0.88778  1.0000
  H   H55       1.0  0.10323  0.70754  0.61222  1.0000
  H   H56       1.0  0.39677  0.29246  0.11222  1.0000
  H   H57       1.0  0.95667  0.96416  0.63409  1.0000
  H   H58       1.0  0.54333  0.03584  0.13409  1.0000
  H   H59       1.0  0.04333  0.03584  0.36591  1.0000
  H   H60       1.0  0.45667  0.96417  0.86591  1.0000
  H   H61       1.0  0.21306  0.04664  0.48688  1.0000
  H   H62       1.0  0.28694  0.95336  0.98688  1.0000
  H   H63       1.0  0.78694  0.95335  0.51312  1.0000
  H   H64       1.0  0.71306  0.04665  0.01312  1.0000
  C   C1        1.0  0.60843  0.34063  0.50385  1.0000
  C   C2        1.0  0.89157  0.65937  0.00385  1.0000
  C   C3        1.0  0.39157  0.65937  0.49615  1.0000
  C   C4        1.0  0.10843  0.34063  0.99615  1.0000
  C   C5        1.0  0.84672  0.26943  0.58562  1.0000
  C   C6        1.0  0.65328  0.73058  0.08562  1.0000
  C   C7        1.0  0.15328  0.73057  0.41438  1.0000
  C   C8        1.0  0.34672  0.26943  0.91438  1.0000
  C   C9        1.0  0.53177  0.15977  0.61516  1.0000
  C   C10       1.0  0.96823  0.84023  0.11516  1.0000
  C   C11       1.0  0.46823  0.84023  0.38484  1.0000
  C   C12       1.0  0.03177  0.15977  0.88484  1.0000
  C   C13       1.0  0.34063  0.13005  0.58776  1.0000
  C   C14       1.0  0.15937  0.86995  0.08776  1.0000
  C   C15       1.0  0.65937  0.86994  0.41224  1.0000
  C   C16       1.0  0.84063  0.13005  0.91224  1.0000
  C   C17       1.0  0.74055  0.40789  0.43993  1.0000
  C   C18       1.0  0.75945  0.59211  0.93994  1.0000
  C   C19       1.0  0.25945  0.59211  0.56006  1.0000
  C   C20       1.0  0.24055  0.40789  0.06006  1.0000
  C   C21       1.0  0.90830  0.16238  0.64144  1.0000
  C   C22       1.0  0.59169  0.83762  0.14144  1.0000
  C   C23       1.0  0.09169  0.83762  0.35856  1.0000
  C   C24       1.0  0.40830  0.16238  0.85856  1.0000
  N   N1        1.0  0.66354  0.22008  0.55045  1.0000
  N   N2        1.0  0.83646  0.77992  0.05045  1.0000
  N   N3        1.0  0.33646  0.77992  0.44955  1.0000
  N   N4        1.0  0.16354  0.22008  0.94955  1.0000
  Cl  Cl1       1.0  0.02563  0.51551  0.23141  1.0000
  Cl  Cl2       1.0  0.47437  0.48449  0.73141  1.0000
  Cl  Cl3       1.0  0.97437  0.48449  0.76859  1.0000
  Cl  Cl4       1.0  0.52563  0.51551  0.26859  1.0000
  Cl  Cl5       1.0  0.66362  0.31824  0.08550  1.0000
  Cl  Cl6       1.0  0.83638  0.68176  0.58550  1.0000
  Cl  Cl7       1.0  0.33638  0.68176  0.91450  1.0000
  Cl  Cl8       1.0  0.16362  0.31824  0.41450  1.0000
  Cl  Cl9       1.0  0.92558  0.12109  0.24698  1.0000
  Cl  Cl10      1.0  0.57442  0.87891  0.74698  1.0000
  Cl  Cl11      1.0  0.07442  0.87891  0.75302  1.0000
  Cl  Cl12      1.0  0.42558  0.12109  0.25302  1.0000
  O   O1        1.0  0.76984  0.29955  0.38318  1.0000
  O   O2        1.0  0.73016  0.70044  0.88318  1.0000
  O   O3        1.0  0.23016  0.70044  0.61682  1.0000
  O   O4        1.0  0.26984  0.29956  0.11682  1.0000
  O   O5        1.0  0.32170  0.04123  0.51726  1.0000
  O   O6        1.0  0.17831  0.95877  0.01726  1.0000
  O   O7        1.0  0.67831  0.95877  0.48274  1.0000
  O   O8        1.0  0.82170  0.04123  0.98274  1.0000
  O   O9        1.0  0.93152  0.03796  0.59626  1.0000
  O   O10       1.0  0.56848  0.96204  0.09626  1.0000
  O   O11       1.0  0.06848  0.96204  0.40374  1.0000
  O   O12       1.0  0.43152  0.03796  0.90374  1.0000
