data_image0
_chemical_formula_structural       Zn4H24C40N12O8
_chemical_formula_sum              "Zn4 H24 C40 N12 O8"
_cell_length_a       9.23213
_cell_length_b       9.83726
_cell_length_c       10.743
_cell_angle_alpha    90
_cell_angle_beta     95.8992
_cell_angle_gamma    90

_space_group_name_H-M_alt    "P 1"
_space_group_IT_number       1

loop_
  _space_group_symop_operation_xyz
  'x, y, z'

loop_
  _atom_site_type_symbol
  _atom_site_label
  _atom_site_symmetry_multiplicity
  _atom_site_fract_x
  _atom_site_fract_y
  _atom_site_fract_z
  _atom_site_occupancy
  Zn  Zn1       1.0  0.77902  0.27232  0.13974  1.0000
  Zn  Zn2       1.0  0.72098  0.77232  0.86026  1.0000
  Zn  Zn3       1.0  0.22098  0.72768  0.86026  1.0000
  Zn  Zn4       1.0  0.27902  0.22768  0.13974  1.0000
  H   H1        1.0  0.96033  0.93238  0.67774  1.0000
  H   H2        1.0  0.53967  0.43238  0.32226  1.0000
  H   H3        1.0  0.03967  0.06762  0.32226  1.0000
  H   H4        1.0  0.46033  0.56762  0.67774  1.0000
  H   H5        1.0  0.09967  0.13281  0.61311  1.0000
  H   H6        1.0  0.40033  0.63281  0.38689  1.0000
  H   H7        1.0  0.90033  0.86719  0.38689  1.0000
  H   H8        1.0  0.59967  0.36719  0.61311  1.0000
  H   H9        1.0  0.10782  0.34670  0.73108  1.0000
  H   H10       1.0  0.39218  0.84670  0.26892  1.0000
  H   H11       1.0  0.89218  0.65331  0.26892  1.0000
  H   H12       1.0  0.60782  0.15331  0.73108  1.0000
  H   H13       1.0  0.97409  0.37356  0.92083  1.0000
  H   H14       1.0  0.52592  0.87356  0.07917  1.0000
  H   H15       1.0  0.02591  0.62644  0.07917  1.0000
  H   H16       1.0  0.47409  0.12644  0.92083  1.0000
  H   H17       1.0  0.75953  0.02162  0.46198  1.0000
  H   H18       1.0  0.74047  0.52162  0.53802  1.0000
  H   H19       1.0  0.24048  0.97838  0.53803  1.0000
  H   H20       1.0  0.25952  0.47838  0.46197  1.0000
  H   H21       1.0  0.30910  0.11855  0.36133  1.0000
  H   H22       1.0  0.19090  0.61855  0.63867  1.0000
  H   H23       1.0  0.69090  0.88145  0.63867  1.0000
  H   H24       1.0  0.80909  0.38145  0.36133  1.0000
  C   C1        1.0  0.88779  0.04200  0.83703  1.0000
  C   C2        1.0  0.61221  0.54200  0.16297  1.0000
  C   C3        1.0  0.11221  0.95800  0.16297  1.0000
  C   C4        1.0  0.38779  0.45800  0.83703  1.0000
  C   C5        1.0  0.96202  0.02723  0.73000  1.0000
  C   C6        1.0  0.53799  0.52723  0.27000  1.0000
  C   C7        1.0  0.03799  0.97277  0.27000  1.0000
  C   C8        1.0  0.46201  0.47277  0.73000  1.0000
  C   C9        1.0  0.03975  0.13915  0.69515  1.0000
  C   C10       1.0  0.46025  0.63915  0.30485  1.0000
  C   C11       1.0  0.96025  0.86085  0.30485  1.0000
  C   C12       1.0  0.53975  0.36085  0.69515  1.0000
  C   C13       1.0  0.04485  0.26253  0.76323  1.0000
  C   C14       1.0  0.45515  0.76253  0.23677  1.0000
  C   C15       1.0  0.95515  0.73747  0.23677  1.0000
  C   C16       1.0  0.54485  0.23747  0.76323  1.0000
  C   C17       1.0  0.97191  0.27847  0.86873  1.0000
  C   C18       1.0  0.52809  0.77847  0.13127  1.0000
  C   C19       1.0  0.02809  0.72153  0.13127  1.0000
  C   C20       1.0  0.47191  0.22153  0.86873  1.0000
  C   C21       1.0  0.89344  0.16545  0.90484  1.0000
  C   C22       1.0  0.60656  0.66545  0.09516  1.0000
  C   C23       1.0  0.10656  0.83455  0.09516  1.0000
  C   C24       1.0  0.39344  0.33455  0.90484  1.0000
  C   C25       1.0  0.58345  0.15291  0.28830  1.0000
  C   C26       1.0  0.91655  0.65291  0.71170  1.0000
  C   C27       1.0  0.41656  0.84708  0.71171  1.0000
  C   C28       1.0  0.08345  0.34708  0.28829  1.0000
  C   C29       1.0  0.53902  0.07666  0.39839  1.0000
  C   C30       1.0  0.96098  0.57666  0.60161  1.0000
  C   C31       1.0  0.46098  0.92334  0.60161  1.0000
  C   C32       1.0  0.03902  0.42334  0.39839  1.0000
  C   C33       1.0  0.64601  0.01136  0.47916  1.0000
  C   C34       1.0  0.85399  0.51136  0.52084  1.0000
  C   C35       1.0  0.35400  0.98864  0.52084  1.0000
  C   C36       1.0  0.14600  0.48864  0.47916  1.0000
  C   C37       1.0  0.39272  0.06527  0.42088  1.0000
  C   C38       1.0  0.10728  0.56527  0.57911  1.0000
  C   C39       1.0  0.60728  0.93473  0.57912  1.0000
  C   C40       1.0  0.89272  0.43473  0.42088  1.0000
  N   N1        1.0  0.80979  0.14621  0.00187  1.0000
  N   N2        1.0  0.69021  0.64621  0.99814  1.0000
  N   N3        1.0  0.19021  0.85379  0.99814  1.0000
  N   N4        1.0  0.30979  0.35379  0.00187  1.0000
  N   N5        1.0  0.75468  0.02131  0.99574  1.0000
  N   N6        1.0  0.74532  0.52131  0.00426  1.0000
  N   N7        1.0  0.24532  0.97869  0.00425  1.0000
  N   N8        1.0  0.25468  0.47869  0.99575  1.0000
  N   N9        1.0  0.79994  0.95654  0.89740  1.0000
  N   N10       1.0  0.70006  0.45654  0.10260  1.0000
  N   N11       1.0  0.20006  0.04346  0.10260  1.0000
  N   N12       1.0  0.29994  0.54346  0.89740  1.0000
  O   O1        1.0  0.72031  0.17620  0.28814  1.0000
  O   O2        1.0  0.77969  0.67619  0.71186  1.0000
  O   O3        1.0  0.27970  0.82380  0.71186  1.0000
  O   O4        1.0  0.22030  0.32380  0.28814  1.0000
  O   O5        1.0  0.49237  0.19221  0.19912  1.0000
  O   O6        1.0  0.00763  0.69221  0.80088  1.0000
  O   O7        1.0  0.50763  0.80779  0.80089  1.0000
  O   O8        1.0  0.99237  0.30779  0.19911  1.0000
