data_image0
_chemical_formula_structural       Zn2H16C26N2Cl2O8
_chemical_formula_sum              "Zn2 H16 C26 N2 Cl2 O8"
_cell_length_a       7.62931
_cell_length_b       9.70469
_cell_length_c       10.7035
_cell_angle_alpha    114.857
_cell_angle_beta     95.1101
_cell_angle_gamma    102.329

_space_group_name_H-M_alt    "P 1"
_space_group_IT_number       1

loop_
  _space_group_symop_operation_xyz
  'x, y, z'

loop_
  _atom_site_type_symbol
  _atom_site_label
  _atom_site_symmetry_multiplicity
  _atom_site_fract_x
  _atom_site_fract_y
  _atom_site_fract_z
  _atom_site_occupancy
  Zn  Zn1       1.0  0.35142  0.03236  0.43037  1.0000
  Zn  Zn2       1.0  0.64858  0.96764  0.56963  1.0000
  H   H1        1.0  0.94864  0.92104  0.32118  1.0000
  H   H2        1.0  0.05136  0.07896  0.67882  1.0000
  H   H3        1.0  0.72061  0.96576  0.16896  1.0000
  H   H4        1.0  0.27938  0.03424  0.83105  1.0000
  H   H5        1.0  0.16695  0.30643  0.14347  1.0000
  H   H6        1.0  0.83304  0.69357  0.85653  1.0000
  H   H7        1.0  0.37702  0.24583  0.29589  1.0000
  H   H8        1.0  0.62297  0.75417  0.70410  1.0000
  H   H9        1.0  0.11721  0.33400  0.59330  1.0000
  H   H10       1.0  0.88279  0.66600  0.40670  1.0000
  H   H11       1.0  0.66861  0.42907  0.40016  1.0000
  H   H12       1.0  0.33139  0.57093  0.59984  1.0000
  H   H13       1.0  0.20262  0.36704  0.82846  1.0000
  H   H14       1.0  0.79739  0.63296  0.17155  1.0000
  H   H15       1.0  0.77023  0.39980  0.94128  1.0000
  H   H16       1.0  0.22978  0.60020  0.05872  1.0000
  C   C1        1.0  0.99164  0.00360  0.27809  1.0000
  C   C2        1.0  0.00836  0.99640  0.72191  1.0000
  C   C3        1.0  0.86521  0.02849  0.19376  1.0000
  C   C4        1.0  0.13479  0.97151  0.80624  1.0000
  C   C5        1.0  0.92818  0.13825  0.14427  1.0000
  C   C6        1.0  0.07181  0.86175  0.85573  1.0000
  C   C7        1.0  0.11403  0.21980  0.18021  1.0000
  C   C8        1.0  0.88596  0.78020  0.81979  1.0000
  C   C9        1.0  0.23057  0.18696  0.26458  1.0000
  C   C10       1.0  0.76943  0.81304  0.73542  1.0000
  C   C11       1.0  0.74953  0.22572  0.49369  1.0000
  C   C12       1.0  0.25047  0.77427  0.50631  1.0000
  C   C13       1.0  0.87908  0.36732  0.49685  1.0000
  C   C14       1.0  0.12092  0.63268  0.50315  1.0000
  C   C15       1.0  0.06614  0.40767  0.55370  1.0000
  C   C16       1.0  0.93386  0.59233  0.44630  1.0000
  C   C17       1.0  0.81414  0.46055  0.44340  1.0000
  C   C18       1.0  0.18586  0.53945  0.55660  1.0000
  C   C19       1.0  0.47152  0.22693  0.73569  1.0000
  C   C20       1.0  0.52849  0.77307  0.26431  1.0000
  C   C21       1.0  0.48510  0.36885  0.87148  1.0000
  C   C22       1.0  0.51491  0.63115  0.12852  1.0000
  C   C23       1.0  0.33235  0.42527  0.90401  1.0000
  C   C24       1.0  0.66766  0.57473  0.09599  1.0000
  C   C25       1.0  0.65273  0.44492  0.96803  1.0000
  C   C26       1.0  0.34728  0.55508  0.03197  1.0000
  N   N1        1.0  0.17114  0.08083  0.31254  1.0000
  N   N2        1.0  0.82886  0.91917  0.68746  1.0000
  Cl  Cl1       1.0  0.77782  0.17162  0.03819  1.0000
  Cl  Cl2       1.0  0.22217  0.82838  0.96181  1.0000
  O   O1        1.0  0.58172  0.19447  0.43895  1.0000
  O   O2        1.0  0.41828  0.80553  0.56105  1.0000
  O   O3        1.0  0.81594  0.14702  0.54578  1.0000
  O   O4        1.0  0.18406  0.85298  0.45421  1.0000
  O   O5        1.0  0.34614  0.19452  0.63241  1.0000
  O   O6        1.0  0.65386  0.80548  0.36759  1.0000
  O   O7        1.0  0.58667  0.14947  0.73549  1.0000
  O   O8        1.0  0.41335  0.85054  0.26451  1.0000
