data_image0
_chemical_formula_structural       Zn2H16C26Br2N2O8
_chemical_formula_sum              "Zn2 H16 C26 Br2 N2 O8"
_cell_length_a       7.6557
_cell_length_b       9.77353
_cell_length_c       10.753
_cell_angle_alpha    115.251
_cell_angle_beta     94.5011
_cell_angle_gamma    102.977

_space_group_name_H-M_alt    "P 1"
_space_group_IT_number       1

loop_
  _space_group_symop_operation_xyz
  'x, y, z'

loop_
  _atom_site_type_symbol
  _atom_site_label
  _atom_site_symmetry_multiplicity
  _atom_site_fract_x
  _atom_site_fract_y
  _atom_site_fract_z
  _atom_site_occupancy
  Zn  Zn1       1.0  0.35180  0.03086  0.43062  1.0000
  Zn  Zn2       1.0  0.64820  0.96913  0.56938  1.0000
  H   H1        1.0  0.94968  0.92475  0.32413  1.0000
  H   H2        1.0  0.05033  0.07525  0.67586  1.0000
  H   H3        1.0  0.72688  0.97207  0.17474  1.0000
  H   H4        1.0  0.27312  0.02793  0.82527  1.0000
  H   H5        1.0  0.18135  0.30856  0.14979  1.0000
  H   H6        1.0  0.81865  0.69145  0.85022  1.0000
  H   H7        1.0  0.38571  0.24500  0.29922  1.0000
  H   H8        1.0  0.61430  0.75500  0.70077  1.0000
  H   H9        1.0  0.11737  0.34091  0.59785  1.0000
  H   H10       1.0  0.88264  0.65909  0.40216  1.0000
  H   H11       1.0  0.66954  0.42239  0.39868  1.0000
  H   H12       1.0  0.33047  0.57760  0.60132  1.0000
  H   H13       1.0  0.19792  0.35359  0.83700  1.0000
  H   H14       1.0  0.80208  0.64640  0.16299  1.0000
  H   H15       1.0  0.77399  0.41338  0.93178  1.0000
  H   H16       1.0  0.22601  0.58662  0.06820  1.0000
  C   C1        1.0  0.99568  0.00714  0.28198  1.0000
  C   C2        1.0  0.00433  0.99287  0.71802  1.0000
  C   C3        1.0  0.87193  0.03357  0.19898  1.0000
  C   C4        1.0  0.12808  0.96643  0.80102  1.0000
  C   C5        1.0  0.93879  0.14295  0.15067  1.0000
  C   C6        1.0  0.06121  0.85706  0.84934  1.0000
  C   C7        1.0  0.12517  0.22248  0.18589  1.0000
  C   C8        1.0  0.87483  0.77753  0.81412  1.0000
  C   C9        1.0  0.23875  0.18805  0.26876  1.0000
  C   C10       1.0  0.76125  0.81195  0.73124  1.0000
  C   C11       1.0  0.75129  0.22584  0.49545  1.0000
  C   C12       1.0  0.24871  0.77415  0.50455  1.0000
  C   C13       1.0  0.88016  0.36773  0.49820  1.0000
  C   C14       1.0  0.11985  0.63227  0.50181  1.0000
  C   C15       1.0  0.06659  0.41152  0.55607  1.0000
  C   C16       1.0  0.93343  0.58847  0.44394  1.0000
  C   C17       1.0  0.81474  0.45711  0.44254  1.0000
  C   C18       1.0  0.18527  0.54289  0.55746  1.0000
  C   C19       1.0  0.47108  0.22645  0.73622  1.0000
  C   C20       1.0  0.52892  0.77354  0.26377  1.0000
  C   C21       1.0  0.48465  0.36885  0.87153  1.0000
  C   C22       1.0  0.51535  0.63115  0.12846  1.0000
  C   C23       1.0  0.32965  0.41765  0.90889  1.0000
  C   C24       1.0  0.67035  0.58235  0.09110  1.0000
  C   C25       1.0  0.65487  0.45258  0.96299  1.0000
  C   C26       1.0  0.34513  0.54742  0.03701  1.0000
  Br  Br1       1.0  0.77801  0.18143  0.03533  1.0000
  Br  Br2       1.0  0.22198  0.81859  0.96469  1.0000
  N   N1        1.0  0.17574  0.08246  0.31594  1.0000
  N   N2        1.0  0.82426  0.91754  0.68406  1.0000
  O   O1        1.0  0.58383  0.19263  0.44084  1.0000
  O   O2        1.0  0.41618  0.80737  0.55916  1.0000
  O   O3        1.0  0.81766  0.14871  0.54730  1.0000
  O   O4        1.0  0.18234  0.85128  0.45270  1.0000
  O   O5        1.0  0.34564  0.19149  0.63348  1.0000
  O   O6        1.0  0.65434  0.80850  0.36651  1.0000
  O   O7        1.0  0.58694  0.15121  0.73607  1.0000
  O   O8        1.0  0.41306  0.84878  0.26392  1.0000
