data_image0
_chemical_formula_structural       Cd2H20C24N12O4
_chemical_formula_sum              "Cd2 H20 C24 N12 O4"
_cell_length_a       7.76851
_cell_length_b       9.80501
_cell_length_c       10.7931
_cell_angle_alpha    85.5482
_cell_angle_beta     72.4333
_cell_angle_gamma    87.0441

_space_group_name_H-M_alt    "P 1"
_space_group_IT_number       1

loop_
  _space_group_symop_operation_xyz
  'x, y, z'

loop_
  _atom_site_type_symbol
  _atom_site_label
  _atom_site_symmetry_multiplicity
  _atom_site_fract_x
  _atom_site_fract_y
  _atom_site_fract_z
  _atom_site_occupancy
  Cd  Cd1       1.0  0.09795  0.15823  0.60012  1.0000
  Cd  Cd2       1.0  0.90204  0.84178  0.39988  1.0000
  H   H1        1.0  0.35814  0.26808  0.76898  1.0000
  H   H2        1.0  0.64185  0.73192  0.23102  1.0000
  H   H3        1.0  0.57996  0.17634  0.88397  1.0000
  H   H4        1.0  0.42003  0.82367  0.11604  1.0000
  H   H5        1.0  0.69787  0.93447  0.85348  1.0000
  H   H6        1.0  0.30214  0.06553  0.14651  1.0000
  H   H7        1.0  0.58369  0.79015  0.71762  1.0000
  H   H8        1.0  0.41631  0.20986  0.28238  1.0000
  H   H9        1.0  0.26268  0.44894  0.64421  1.0000
  H   H10       1.0  0.73732  0.55105  0.35580  1.0000
  H   H11       1.0  0.19882  0.57765  0.26635  1.0000
  H   H12       1.0  0.80119  0.42235  0.73365  1.0000
  H   H13       1.0  0.74968  0.10309  0.04505  1.0000
  H   H14       1.0  0.25034  0.89689  0.95496  1.0000
  H   H15       1.0  0.82177  0.27536  0.04145  1.0000
  H   H16       1.0  0.17824  0.72462  0.95856  1.0000
  H   H17       1.0  0.96384  0.13002  0.05975  1.0000
  H   H18       1.0  0.03617  0.86997  0.94026  1.0000
  H   H19       1.0  0.47540  0.69059  0.57357  1.0000
  H   H20       1.0  0.52461  0.30942  0.42642  1.0000
  C   C1        1.0  0.41134  0.16293  0.75975  1.0000
  C   C2        1.0  0.58865  0.83707  0.24026  1.0000
  C   C3        1.0  0.53353  0.11082  0.82431  1.0000
  C   C4        1.0  0.46647  0.88918  0.17568  1.0000
  C   C5        1.0  0.59693  0.97564  0.80830  1.0000
  C   C6        1.0  0.40308  0.02437  0.19170  1.0000
  C   C7        1.0  0.53343  0.89581  0.73108  1.0000
  C   C8        1.0  0.46657  0.10420  0.26891  1.0000
  C   C9        1.0  0.40832  0.95579  0.67169  1.0000
  C   C10       1.0  0.59167  0.04422  0.32831  1.0000
  C   C11       1.0  0.32501  0.87929  0.59540  1.0000
  C   C12       1.0  0.67498  0.12072  0.40459  1.0000
  C   C13       1.0  0.24681  0.71099  0.50207  1.0000
  C   C14       1.0  0.75320  0.28901  0.49792  1.0000
  C   C15       1.0  0.24085  0.57401  0.46532  1.0000
  C   C16       1.0  0.75915  0.42599  0.53469  1.0000
  C   C17       1.0  0.25640  0.45663  0.54467  1.0000
  C   C18       1.0  0.74359  0.54337  0.45533  1.0000
  C   C19       1.0  0.21914  0.52161  0.35208  1.0000
  C   C20       1.0  0.78086  0.47839  0.64793  1.0000
  C   C21       1.0  0.94452  0.16974  0.86577  1.0000
  C   C22       1.0  0.05548  0.83027  0.13424  1.0000
  C   C23       1.0  0.86418  0.17152  0.01163  1.0000
  C   C24       1.0  0.13582  0.82846  0.98838  1.0000
  N   N1        1.0  0.35122  0.08765  0.68402  1.0000
  N   N2        1.0  0.64876  0.91235  0.31599  1.0000
  N   N3        1.0  0.19594  0.92742  0.54514  1.0000
  N   N4        1.0  0.80405  0.07258  0.45486  1.0000
  N   N5        1.0  0.14619  0.82281  0.48693  1.0000
  N   N6        1.0  0.85381  0.17719  0.51306  1.0000
  N   N7        1.0  0.35989  0.74501  0.57007  1.0000
  N   N8        1.0  0.64011  0.25499  0.42992  1.0000
  N   N9        1.0  0.22354  0.38475  0.36238  1.0000
  N   N10       1.0  0.77645  0.61524  0.63762  1.0000
  N   N11       1.0  0.24524  0.34437  0.48246  1.0000
  N   N12       1.0  0.75475  0.65562  0.51754  1.0000
  O   O1        1.0  0.95263  0.05608  0.81325  1.0000
  O   O2        1.0  0.04737  0.94392  0.18675  1.0000
  O   O3        1.0  0.00243  0.28013  0.79845  1.0000
  O   O4        1.0  0.99755  0.71988  0.20156  1.0000
