data_image0
_chemical_formula_structural       Cd4H36C40N24Cl4O4
_chemical_formula_sum              "Cd4 H36 C40 N24 Cl4 O4"
_cell_length_a       10.8991
_cell_length_b       10.4432
_cell_length_c       13.672
_cell_angle_alpha    111.434
_cell_angle_beta     110.496
_cell_angle_gamma    90.5541

_space_group_name_H-M_alt    "P 1"
_space_group_IT_number       1

loop_
  _space_group_symop_operation_xyz
  'x, y, z'

loop_
  _atom_site_type_symbol
  _atom_site_label
  _atom_site_symmetry_multiplicity
  _atom_site_fract_x
  _atom_site_fract_y
  _atom_site_fract_z
  _atom_site_occupancy
  Cd  Cd1       1.0  0.65022  0.09463  0.99090  1.0000
  Cd  Cd2       1.0  0.90425  0.34813  0.50834  1.0000
  Cd  Cd3       1.0  0.34978  0.90537  0.00910  1.0000
  Cd  Cd4       1.0  0.09575  0.65187  0.49166  1.0000
  H   H1        1.0  0.42843  0.31420  0.00204  1.0000
  H   H2        1.0  0.68619  0.57217  0.49801  1.0000
  H   H3        1.0  0.57158  0.68580  0.99797  1.0000
  H   H4        1.0  0.31381  0.42783  0.50199  1.0000
  H   H5        1.0  0.29414  0.44014  0.88632  1.0000
  H   H6        1.0  0.55849  0.70535  0.61286  1.0000
  H   H7        1.0  0.70586  0.55986  0.11368  1.0000
  H   H8        1.0  0.44151  0.29465  0.38713  1.0000
  H   H9        1.0  0.32437  0.41689  0.70745  1.0000
  H   H10       1.0  0.58173  0.67446  0.79157  1.0000
  H   H11       1.0  0.67563  0.58311  0.29255  1.0000
  H   H12       1.0  0.41826  0.32554  0.20842  1.0000
  H   H13       1.0  0.48450  0.26180  0.64822  1.0000
  H   H14       1.0  0.73763  0.51500  0.85132  1.0000
  H   H15       1.0  0.51550  0.73821  0.35178  1.0000
  H   H16       1.0  0.26236  0.48501  0.14868  1.0000
  H   H17       1.0  0.95465  0.80517  0.69713  1.0000
  H   H18       1.0  0.19984  0.05003  0.80546  1.0000
  H   H19       1.0  0.04535  0.19483  0.30287  1.0000
  H   H20       1.0  0.80016  0.94997  0.19455  1.0000
  H   H21       1.0  0.74216  0.99417  0.46463  1.0000
  H   H22       1.0  0.00248  0.25572  0.03383  1.0000
  H   H23       1.0  0.25784  0.00583  0.53537  1.0000
  H   H24       1.0  0.99752  0.74428  0.96617  1.0000
  H   H25       1.0  0.90805  0.84621  0.39868  1.0000
  H   H26       1.0  0.15559  0.09309  0.10215  1.0000
  H   H27       1.0  0.09195  0.15379  0.60132  1.0000
  H   H28       1.0  0.84441  0.90691  0.89785  1.0000
  H   H29       1.0  0.84288  0.34511  0.18732  1.0000
  H   H30       1.0  0.65762  0.15773  0.31197  1.0000
  H   H31       1.0  0.15711  0.65489  0.81268  1.0000
  H   H32       1.0  0.34238  0.84227  0.68803  1.0000
  H   H33       1.0  0.82892  0.36771  0.07657  1.0000
  H   H34       1.0  0.63883  0.17579  0.42477  1.0000
  H   H35       1.0  0.17108  0.63229  0.92343  1.0000
  H   H36       1.0  0.36117  0.82421  0.57522  1.0000
  C   C1        1.0  0.43736  0.30660  0.92306  1.0000
  C   C2        1.0  0.69337  0.56271  0.57672  1.0000
  C   C3        1.0  0.56264  0.69340  0.07694  1.0000
  C   C4        1.0  0.30663  0.43729  0.42328  1.0000
  C   C5        1.0  0.36387  0.37681  0.85889  1.0000
  C   C6        1.0  0.62223  0.63549  0.64041  1.0000
  C   C7        1.0  0.63613  0.62319  0.14111  1.0000
  C   C8        1.0  0.37777  0.36451  0.35958  1.0000
  C   C9        1.0  0.38079  0.36255  0.75893  1.0000
  C   C10       1.0  0.63647  0.61832  0.74029  1.0000
  C   C11       1.0  0.61921  0.63745  0.24107  1.0000
  C   C12       1.0  0.36352  0.38168  0.25971  1.0000
  C   C13       1.0  0.46864  0.27752  0.72583  1.0000
  C   C14       1.0  0.72199  0.53086  0.77371  1.0000
  C   C15       1.0  0.53136  0.72248  0.27417  1.0000
  C   C16       1.0  0.27801  0.46915  0.22629  1.0000
  C   C17       1.0  0.53825  0.20867  0.79385  1.0000
  C   C18       1.0  0.79142  0.46180  0.70605  1.0000
  C   C19       1.0  0.46176  0.79134  0.20615  1.0000
  C   C20       1.0  0.20858  0.53820  0.29395  1.0000
  C   C21       1.0  0.63009  0.11567  0.76424  1.0000
  C   C22       1.0  0.88424  0.36997  0.73568  1.0000
  C   C23       1.0  0.36992  0.88433  0.23576  1.0000
  C   C24       1.0  0.11576  0.63003  0.26432  1.0000
  C   C25       1.0  0.74843  0.99171  0.68733  1.0000
  C   C26       1.0  0.00817  0.25229  0.81284  1.0000
  C   C27       1.0  0.25157  0.00829  0.31267  1.0000
  C   C28       1.0  0.99182  0.74771  0.18716  1.0000
  C   C29       1.0  0.81544  0.92542  0.61176  1.0000
  C   C30       1.0  0.07484  0.18580  0.88872  1.0000
  C   C31       1.0  0.18456  0.07458  0.38823  1.0000
  C   C32       1.0  0.92516  0.81420  0.11128  1.0000
  C   C33       1.0  0.91424  0.84046  0.62849  1.0000
  C   C34       1.0  0.16332  0.08940  0.87355  1.0000
  C   C35       1.0  0.08577  0.15954  0.37151  1.0000
  C   C36       1.0  0.83669  0.91061  0.12646  1.0000
  C   C37       1.0  0.80309  0.93703  0.51012  1.0000
  C   C38       1.0  0.06201  0.19682  0.98968  1.0000
  C   C39       1.0  0.19690  0.06296  0.48988  1.0000
  C   C40       1.0  0.93799  0.80318  0.01032  1.0000
  N   N1        1.0  0.52258  0.22523  0.89190  1.0000
  N   N2        1.0  0.77546  0.47790  0.60827  1.0000
  N   N3        1.0  0.47743  0.77477  0.10810  1.0000
  N   N4        1.0  0.22454  0.52210  0.39173  1.0000
  N   N5        1.0  0.69792  0.05586  0.83473  1.0000
  N   N6        1.0  0.94399  0.30132  0.66503  1.0000
  N   N7        1.0  0.30208  0.94414  0.16527  1.0000
  N   N8        1.0  0.05601  0.69868  0.33497  1.0000
  N   N9        1.0  0.77419  0.97548  0.78657  1.0000
  N   N10       1.0  0.02450  0.22562  0.71343  1.0000
  N   N11       1.0  0.22581  0.02451  0.21343  1.0000
  N   N12       1.0  0.97550  0.77439  0.28657  1.0000
  N   N13       1.0  0.65826  0.07800  0.66972  1.0000
  N   N14       1.0  0.92181  0.34274  0.83043  1.0000
  N   N15       1.0  0.34174  0.92200  0.33028  1.0000
  N   N16       1.0  0.07819  0.65727  0.16957  1.0000
  N   N17       1.0  0.88991  0.86339  0.47251  1.0000
  N   N18       1.0  0.13873  0.11183  0.02858  1.0000
  N   N19       1.0  0.11009  0.13661  0.52749  1.0000
  N   N20       1.0  0.86127  0.88817  0.97142  1.0000
  N   N21       1.0  0.95867  0.80405  0.54381  1.0000
  N   N22       1.0  0.20130  0.04561  0.95882  1.0000
  N   N23       1.0  0.04134  0.19595  0.45619  1.0000
  N   N24       1.0  0.79870  0.95439  0.04118  1.0000
  Cl  Cl1       1.0  0.55390  0.14040  0.14320  1.0000
  Cl  Cl2       1.0  0.86309  0.44822  0.35799  1.0000
  Cl  Cl3       1.0  0.44610  0.85960  0.85680  1.0000
  Cl  Cl4       1.0  0.13691  0.55178  0.64201  1.0000
  O   O1        1.0  0.83210  0.29601  0.10670  1.0000
  O   O2        1.0  0.70522  0.16533  0.39099  1.0000
  O   O3        1.0  0.16790  0.70399  0.89330  1.0000
  O   O4        1.0  0.29478  0.83467  0.60901  1.0000
