data_image0
_chemical_formula_structural       Zn2H36C36S4N8O24
_chemical_formula_sum              "Zn2 H36 C36 S4 N8 O24"
_cell_length_a       7.02705
_cell_length_b       10.3727
_cell_length_c       15.954
_cell_angle_alpha    100.331
_cell_angle_beta     90
_cell_angle_gamma    90

_space_group_name_H-M_alt    "P 1"
_space_group_IT_number       1

loop_
  _space_group_symop_operation_xyz
  'x, y, z'

loop_
  _atom_site_type_symbol
  _atom_site_label
  _atom_site_symmetry_multiplicity
  _atom_site_fract_x
  _atom_site_fract_y
  _atom_site_fract_z
  _atom_site_occupancy
  Zn  Zn1       1.0  0.99999  1.00000  0.00000  1.0000
  Zn  Zn2       1.0  0.50001  0.00000  0.50000  1.0000
  H   H1        1.0  0.13894  0.75921  0.07611  1.0000
  H   H2        1.0  0.63895  0.24079  0.42390  1.0000
  H   H3        1.0  0.86105  0.24078  0.92390  1.0000
  H   H4        1.0  0.36105  0.75921  0.57610  1.0000
  H   H5        1.0  0.29046  0.54122  0.02515  1.0000
  H   H6        1.0  0.79049  0.45877  0.47485  1.0000
  H   H7        1.0  0.70954  0.45877  0.97485  1.0000
  H   H8        1.0  0.20953  0.54123  0.52515  1.0000
  H   H9        1.0  0.40359  0.48653  0.87381  1.0000
  H   H10       1.0  0.90361  0.51346  0.62619  1.0000
  H   H11       1.0  0.59640  0.51346  0.12619  1.0000
  H   H12       1.0  0.09640  0.48654  0.37381  1.0000
  H   H13       1.0  0.18441  0.86458  0.83975  1.0000
  H   H14       1.0  0.68440  0.13542  0.66025  1.0000
  H   H15       1.0  0.81558  0.13542  0.16025  1.0000
  H   H16       1.0  0.31560  0.86458  0.33975  1.0000
  H   H17       1.0  0.52844  0.88811  0.77497  1.0000
  H   H18       1.0  0.02845  0.11189  0.72503  1.0000
  H   H19       1.0  0.47155  0.11189  0.22503  1.0000
  H   H20       1.0  0.97155  0.88811  0.27497  1.0000
  H   H21       1.0  0.82897  0.96735  0.73352  1.0000
  H   H22       1.0  0.32898  0.03265  0.76648  1.0000
  H   H23       1.0  0.17102  0.03265  0.26648  1.0000
  H   H24       1.0  0.67102  0.96735  0.23352  1.0000
  H   H25       1.0  0.93331  0.80711  0.71449  1.0000
  H   H26       1.0  0.43332  0.19290  0.78551  1.0000
  H   H27       1.0  0.06668  0.19290  0.28551  1.0000
  H   H28       1.0  0.56668  0.80710  0.21449  1.0000
  H   H29       1.0  0.64811  0.65568  0.67794  1.0000
  H   H30       1.0  0.14811  0.34432  0.82206  1.0000
  H   H31       1.0  0.35189  0.34432  0.32206  1.0000
  H   H32       1.0  0.85190  0.65568  0.17794  1.0000
  H   H33       1.0  0.75509  0.65019  0.84633  1.0000
  H   H34       1.0  0.25510  0.34982  0.65367  1.0000
  H   H35       1.0  0.24490  0.34981  0.15367  1.0000
  H   H36       1.0  0.74491  0.65019  0.34633  1.0000
  C   C1        1.0  0.18588  0.73167  0.01071  1.0000
  C   C2        1.0  0.68590  0.26833  0.48929  1.0000
  C   C3        1.0  0.81410  0.26833  0.98929  1.0000
  C   C4        1.0  0.31411  0.73167  0.51071  1.0000
  C   C5        1.0  0.27410  0.61102  0.98221  1.0000
  C   C6        1.0  0.77412  0.38898  0.51779  1.0000
  C   C7        1.0  0.72590  0.38898  0.01779  1.0000
  C   C8        1.0  0.22589  0.61102  0.48220  1.0000
  C   C9        1.0  0.33562  0.58022  0.89821  1.0000
  C   C10       1.0  0.83564  0.41978  0.60179  1.0000
  C   C11       1.0  0.66437  0.41977  0.10179  1.0000
  C   C12       1.0  0.16438  0.58023  0.39821  1.0000
  C   C13       1.0  0.30270  0.67309  0.84633  1.0000
  C   C14       1.0  0.80270  0.32691  0.65368  1.0000
  C   C15       1.0  0.69729  0.32691  0.15367  1.0000
  C   C16       1.0  0.19730  0.67309  0.34632  1.0000
  C   C17       1.0  0.21227  0.79087  0.87881  1.0000
  C   C18       1.0  0.71226  0.20913  0.62119  1.0000
  C   C19       1.0  0.78773  0.20913  0.12119  1.0000
  C   C20       1.0  0.28775  0.79088  0.37881  1.0000
  C   C21       1.0  0.65047  0.82082  0.77188  1.0000
  C   C22       1.0  0.15048  0.17918  0.72812  1.0000
  C   C23       1.0  0.34953  0.17918  0.22812  1.0000
  C   C24       1.0  0.84953  0.82082  0.27188  1.0000
  C   C25       1.0  0.73680  0.83705  0.86072  1.0000
  C   C26       1.0  0.23681  0.16295  0.63928  1.0000
  C   C27       1.0  0.26319  0.16294  0.13928  1.0000
  C   C28       1.0  0.76320  0.83705  0.36072  1.0000
  C   C29       1.0  0.80133  0.86291  0.71165  1.0000
  C   C30       1.0  0.30133  0.13709  0.78835  1.0000
  C   C31       1.0  0.19867  0.13709  0.28834  1.0000
  C   C32       1.0  0.69867  0.86291  0.21165  1.0000
  C   C33       1.0  0.72171  0.83406  0.62086  1.0000
  C   C34       1.0  0.22172  0.16596  0.87914  1.0000
  C   C35       1.0  0.27828  0.16595  0.37914  1.0000
  C   C36       1.0  0.77828  0.83404  0.12086  1.0000
  S   S1        1.0  0.36607  0.64855  0.73782  1.0000
  S   S2        1.0  0.86607  0.35143  0.76218  1.0000
  S   S3        1.0  0.63393  0.35143  0.26218  1.0000
  S   S4        1.0  0.13394  0.64856  0.23782  1.0000
  N   N1        1.0  0.15562  0.81999  0.96009  1.0000
  N   N2        1.0  0.65562  0.18001  0.53992  1.0000
  N   N3        1.0  0.84437  0.18000  0.03991  1.0000
  N   N4        1.0  0.34438  0.81999  0.46009  1.0000
  N   N5        1.0  0.59473  0.68424  0.74029  1.0000
  N   N6        1.0  0.09474  0.31576  0.75971  1.0000
  N   N7        1.0  0.40527  0.31576  0.25971  1.0000
  N   N8        1.0  0.90527  0.68424  0.24029  1.0000
  O   O1        1.0  0.77992  0.72948  0.89026  1.0000
  O   O2        1.0  0.27993  0.27052  0.60975  1.0000
  O   O3        1.0  0.22007  0.27052  0.10975  1.0000
  O   O4        1.0  0.72007  0.72948  0.39026  1.0000
  O   O5        1.0  0.77275  0.94737  0.90092  1.0000
  O   O6        1.0  0.27276  0.05263  0.59908  1.0000
  O   O7        1.0  0.22723  0.05263  0.09908  1.0000
  O   O8        1.0  0.72725  0.94737  0.40092  1.0000
  O   O9        1.0  0.65503  0.93263  0.59298  1.0000
  O   O10       1.0  0.15501  0.06737  0.90702  1.0000
  O   O11       1.0  0.34499  0.06738  0.40702  1.0000
  O   O12       1.0  0.84497  0.93262  0.09297  1.0000
  O   O13       1.0  0.71815  0.71524  0.58508  1.0000
  O   O14       1.0  0.21816  0.28476  0.91492  1.0000
  O   O15       1.0  0.28185  0.28477  0.41492  1.0000
  O   O16       1.0  0.78184  0.71523  0.08508  1.0000
  O   O17       1.0  0.25350  0.74156  0.70095  1.0000
  O   O18       1.0  0.75351  0.25843  0.79905  1.0000
  O   O19       1.0  0.74649  0.25843  0.29905  1.0000
  O   O20       1.0  0.24650  0.74158  0.20096  1.0000
  O   O21       1.0  0.35722  0.51139  0.69921  1.0000
  O   O22       1.0  0.85720  0.48861  0.80080  1.0000
  O   O23       1.0  0.64280  0.48861  0.30079  1.0000
  O   O24       1.0  0.14281  0.51140  0.19920  1.0000
