data_image0
_chemical_formula_structural       Zn4H28C48N8O16
_chemical_formula_sum              "Zn4 H28 C48 N8 O16"
_cell_length_a       10.5046
_cell_length_b       10.5034
_cell_length_c       11.508
_cell_angle_alpha    73.6448
_cell_angle_beta     73.6467
_cell_angle_gamma    80.6043

_space_group_name_H-M_alt    "P 1"
_space_group_IT_number       1

loop_
  _space_group_symop_operation_xyz
  'x, y, z'

loop_
  _atom_site_type_symbol
  _atom_site_label
  _atom_site_symmetry_multiplicity
  _atom_site_fract_x
  _atom_site_fract_y
  _atom_site_fract_z
  _atom_site_occupancy
  Zn  Zn1       1.0  0.60788  0.18401  0.03397  1.0000
  Zn  Zn2       1.0  0.18399  0.60789  0.53396  1.0000
  Zn  Zn3       1.0  0.39212  0.81599  0.96603  1.0000
  Zn  Zn4       1.0  0.81601  0.39211  0.46605  1.0000
  H   H1        1.0  0.84202  0.14711  0.13069  1.0000
  H   H2        1.0  0.14712  0.84208  0.63067  1.0000
  H   H3        1.0  0.15797  0.85290  0.86931  1.0000
  H   H4        1.0  0.85288  0.15792  0.36933  1.0000
  H   H5        1.0  0.50665  0.37521  0.21133  1.0000
  H   H6        1.0  0.37521  0.50669  0.71130  1.0000
  H   H7        1.0  0.49334  0.62479  0.78868  1.0000
  H   H8        1.0  0.62479  0.49331  0.28870  1.0000
  H   H9        1.0  0.38605  0.03364  0.17392  1.0000
  H   H10       1.0  0.03364  0.38605  0.67393  1.0000
  H   H11       1.0  0.61395  0.96636  0.82609  1.0000
  H   H12       1.0  0.96636  0.61395  0.32607  1.0000
  H   H13       1.0  0.16812  0.05954  0.32575  1.0000
  H   H14       1.0  0.05956  0.16812  0.82577  1.0000
  H   H15       1.0  0.83188  0.94046  0.67425  1.0000
  H   H16       1.0  0.94044  0.83188  0.17423  1.0000
  H   H17       1.0  0.01744  0.27876  0.12886  1.0000
  H   H18       1.0  0.27879  0.01749  0.62886  1.0000
  H   H19       1.0  0.98255  0.72124  0.87113  1.0000
  H   H20       1.0  0.72121  0.98251  0.37114  1.0000
  H   H21       1.0  0.67348  0.46325  0.89766  1.0000
  H   H22       1.0  0.46321  0.67347  0.39766  1.0000
  H   H23       1.0  0.32652  0.53675  0.10234  1.0000
  H   H24       1.0  0.53679  0.32653  0.60234  1.0000
  H   H25       1.0  0.84714  0.60841  0.87669  1.0000
  H   H26       1.0  0.60839  0.84711  0.37669  1.0000
  H   H27       1.0  0.15286  0.39159  0.12331  1.0000
  H   H28       1.0  0.39161  0.15288  0.62331  1.0000
  C   C1        1.0  0.84660  0.25077  0.07755  1.0000
  C   C2        1.0  0.25077  0.84664  0.57753  1.0000
  C   C3        1.0  0.15340  0.74923  0.92245  1.0000
  C   C4        1.0  0.74923  0.15336  0.42247  1.0000
  C   C5        1.0  0.43107  0.30480  0.24155  1.0000
  C   C6        1.0  0.30481  0.43108  0.74154  1.0000
  C   C7        1.0  0.56894  0.69520  0.75845  1.0000
  C   C8        1.0  0.69520  0.56891  0.25846  1.0000
  C   C9        1.0  0.36231  0.11539  0.21957  1.0000
  C   C10       1.0  0.11541  0.36232  0.71957  1.0000
  C   C11       1.0  0.63769  0.88460  0.78043  1.0000
  C   C12       1.0  0.88459  0.63768  0.28043  1.0000
  C   C13       1.0  0.24150  0.13040  0.30478  1.0000
  C   C14       1.0  0.13042  0.24151  0.80478  1.0000
  C   C15       1.0  0.75850  0.86960  0.69523  1.0000
  C   C16       1.0  0.86958  0.75849  0.19522  1.0000
  C   C17       1.0  0.94441  0.32584  0.07535  1.0000
  C   C18       1.0  0.32585  0.94444  0.57534  1.0000
  C   C19       1.0  0.05559  0.67417  0.92465  1.0000
  C   C20       1.0  0.67415  0.05556  0.42465  1.0000
  C   C21       1.0  0.75358  0.42752  0.94488  1.0000
  C   C22       1.0  0.42749  0.75358  0.44488  1.0000
  C   C23       1.0  0.24642  0.57248  0.05512  1.0000
  C   C24       1.0  0.57250  0.24642  0.55512  1.0000
  C   C25       1.0  0.85008  0.50780  0.93634  1.0000
  C   C26       1.0  0.50778  0.85007  0.43635  1.0000
  C   C27       1.0  0.14992  0.49220  0.06365  1.0000
  C   C28       1.0  0.49221  0.14992  0.56366  1.0000
  C   C29       1.0  0.21385  0.23850  0.35944  1.0000
  C   C30       1.0  0.23852  0.21386  0.85944  1.0000
  C   C31       1.0  0.78615  0.76150  0.64056  1.0000
  C   C32       1.0  0.76148  0.78614  0.14056  1.0000
  C   C33       1.0  0.31279  0.32625  0.32965  1.0000
  C   C34       1.0  0.32625  0.31280  0.82964  1.0000
  C   C35       1.0  0.68721  0.67375  0.67036  1.0000
  C   C36       1.0  0.67375  0.68719  0.17036  1.0000
  C   C37       1.0  0.07785  0.25619  0.44473  1.0000
  C   C38       1.0  0.25621  0.07784  0.94472  1.0000
  C   C39       1.0  0.92216  0.74381  0.55527  1.0000
  C   C40       1.0  0.74379  0.92216  0.05528  1.0000
  C   C41       1.0  0.29952  0.44117  0.38755  1.0000
  C   C42       1.0  0.44117  0.29953  0.88756  1.0000
  C   C43       1.0  0.70048  0.55883  0.61245  1.0000
  C   C44       1.0  0.55884  0.70046  0.11244  1.0000
  C   C45       1.0  0.94816  0.45837  0.00309  1.0000
  C   C46       1.0  0.45836  0.94816  0.50309  1.0000
  C   C47       1.0  0.05184  0.54164  0.99691  1.0000
  C   C48       1.0  0.54164  0.05184  0.49691  1.0000
  N   N1        1.0  0.75187  0.30059  0.01390  1.0000
  N   N2        1.0  0.30058  0.75189  0.51389  1.0000
  N   N3        1.0  0.24813  0.69941  0.98610  1.0000
  N   N4        1.0  0.69942  0.24810  0.48611  1.0000
  N   N5        1.0  0.45432  0.20369  0.18616  1.0000
  N   N6        1.0  0.20370  0.45434  0.68615  1.0000
  N   N7        1.0  0.54568  0.79630  0.81384  1.0000
  N   N8        1.0  0.79630  0.54566  0.31385  1.0000
  O   O1        1.0  0.99193  0.31900  0.38188  1.0000
  O   O2        1.0  0.31902  0.99193  0.88187  1.0000
  O   O3        1.0  0.00807  0.68100  0.61812  1.0000
  O   O4        1.0  0.68098  0.00807  0.11812  1.0000
  O   O5        1.0  0.05711  0.20731  0.55918  1.0000
  O   O6        1.0  0.20732  0.05710  0.05917  1.0000
  O   O7        1.0  0.94289  0.79269  0.44083  1.0000
  O   O8        1.0  0.79268  0.94290  0.94083  1.0000
  O   O9        1.0  0.18083  0.49970  0.41875  1.0000
  O   O10       1.0  0.49967  0.18082  0.91879  1.0000
  O   O11       1.0  0.81918  0.50030  0.58125  1.0000
  O   O12       1.0  0.50033  0.81917  0.08121  1.0000
  O   O13       1.0  0.40169  0.47258  0.40450  1.0000
  O   O14       1.0  0.47259  0.40171  0.90449  1.0000
  O   O15       1.0  0.59832  0.52742  0.59550  1.0000
  O   O16       1.0  0.52742  0.59829  0.09550  1.0000
