data_image0
_chemical_formula_structural       Mn12H24C24O48
_chemical_formula_sum              "Mn12 H24 C24 O48"
_cell_length_a       10.0389
_cell_length_b       11.672
_cell_length_c       14.7098
_cell_angle_alpha    91.5106
_cell_angle_beta     90
_cell_angle_gamma    90

_space_group_name_H-M_alt    "P 1"
_space_group_IT_number       1

loop_
  _space_group_symop_operation_xyz
  'x, y, z'

loop_
  _atom_site_type_symbol
  _atom_site_label
  _atom_site_symmetry_multiplicity
  _atom_site_fract_x
  _atom_site_fract_y
  _atom_site_fract_z
  _atom_site_occupancy
  Mn  Mn1       1.0  0.08280  0.24073  0.86853  1.0000
  Mn  Mn2       1.0  0.58844  0.25452  0.63589  1.0000
  Mn  Mn3       1.0  0.91441  0.75810  0.13076  1.0000
  Mn  Mn4       1.0  0.41498  0.74168  0.37072  1.0000
  Mn  Mn5       1.0  0.90519  0.26203  0.68122  1.0000
  Mn  Mn6       1.0  0.40300  0.23732  0.81693  1.0000
  Mn  Mn7       1.0  0.09671  0.73916  0.31976  1.0000
  Mn  Mn8       1.0  0.59658  0.76266  0.18216  1.0000
  Mn  Mn9       1.0  0.99894  0.50153  0.00011  1.0000
  Mn  Mn10      1.0  0.50181  0.00224  0.50058  1.0000
  Mn  Mn11      1.0  0.00021  0.00105  0.99913  1.0000
  Mn  Mn12      1.0  0.50018  0.49712  0.50024  1.0000
  H   H1        1.0  0.26877  0.12880  0.62757  1.0000
  H   H2        1.0  0.76754  0.36920  0.86530  1.0000
  H   H3        1.0  0.73147  0.87072  0.37273  1.0000
  H   H4        1.0  0.23127  0.63087  0.12873  1.0000
  H   H5        1.0  0.98017  0.52860  0.72074  1.0000
  H   H6        1.0  0.47802  0.98233  0.77711  1.0000
  H   H7        1.0  0.02109  0.47234  0.27836  1.0000
  H   H8        1.0  0.51852  0.02883  0.22236  1.0000
  H   H9        1.0  0.40177  0.43760  0.96718  1.0000
  H   H10       1.0  0.89653  0.06589  0.53902  1.0000
  H   H11       1.0  0.59642  0.56435  0.03044  1.0000
  H   H12       1.0  0.09924  0.94164  0.46914  1.0000
  H   H13       1.0  0.79362  0.02410  0.75763  1.0000
  H   H14       1.0  0.29551  0.45753  0.73566  1.0000
  H   H15       1.0  0.20601  0.97543  0.24070  1.0000
  H   H16       1.0  0.70767  0.52649  0.25977  1.0000
  H   H17       1.0  0.82970  0.30983  0.07851  1.0000
  H   H18       1.0  0.33838  0.18485  0.43314  1.0000
  H   H19       1.0  0.17177  0.69040  0.92240  1.0000
  H   H20       1.0  0.67172  0.80813  0.57906  1.0000
  H   H21       1.0  0.30227  0.99059  0.99428  1.0000
  H   H22       1.0  0.78591  0.49865  0.50339  1.0000
  H   H23       1.0  0.69845  0.00960  0.00471  1.0000
  H   H24       1.0  0.19817  0.48938  0.49457  1.0000
  C   C1        1.0  0.18609  0.16462  0.66873  1.0000
  C   C2        1.0  0.68273  0.33498  0.82537  1.0000
  C   C3        1.0  0.81403  0.83417  0.33178  1.0000
  C   C4        1.0  0.31385  0.66761  0.16959  1.0000
  C   C5        1.0  0.99918  0.48364  0.78487  1.0000
  C   C6        1.0  0.50516  0.02327  0.71274  1.0000
  C   C7        1.0  0.00091  0.51772  0.21459  1.0000
  C   C8        1.0  0.49986  0.98393  0.28657  1.0000
  C   C9        1.0  0.29380  0.42151  0.95730  1.0000
  C   C10       1.0  0.78856  0.08469  0.54276  1.0000
  C   C11       1.0  0.70456  0.57846  0.04112  1.0000
  C   C12       1.0  0.20701  0.92488  0.45907  1.0000
  C   C13       1.0  0.86692  0.05013  0.81069  1.0000
  C   C14       1.0  0.37473  0.43961  0.68477  1.0000
  C   C15       1.0  0.13161  0.94987  0.18819  1.0000
  C   C16       1.0  0.63271  0.55092  0.31221  1.0000
  C   C17       1.0  0.89269  0.25713  0.03219  1.0000
  C   C18       1.0  0.39886  0.24331  0.47637  1.0000
  C   C19       1.0  0.10683  0.74354  0.96710  1.0000
  C   C20       1.0  0.60750  0.75615  0.53295  1.0000
  C   C21       1.0  0.28749  0.06322  0.94873  1.0000
  C   C22       1.0  0.77742  0.42670  0.55017  1.0000
  C   C23       1.0  0.71308  0.93641  0.04974  1.0000
  C   C24       1.0  0.21297  0.56350  0.45050  1.0000
  O   O1        1.0  0.21086  0.18914  0.75273  1.0000
  O   O2        1.0  0.70746  0.31000  0.74102  1.0000
  O   O3        1.0  0.78958  0.81010  0.24771  1.0000
  O   O4        1.0  0.28962  0.69151  0.25367  1.0000
  O   O5        1.0  0.07558  0.17752  0.62979  1.0000
  O   O6        1.0  0.57301  0.32458  0.86543  1.0000
  O   O7        1.0  0.92394  0.82027  0.37130  1.0000
  O   O8        1.0  0.42354  0.68185  0.12984  1.0000
  O   O9        1.0  0.00603  0.37357  0.77791  1.0000
  O   O10       1.0  0.51868  0.13341  0.71938  1.0000
  O   O11       1.0  0.99423  0.62763  0.22191  1.0000
  O   O12       1.0  0.49480  0.87387  0.28007  1.0000
  O   O13       1.0  0.01196  0.54163  0.85711  1.0000
  O   O14       1.0  0.51976  0.96280  0.64186  1.0000
  O   O15       1.0  0.98650  0.45991  0.14229  1.0000
  O   O16       1.0  0.48552  0.04253  0.35844  1.0000
  O   O17       1.0  0.26386  0.34463  0.89606  1.0000
  O   O18       1.0  0.75658  0.16409  0.60176  1.0000
  O   O19       1.0  0.73552  0.65359  0.10346  1.0000
  O   O20       1.0  0.23628  0.84760  0.39810  1.0000
  O   O21       1.0  0.21257  0.47805  0.00483  1.0000
  O   O22       1.0  0.71062  0.02884  0.49197  1.0000
  O   O23       1.0  0.78517  0.52137  0.99341  1.0000
  O   O24       1.0  0.28883  0.98136  0.50632  1.0000
  O   O25       1.0  0.91965  0.14976  0.80171  1.0000
  O   O26       1.0  0.43074  0.34063  0.69192  1.0000
  O   O27       1.0  0.07634  0.85174  0.19864  1.0000
  O   O28       1.0  0.57635  0.64873  0.30208  1.0000
  O   O29       1.0  0.89049  0.98204  0.87290  1.0000
  O   O30       1.0  0.40024  0.51423  0.62785  1.0000
  O   O31       1.0  0.10970  0.01739  0.12523  1.0000
  O   O32       1.0  0.61118  0.48267  0.37470  1.0000
  O   O33       1.0  0.96846  0.31326  0.97808  1.0000
  O   O34       1.0  0.47722  0.19236  0.53254  1.0000
  O   O35       1.0  0.02998  0.68773  0.02088  1.0000
  O   O36       1.0  0.53096  0.81351  0.48002  1.0000
  O   O37       1.0  0.88520  0.15038  0.03540  1.0000
  O   O38       1.0  0.38632  0.34911  0.46759  1.0000
  O   O39       1.0  0.11343  0.85009  0.96271  1.0000
  O   O40       1.0  0.61448  0.64940  0.53523  1.0000
  O   O41       1.0  0.16692  0.09902  0.94015  1.0000
  O   O42       1.0  0.65803  0.38734  0.56029  1.0000
  O   O43       1.0  0.83382  0.90118  0.05870  1.0000
  O   O44       1.0  0.33370  0.59887  0.44216  1.0000
  O   O45       1.0  0.38808  0.10323  0.90977  1.0000
  O   O46       1.0  0.88173  0.39262  0.58794  1.0000
  O   O47       1.0  0.61232  0.89534  0.08767  1.0000
  O   O48       1.0  0.11236  0.60528  0.41283  1.0000
