data_image0
_chemical_formula_structural       CdH32C44S2N8O8
_chemical_formula_sum              "Cd1 H32 C44 S2 N8 O8"
_cell_length_a       8.42001
_cell_length_b       8.41991
_cell_length_c       15.3202
_cell_angle_alpha    106.292
_cell_angle_beta     106.292
_cell_angle_gamma    88.7902

_space_group_name_H-M_alt    "P 1"
_space_group_IT_number       1

loop_
  _space_group_symop_operation_xyz
  'x, y, z'

loop_
  _atom_site_type_symbol
  _atom_site_label
  _atom_site_symmetry_multiplicity
  _atom_site_fract_x
  _atom_site_fract_y
  _atom_site_fract_z
  _atom_site_occupancy
  Cd  Cd1       1.0  0.00013  0.99987  0.00000  1.0000
  H   H1        1.0  0.15379  0.40908  0.14301  1.0000
  H   H2        1.0  0.98949  0.73405  0.14305  1.0000
  H   H3        1.0  0.26595  0.01052  0.85695  1.0000
  H   H4        1.0  0.59092  0.84621  0.85699  1.0000
  H   H5        1.0  0.74785  0.12447  0.14142  1.0000
  H   H6        1.0  0.39382  0.01739  0.14176  1.0000
  H   H7        1.0  0.98260  0.60618  0.85824  1.0000
  H   H8        1.0  0.87554  0.25215  0.85858  1.0000
  H   H9        1.0  0.02353  0.58496  0.28829  1.0000
  H   H10       1.0  0.26465  0.70406  0.28873  1.0000
  H   H11       1.0  0.29593  0.73535  0.71127  1.0000
  H   H12       1.0  0.41504  0.97648  0.71172  1.0000
  H   H13       1.0  0.96170  0.52761  0.41507  1.0000
  H   H14       1.0  0.45363  0.88781  0.41558  1.0000
  H   H15       1.0  0.11218  0.54638  0.58442  1.0000
  H   H16       1.0  0.47239  0.03830  0.58493  1.0000
  H   H17       1.0  0.79067  0.60755  0.52672  1.0000
  H   H18       1.0  0.73647  0.91880  0.52700  1.0000
  H   H19       1.0  0.08119  0.26353  0.47300  1.0000
  H   H20       1.0  0.39244  0.20933  0.47328  1.0000
  H   H21       1.0  0.35587  0.36838  0.30175  1.0000
  H   H22       1.0  0.94578  0.93323  0.30182  1.0000
  H   H23       1.0  0.06676  0.05421  0.69817  1.0000
  H   H24       1.0  0.63162  0.64414  0.69825  1.0000
  H   H25       1.0  0.52447  0.29639  0.18752  1.0000
  H   H26       1.0  0.66285  0.89159  0.18785  1.0000
  H   H27       1.0  0.10841  0.33714  0.81215  1.0000
  H   H28       1.0  0.70361  0.47553  0.81248  1.0000
  H   H29       1.0  0.21287  0.57740  0.99823  1.0000
  H   H30       1.0  0.78575  0.42075  0.99846  1.0000
  H   H31       1.0  0.57925  0.21425  0.00155  1.0000
  H   H32       1.0  0.42260  0.78714  0.00177  1.0000
  C   C1        1.0  0.05084  0.37603  0.16513  1.0000
  C   C2        1.0  0.11451  0.78934  0.16530  1.0000
  C   C3        1.0  0.21066  0.88549  0.83470  1.0000
  C   C4        1.0  0.62397  0.94915  0.83487  1.0000
  C   C5        1.0  0.83978  0.22584  0.16048  1.0000
  C   C6        1.0  0.32093  0.93507  0.16081  1.0000
  C   C7        1.0  0.06493  0.67907  0.83920  1.0000
  C   C8        1.0  0.77416  0.16022  0.83952  1.0000
  C   C9        1.0  0.98828  0.46489  0.23650  1.0000
  C   C10       1.0  0.24826  0.77216  0.23686  1.0000
  C   C11       1.0  0.22784  0.75174  0.76315  1.0000
  C   C12       1.0  0.53512  0.01172  0.76350  1.0000
  C   C13       1.0  0.75354  0.40786  0.29536  1.0000
  C   C14       1.0  0.54184  0.88806  0.29579  1.0000
  C   C15       1.0  0.11193  0.45816  0.70421  1.0000
  C   C16       1.0  0.59214  0.24646  0.70463  1.0000
  C   C17       1.0  0.82893  0.49438  0.39051  1.0000
  C   C18       1.0  0.56177  0.89644  0.39093  1.0000
  C   C19       1.0  0.10355  0.43823  0.60907  1.0000
  C   C20       1.0  0.50562  0.17106  0.60949  1.0000
  C   C21       1.0  0.73329  0.53772  0.45305  1.0000
  C   C22       1.0  0.72002  0.91524  0.45335  1.0000
  C   C23       1.0  0.08475  0.27998  0.54665  1.0000
  C   C24       1.0  0.46229  0.26671  0.54695  1.0000
  C   C25       1.0  0.56354  0.49254  0.41996  1.0000
  C   C26       1.0  0.85659  0.92721  0.42013  1.0000
  C   C27       1.0  0.07279  0.14340  0.57987  1.0000
  C   C28       1.0  0.50746  0.43646  0.58004  1.0000
  C   C29       1.0  0.48852  0.40229  0.32572  1.0000
  C   C30       1.0  0.83718  0.92349  0.32591  1.0000
  C   C31       1.0  0.07651  0.16281  0.67409  1.0000
  C   C32       1.0  0.59771  0.51148  0.67428  1.0000
  C   C33       1.0  0.58372  0.36074  0.26227  1.0000
  C   C34       1.0  0.67847  0.90198  0.26260  1.0000
  C   C35       1.0  0.09802  0.32152  0.73740  1.0000
  C   C36       1.0  0.63925  0.41627  0.73773  1.0000
  C   C37       1.0  0.25815  0.25802  0.99981  1.0000
  C   C38       1.0  0.74198  0.74185  0.00018  1.0000
  C   C39       1.0  0.38325  0.38302  0.99985  1.0000
  C   C40       1.0  0.61698  0.61675  0.00015  1.0000
  C   C41       1.0  0.33898  0.54418  0.99898  1.0000
  C   C42       1.0  0.66034  0.45465  0.99914  1.0000
  C   C43       1.0  0.54535  0.33967  0.00086  1.0000
  C   C44       1.0  0.45583  0.66103  0.00102  1.0000
  S   S1        1.0  0.44238  0.55763  0.50000  1.0000
  S   S2        1.0  0.05791  0.94208  0.50000  1.0000
  N   N1        1.0  0.95805  0.22741  0.11914  1.0000
  N   N2        1.0  0.16143  0.89189  0.11930  1.0000
  N   N3        1.0  0.10810  0.83857  0.88070  1.0000
  N   N4        1.0  0.77259  0.04195  0.88086  1.0000
  N   N5        1.0  0.85341  0.36847  0.23279  1.0000
  N   N6        1.0  0.37942  0.86499  0.23324  1.0000
  N   N7        1.0  0.13500  0.62058  0.76676  1.0000
  N   N8        1.0  0.63153  0.14659  0.76721  1.0000
  O   O1        1.0  0.49104  0.72995  0.55357  1.0000
  O   O2        1.0  0.06305  0.82353  0.55374  1.0000
  O   O3        1.0  0.17645  0.93693  0.44626  1.0000
  O   O4        1.0  0.27005  0.50897  0.44643  1.0000
  O   O5        1.0  0.30754  0.16005  0.05047  1.0000
  O   O6        1.0  0.74312  0.89042  0.05082  1.0000
  O   O7        1.0  0.10958  0.25688  0.94918  1.0000
  O   O8        1.0  0.83995  0.69246  0.94953  1.0000
