data_image0
_chemical_formula_structural       Cu2P4H36C40N8O16
_chemical_formula_sum              "Cu2 P4 H36 C40 N8 O16"
_cell_length_a       7.79965
_cell_length_b       10.9847
_cell_length_c       14.318
_cell_angle_alpha    90
_cell_angle_beta     90
_cell_angle_gamma    90.661

_space_group_name_H-M_alt    "P 1"
_space_group_IT_number       1

loop_
  _space_group_symop_operation_xyz
  'x, y, z'

loop_
  _atom_site_type_symbol
  _atom_site_label
  _atom_site_symmetry_multiplicity
  _atom_site_fract_x
  _atom_site_fract_y
  _atom_site_fract_z
  _atom_site_occupancy
  Cu  Cu1       1.0  0.99999  0.50000  0.00000  1.0000
  Cu  Cu2       1.0  0.50000  1.00000  0.50000  1.0000
  P   P1        1.0  0.81679  0.54427  0.19066  1.0000
  P   P2        1.0  0.68320  0.95573  0.69065  1.0000
  P   P3        1.0  0.18320  0.45573  0.80935  1.0000
  P   P4        1.0  0.31680  0.04427  0.30935  1.0000
  H   H1        1.0  0.98088  0.67446  0.26574  1.0000
  H   H2        1.0  0.51912  0.82553  0.76575  1.0000
  H   H3        1.0  0.01912  0.32555  0.73425  1.0000
  H   H4        1.0  0.48089  0.17447  0.23426  1.0000
  H   H5        1.0  0.69703  0.79921  0.22380  1.0000
  H   H6        1.0  0.80297  0.70079  0.72379  1.0000
  H   H7        1.0  0.30297  0.20079  0.77620  1.0000
  H   H8        1.0  0.19703  0.29921  0.27621  1.0000
  H   H9        1.0  0.51731  0.93809  0.12688  1.0000
  H   H10       1.0  0.98269  0.56192  0.62689  1.0000
  H   H11       1.0  0.48269  0.06191  0.87310  1.0000
  H   H12       1.0  0.01731  0.43809  0.37311  1.0000
  H   H13       1.0  0.42255  0.86490  0.96742  1.0000
  H   H14       1.0  0.07745  0.63510  0.46741  1.0000
  H   H15       1.0  0.57745  0.13509  0.03258  1.0000
  H   H16       1.0  0.92255  0.36490  0.53259  1.0000
  H   H17       1.0  0.50691  0.65413  0.91484  1.0000
  H   H18       1.0  0.99308  0.84586  0.41484  1.0000
  H   H19       1.0  0.49308  0.34585  0.08516  1.0000
  H   H20       1.0  0.00692  0.15414  0.58516  1.0000
  H   H21       1.0  0.09541  0.31554  0.13410  1.0000
  H   H22       1.0  0.40460  0.18446  0.63411  1.0000
  H   H23       1.0  0.90459  0.68446  0.86590  1.0000
  H   H24       1.0  0.59540  0.81554  0.36589  1.0000
  H   H25       1.0  0.11814  0.09009  0.13664  1.0000
  H   H26       1.0  0.38188  0.40991  0.63664  1.0000
  H   H27       1.0  0.88188  0.90991  0.86336  1.0000
  H   H28       1.0  0.61813  0.59009  0.36336  1.0000
  H   H29       1.0  0.85204  0.08798  0.86941  1.0000
  H   H30       1.0  0.64797  0.41201  0.36942  1.0000
  H   H31       1.0  0.14798  0.91202  0.13059  1.0000
  H   H32       1.0  0.35204  0.58798  0.63059  1.0000
  H   H33       1.0  0.83428  0.31081  0.88358  1.0000
  H   H34       1.0  0.66572  0.18919  0.38358  1.0000
  H   H35       1.0  0.16571  0.68919  0.11643  1.0000
  H   H36       1.0  0.33428  0.81081  0.61642  1.0000
  C   C1        1.0  0.69670  0.65617  0.12299  1.0000
  C   C2        1.0  0.80328  0.84383  0.62298  1.0000
  C   C3        1.0  0.30328  0.34383  0.87702  1.0000
  C   C4        1.0  0.19672  0.15617  0.37702  1.0000
  C   C5        1.0  0.65218  0.77129  0.15503  1.0000
  C   C6        1.0  0.84782  0.72872  0.65503  1.0000
  C   C7        1.0  0.34781  0.22872  0.84497  1.0000
  C   C8        1.0  0.15219  0.27129  0.34497  1.0000
  C   C9        1.0  0.55389  0.84907  0.10050  1.0000
  C   C10       1.0  0.94611  0.65094  0.60050  1.0000
  C   C11       1.0  0.44610  0.15093  0.89949  1.0000
  C   C12       1.0  0.05390  0.34907  0.39950  1.0000
  C   C13       1.0  0.50043  0.80832  0.01267  1.0000
  C   C14       1.0  0.99957  0.69168  0.51266  1.0000
  C   C15       1.0  0.49956  0.19167  0.98733  1.0000
  C   C16       1.0  0.00044  0.30833  0.48734  1.0000
  C   C17       1.0  0.54557  0.69411  0.98126  1.0000
  C   C18       1.0  0.95443  0.80589  0.48125  1.0000
  C   C19       1.0  0.45443  0.30589  0.01874  1.0000
  C   C20       1.0  0.04558  0.19411  0.51874  1.0000
  C   C21       1.0  0.04317  0.25955  0.07801  1.0000
  C   C22       1.0  0.45684  0.24045  0.57801  1.0000
  C   C23       1.0  0.95683  0.74046  0.92199  1.0000
  C   C24       1.0  0.54316  0.75954  0.42199  1.0000
  C   C25       1.0  0.05473  0.13375  0.07818  1.0000
  C   C26       1.0  0.44528  0.36625  0.57818  1.0000
  C   C27       1.0  0.94529  0.86625  0.92182  1.0000
  C   C28       1.0  0.55472  0.63375  0.42182  1.0000
  C   C29       1.0  0.99018  0.06670  0.00227  1.0000
  C   C30       1.0  0.50983  0.43330  0.50228  1.0000
  C   C31       1.0  0.00984  0.93330  0.99772  1.0000
  C   C32       1.0  0.49017  0.56670  0.49773  1.0000
  C   C33       1.0  0.90704  0.13156  0.93119  1.0000
  C   C34       1.0  0.59296  0.36844  0.43119  1.0000
  C   C35       1.0  0.09296  0.86844  0.06881  1.0000
  C   C36       1.0  0.40704  0.63156  0.56881  1.0000
  C   C37       1.0  0.89786  0.25730  0.93704  1.0000
  C   C38       1.0  0.60214  0.24269  0.43705  1.0000
  C   C39       1.0  0.10214  0.74270  0.06296  1.0000
  C   C40       1.0  0.39786  0.75730  0.56296  1.0000
  N   N1        1.0  0.64490  0.62029  0.03514  1.0000
  N   N2        1.0  0.85509  0.87971  0.53513  1.0000
  N   N3        1.0  0.35509  0.37970  0.96487  1.0000
  N   N4        1.0  0.14491  0.12029  0.46486  1.0000
  N   N5        1.0  0.96891  0.32079  0.00779  1.0000
  N   N6        1.0  0.53109  0.17921  0.50779  1.0000
  N   N7        1.0  0.03108  0.67921  0.99221  1.0000
  N   N8        1.0  0.46890  0.82079  0.49221  1.0000
  O   O1        1.0  0.87851  0.62624  0.28045  1.0000
  O   O2        1.0  0.62149  0.87375  0.78044  1.0000
  O   O3        1.0  0.12149  0.37376  0.71956  1.0000
  O   O4        1.0  0.37852  0.12625  0.21956  1.0000
  O   O5        1.0  0.98278  0.51271  0.13996  1.0000
  O   O6        1.0  0.51719  0.98729  0.63996  1.0000
  O   O7        1.0  0.01720  0.48729  0.86003  1.0000
  O   O8        1.0  0.48280  0.01271  0.36003  1.0000
  O   O9        1.0  0.69761  0.44766  0.22593  1.0000
  O   O10       1.0  0.80237  0.05235  0.72592  1.0000
  O   O11       1.0  0.30238  0.55235  0.77409  1.0000
  O   O12       1.0  0.19763  0.94767  0.27407  1.0000
  O   O13       1.0  0.69491  0.51599  0.00219  1.0000
  O   O14       1.0  0.80509  0.98400  0.50217  1.0000
  O   O15       1.0  0.30508  0.48399  0.99782  1.0000
  O   O16       1.0  0.19492  0.01600  0.49782  1.0000
