data_image0
_chemical_formula_structural       Tb4H36C28S2N4O36
_chemical_formula_sum              "Tb4 H36 C28 S2 N4 O36"
_cell_length_a       6.54444
_cell_length_b       13.7391
_cell_length_c       14.7947
_cell_angle_alpha    116.961
_cell_angle_beta     92.2427
_cell_angle_gamma    89.9356

_space_group_name_H-M_alt    "P 1"
_space_group_IT_number       1

loop_
  _space_group_symop_operation_xyz
  'x, y, z'

loop_
  _atom_site_type_symbol
  _atom_site_label
  _atom_site_symmetry_multiplicity
  _atom_site_fract_x
  _atom_site_fract_y
  _atom_site_fract_z
  _atom_site_occupancy
  Tb  Tb1       1.0  0.00386  0.89892  0.19732  1.0000
  Tb  Tb2       1.0  0.49619  0.69826  0.80273  1.0000
  Tb  Tb3       1.0  0.99614  0.10108  0.80269  1.0000
  Tb  Tb4       1.0  0.50382  0.30174  0.19726  1.0000
  H   H1        1.0  0.08780  0.57520  0.26187  1.0000
  H   H2        1.0  0.41204  0.31304  0.74027  1.0000
  H   H3        1.0  0.91219  0.42480  0.73813  1.0000
  H   H4        1.0  0.58796  0.68695  0.25973  1.0000
  H   H5        1.0  0.06821  0.89233  0.52033  1.0000
  H   H6        1.0  0.43291  0.37244  0.47874  1.0000
  H   H7        1.0  0.93180  0.10767  0.47967  1.0000
  H   H8        1.0  0.56708  0.62755  0.52126  1.0000
  H   H9        1.0  0.11376  0.59557  0.55129  1.0000
  H   H10       1.0  0.38597  0.04759  0.45271  1.0000
  H   H11       1.0  0.88623  0.40444  0.44872  1.0000
  H   H12       1.0  0.61402  0.95240  0.54729  1.0000
  H   H13       1.0  0.37694  0.78025  0.08189  1.0000
  H   H14       1.0  0.12196  0.69750  0.91924  1.0000
  H   H15       1.0  0.62306  0.21975  0.91811  1.0000
  H   H16       1.0  0.87805  0.30249  0.08075  1.0000
  H   H17       1.0  0.45274  0.83550  0.19497  1.0000
  H   H18       1.0  0.04870  0.63673  0.80586  1.0000
  H   H19       1.0  0.54727  0.16450  0.80503  1.0000
  H   H20       1.0  0.95130  0.36327  0.19414  1.0000
  H   H21       1.0  0.16082  0.04733  0.10388  1.0000
  H   H22       1.0  0.34118  0.93955  0.89849  1.0000
  H   H23       1.0  0.83918  0.95267  0.89611  1.0000
  H   H24       1.0  0.65883  0.06044  0.10150  1.0000
  H   H25       1.0  0.31394  0.01481  0.16915  1.0000
  H   H26       1.0  0.18692  0.84383  0.83205  1.0000
  H   H27       1.0  0.68606  0.98519  0.83084  1.0000
  H   H28       1.0  0.81309  0.15617  0.16795  1.0000
  H   H29       1.0  0.60032  0.96888  0.28543  1.0000
  H   H30       1.0  0.90092  0.68113  0.71492  1.0000
  H   H31       1.0  0.39967  0.03112  0.71456  1.0000
  H   H32       1.0  0.09909  0.31887  0.28508  1.0000
  H   H33       1.0  0.65361  0.88106  0.32801  1.0000
  H   H34       1.0  0.84617  0.55181  0.67053  1.0000
  H   H35       1.0  0.34639  0.11894  0.67199  1.0000
  H   H36       1.0  0.15382  0.44819  0.32948  1.0000
  C   C1        1.0  0.08737  0.62699  0.34370  1.0000
  C   C2        1.0  0.41260  0.28374  0.65829  1.0000
  C   C3        1.0  0.91263  0.37301  0.65630  1.0000
  C   C4        1.0  0.58740  0.71626  0.34171  1.0000
  C   C5        1.0  0.07821  0.74047  0.38257  1.0000
  C   C6        1.0  0.42240  0.35804  0.61804  1.0000
  C   C7        1.0  0.92179  0.25954  0.61744  1.0000
  C   C8        1.0  0.57760  0.64196  0.38196  1.0000
  C   C9        1.0  0.07631  0.80364  0.48721  1.0000
  C   C10       1.0  0.42435  0.31731  0.51316  1.0000
  C   C11       1.0  0.92370  0.19636  0.51280  1.0000
  C   C12       1.0  0.57564  0.68269  0.48684  1.0000
  C   C13       1.0  0.07865  0.75191  0.54953  1.0000
  C   C14       1.0  0.42153  0.20435  0.45212  1.0000
  C   C15       1.0  0.92135  0.24809  0.45047  1.0000
  C   C16       1.0  0.57846  0.79565  0.54788  1.0000
  C   C17       1.0  0.09779  0.63828  0.50468  1.0000
  C   C18       1.0  0.40203  0.13598  0.49835  1.0000
  C   C19       1.0  0.90221  0.36172  0.49532  1.0000
  C   C20       1.0  0.59796  0.86402  0.50165  1.0000
  C   C21       1.0  0.06097  0.79298  0.31382  1.0000
  C   C22       1.0  0.43920  0.47802  0.68613  1.0000
  C   C23       1.0  0.93903  0.20702  0.68618  1.0000
  C   C24       1.0  0.56080  0.52198  0.31387  1.0000
  C   C25       1.0  0.06560  0.82003  0.66184  1.0000
  C   C26       1.0  0.43471  0.16045  0.33959  1.0000
  C   C27       1.0  0.93440  0.17997  0.33817  1.0000
  C   C28       1.0  0.56529  0.83955  0.66041  1.0000
  S   S1        1.0  0.75064  0.81493  0.99947  1.0000
  S   S2        1.0  0.24936  0.18507  0.00053  1.0000
  N   N1        1.0  0.10354  0.57734  0.40355  1.0000
  N   N2        1.0  0.39625  0.17546  0.59959  1.0000
  N   N3        1.0  0.89645  0.42266  0.59645  1.0000
  N   N4        1.0  0.60374  0.82453  0.40041  1.0000
  O   O1        1.0  0.97906  0.73939  0.22545  1.0000
  O   O2        1.0  0.52050  0.51122  0.77474  1.0000
  O   O3        1.0  0.02094  0.26062  0.77455  1.0000
  O   O4        1.0  0.47950  0.48877  0.22526  1.0000
  O   O5        1.0  0.32600  0.80880  0.15080  1.0000
  O   O6        1.0  0.17440  0.65581  0.85092  1.0000
  O   O7        1.0  0.67400  0.19120  0.84920  1.0000
  O   O8        1.0  0.82560  0.34419  0.14908  1.0000
  O   O9        1.0  0.12322  0.89264  0.34743  1.0000
  O   O10       1.0  0.37670  0.54448  0.65211  1.0000
  O   O11       1.0  0.87678  0.10736  0.65257  1.0000
  O   O12       1.0  0.62330  0.45552  0.34789  1.0000
  O   O13       1.0  0.19304  0.98692  0.12017  1.0000
  O   O14       1.0  0.30842  0.86304  0.88064  1.0000
  O   O15       1.0  0.80695  0.01308  0.87982  1.0000
  O   O16       1.0  0.69159  0.13696  0.11936  1.0000
  O   O17       1.0  0.05795  0.92271  0.69392  1.0000
  O   O18       1.0  0.44474  0.23059  0.30617  1.0000
  O   O19       1.0  0.94205  0.07729  0.30608  1.0000
  O   O20       1.0  0.55527  0.76940  0.69383  1.0000
  O   O21       1.0  0.67475  0.89966  0.26898  1.0000
  O   O22       1.0  0.82570  0.62729  0.73021  1.0000
  O   O23       1.0  0.32525  0.10034  0.73101  1.0000
  O   O24       1.0  0.17430  0.37271  0.26980  1.0000
  O   O25       1.0  0.06497  0.77285  0.71839  1.0000
  O   O26       1.0  0.43334  0.05779  0.28438  1.0000
  O   O27       1.0  0.93503  0.22715  0.28161  1.0000
  O   O28       1.0  0.56665  0.94221  0.71562  1.0000
  O   O29       1.0  0.72431  0.92188  0.09025  1.0000
  O   O30       1.0  0.77533  0.82732  0.90544  1.0000
  O   O31       1.0  0.27569  0.07812  0.90975  1.0000
  O   O32       1.0  0.22467  0.17268  0.09456  1.0000
  O   O33       1.0  0.93572  0.76635  0.02460  1.0000
  O   O34       1.0  0.56797  0.74090  0.97711  1.0000
  O   O35       1.0  0.06429  0.23366  0.97540  1.0000
  O   O36       1.0  0.43203  0.25910  0.02289  1.0000
