data_image0
_chemical_formula_structural       Zn4H32C44N16O8
_chemical_formula_sum              "Zn4 H32 C44 N16 O8"
_cell_length_a       9.55425
_cell_length_b       9.6001
_cell_length_c       12.2372
_cell_angle_alpha    90
_cell_angle_beta     90
_cell_angle_gamma    98.8419

_space_group_name_H-M_alt    "P 1"
_space_group_IT_number       1

loop_
  _space_group_symop_operation_xyz
  'x, y, z'

loop_
  _atom_site_type_symbol
  _atom_site_label
  _atom_site_symmetry_multiplicity
  _atom_site_fract_x
  _atom_site_fract_y
  _atom_site_fract_z
  _atom_site_occupancy
  Zn  Zn1       1.0  0.08316  0.38463  0.06162  1.0000
  Zn  Zn2       1.0  0.58316  0.88462  0.43838  1.0000
  Zn  Zn3       1.0  0.91684  0.61538  0.93838  1.0000
  Zn  Zn4       1.0  0.41684  0.11538  0.56162  1.0000
  H   H1        1.0  0.09844  0.66497  0.75569  1.0000
  H   H2        1.0  0.59845  0.16497  0.74431  1.0000
  H   H3        1.0  0.90155  0.33503  0.24431  1.0000
  H   H4        1.0  0.40156  0.83503  0.25569  1.0000
  H   H5        1.0  0.29391  0.73057  0.62583  1.0000
  H   H6        1.0  0.79392  0.23057  0.87417  1.0000
  H   H7        1.0  0.70608  0.26943  0.37418  1.0000
  H   H8        1.0  0.20609  0.76943  0.12582  1.0000
  H   H9        1.0  0.51670  0.62611  0.64199  1.0000
  H   H10       1.0  0.01670  0.12611  0.85801  1.0000
  H   H11       1.0  0.48330  0.37389  0.35801  1.0000
  H   H12       1.0  0.98330  0.87389  0.14198  1.0000
  H   H13       1.0  0.53725  0.45412  0.79243  1.0000
  H   H14       1.0  0.03725  0.95411  0.70757  1.0000
  H   H15       1.0  0.46275  0.54588  0.20757  1.0000
  H   H16       1.0  0.96275  0.04588  0.29243  1.0000
  H   H17       1.0  0.56826  0.25286  0.08525  1.0000
  H   H18       1.0  0.06826  0.75286  0.41475  1.0000
  H   H19       1.0  0.43174  0.74714  0.91475  1.0000
  H   H20       1.0  0.93174  0.24714  0.58525  1.0000
  H   H21       1.0  0.49075  0.10929  0.99991  1.0000
  H   H22       1.0  0.99075  0.60930  0.50008  1.0000
  H   H23       1.0  0.50925  0.89070  0.00009  1.0000
  H   H24       1.0  0.00925  0.39070  0.49991  1.0000
  H   H25       1.0  0.26471  0.11184  0.08613  1.0000
  H   H26       1.0  0.76471  0.61184  0.41387  1.0000
  H   H27       1.0  0.73528  0.88816  0.91387  1.0000
  H   H28       1.0  0.23528  0.38816  0.58614  1.0000
  H   H29       1.0  0.34406  0.24899  0.17395  1.0000
  H   H30       1.0  0.84406  0.74899  0.32605  1.0000
  H   H31       1.0  0.65593  0.75101  0.82605  1.0000
  H   H32       1.0  0.15593  0.25101  0.67395  1.0000
  C   C1        1.0  0.20554  0.52701  0.85378  1.0000
  C   C2        1.0  0.70554  0.02701  0.64622  1.0000
  C   C3        1.0  0.79446  0.47299  0.14622  1.0000
  C   C4        1.0  0.29446  0.97299  0.35378  1.0000
  C   C5        1.0  0.19583  0.62056  0.76512  1.0000
  C   C6        1.0  0.69583  0.12056  0.73488  1.0000
  C   C7        1.0  0.80417  0.37944  0.23488  1.0000
  C   C8        1.0  0.30417  0.87944  0.26512  1.0000
  C   C9        1.0  0.30568  0.65628  0.69139  1.0000
  C   C10       1.0  0.80569  0.15628  0.80861  1.0000
  C   C11       1.0  0.69431  0.34372  0.30861  1.0000
  C   C12       1.0  0.19432  0.84372  0.19139  1.0000
  C   C13       1.0  0.43105  0.59788  0.70036  1.0000
  C   C14       1.0  0.93105  0.09788  0.79964  1.0000
  C   C15       1.0  0.56895  0.40212  0.29964  1.0000
  C   C16       1.0  0.06895  0.90212  0.20036  1.0000
  C   C17       1.0  0.44190  0.50224  0.78349  1.0000
  C   C18       1.0  0.94190  0.00225  0.71651  1.0000
  C   C19       1.0  0.55810  0.49775  0.21651  1.0000
  C   C20       1.0  0.05810  0.99775  0.28349  1.0000
  C   C21       1.0  0.33255  0.46459  0.86050  1.0000
  C   C22       1.0  0.83255  0.96459  0.63950  1.0000
  C   C23       1.0  0.66745  0.53541  0.13950  1.0000
  C   C24       1.0  0.16745  0.03541  0.36050  1.0000
  C   C25       1.0  0.35482  0.36333  0.94445  1.0000
  C   C26       1.0  0.85482  0.86333  0.55555  1.0000
  C   C27       1.0  0.64518  0.63667  0.05555  1.0000
  C   C28       1.0  0.14518  0.13667  0.44445  1.0000
  C   C29       1.0  0.47776  0.21250  0.03314  1.0000
  C   C30       1.0  0.97775  0.71250  0.46686  1.0000
  C   C31       1.0  0.52224  0.78750  0.96686  1.0000
  C   C32       1.0  0.02224  0.28750  0.53314  1.0000
  C   C33       1.0  0.33353  0.21452  0.08837  1.0000
  C   C34       1.0  0.83353  0.71452  0.41163  1.0000
  C   C35       1.0  0.66647  0.78548  0.91163  1.0000
  C   C36       1.0  0.16647  0.28548  0.58837  1.0000
  C   C37       1.0  0.85727  0.11788  0.08706  1.0000
  C   C38       1.0  0.35727  0.61788  0.41294  1.0000
  C   C39       1.0  0.14274  0.88212  0.91294  1.0000
  C   C40       1.0  0.64273  0.38212  0.58706  1.0000
  C   C41       1.0  0.70035  0.98921  0.20426  1.0000
  C   C42       1.0  0.20035  0.48921  0.29574  1.0000
  C   C43       1.0  0.29965  0.01079  0.79574  1.0000
  C   C44       1.0  0.79965  0.51080  0.70426  1.0000
  N   N1        1.0  0.26992  0.31714  0.02352  1.0000
  N   N2        1.0  0.76992  0.81714  0.47647  1.0000
  N   N3        1.0  0.73008  0.68286  0.97647  1.0000
  N   N4        1.0  0.23008  0.18286  0.52353  1.0000
  N   N5        1.0  0.95525  0.19898  0.05819  1.0000
  N   N6        1.0  0.45526  0.69897  0.44180  1.0000
  N   N7        1.0  0.04475  0.80102  0.94181  1.0000
  N   N8        1.0  0.54475  0.30103  0.55819  1.0000
  N   N9        1.0  0.74886  0.02463  0.10825  1.0000
  N   N10       1.0  0.24885  0.52463  0.39175  1.0000
  N   N11       1.0  0.25115  0.97537  0.89176  1.0000
  N   N12       1.0  0.75115  0.47538  0.60825  1.0000
  N   N13       1.0  0.64647  0.94839  0.28696  1.0000
  N   N14       1.0  0.14647  0.44839  0.21304  1.0000
  N   N15       1.0  0.35353  0.05161  0.71304  1.0000
  N   N16       1.0  0.85352  0.55161  0.78696  1.0000
  O   O1        1.0  0.09998  0.50314  0.92501  1.0000
  O   O2        1.0  0.59997  0.00314  0.57499  1.0000
  O   O3        1.0  0.90003  0.49686  0.07499  1.0000
  O   O4        1.0  0.40002  0.99686  0.42501  1.0000
  O   O5        1.0  0.47834  0.30910  0.94031  1.0000
  O   O6        1.0  0.97834  0.80909  0.55969  1.0000
  O   O7        1.0  0.52166  0.69090  0.05969  1.0000
  O   O8        1.0  0.02166  0.19090  0.44031  1.0000
