data_image0
_chemical_formula_structural       Co2H40C36N4O8
_chemical_formula_sum              "Co2 H40 C36 N4 O8"
_cell_length_a       9.4619
_cell_length_b       9.62722
_cell_length_c       10.5872
_cell_angle_alpha    112.207
_cell_angle_beta     92.4747
_cell_angle_gamma    106.859

_space_group_name_H-M_alt    "P 1"
_space_group_IT_number       1

loop_
  _space_group_symop_operation_xyz
  'x, y, z'

loop_
  _atom_site_type_symbol
  _atom_site_label
  _atom_site_symmetry_multiplicity
  _atom_site_fract_x
  _atom_site_fract_y
  _atom_site_fract_z
  _atom_site_occupancy
  Co  Co1       1.0  0.63801  0.12740  0.40480  1.0000
  Co  Co2       1.0  0.36199  0.87258  0.59519  1.0000
  H   H1        1.0  0.98077  0.53338  0.35562  1.0000
  H   H2        1.0  0.01922  0.46662  0.64439  1.0000
  H   H3        1.0  0.07161  0.38960  0.31263  1.0000
  H   H4        1.0  0.92839  0.61043  0.68738  1.0000
  H   H5        1.0  0.01245  0.45997  0.11161  1.0000
  H   H6        1.0  0.98754  0.54006  0.88841  1.0000
  H   H7        1.0  0.81925  0.38459  0.11596  1.0000
  H   H8        1.0  0.18074  0.61543  0.88405  1.0000
  H   H9        1.0  0.03596  0.19290  0.06111  1.0000
  H   H10       1.0  0.96404  0.80714  0.93890  1.0000
  H   H11       1.0  0.84574  0.11653  0.07064  1.0000
  H   H12       1.0  0.15427  0.88349  0.92937  1.0000
  H   H13       1.0  0.95659  0.25194  0.85918  1.0000
  H   H14       1.0  0.04340  0.74808  0.14082  1.0000
  H   H15       1.0  0.76871  0.16926  0.87145  1.0000
  H   H16       1.0  0.23129  0.83076  0.12856  1.0000
  H   H17       1.0  0.99288  0.98698  0.81470  1.0000
  H   H18       1.0  0.00712  0.01303  0.18531  1.0000
  H   H19       1.0  0.80207  0.90759  0.82108  1.0000
  H   H20       1.0  0.19792  0.09243  0.17894  1.0000
  H   H21       1.0  0.92246  0.04273  0.61040  1.0000
  H   H22       1.0  0.07754  0.95727  0.38961  1.0000
  H   H23       1.0  0.85645  0.83976  0.57857  1.0000
  H   H24       1.0  0.14356  0.16025  0.42145  1.0000
  H   H25       1.0  0.46794  0.97791  0.10934  1.0000
  H   H26       1.0  0.53206  0.02207  0.89066  1.0000
  H   H27       1.0  0.46177  0.76384  0.88053  1.0000
  H   H28       1.0  0.53823  0.23615  0.11946  1.0000
  H   H29       1.0  0.79676  0.66293  0.09052  1.0000
  H   H30       1.0  0.20324  0.33705  0.90947  1.0000
  H   H31       1.0  0.78882  0.88257  0.30806  1.0000
  H   H32       1.0  0.21116  0.11739  0.69194  1.0000
  H   H33       1.0  0.66865  0.41315  0.93181  1.0000
  H   H34       1.0  0.33134  0.58683  0.06818  1.0000
  H   H35       1.0  0.67030  0.19984  0.71147  1.0000
  H   H36       1.0  0.32969  0.80015  0.28852  1.0000
  H   H37       1.0  0.61583  0.45500  0.48638  1.0000
  H   H38       1.0  0.38417  0.54499  0.51361  1.0000
  H   H39       1.0  0.59850  0.67830  0.69753  1.0000
  H   H40       1.0  0.40151  0.32170  0.30247  1.0000
  C   C1        1.0  0.84434  0.30601  0.33616  1.0000
  C   C2        1.0  0.15567  0.69399  0.66384  1.0000
  C   C3        1.0  0.96589  0.40820  0.28998  1.0000
  C   C4        1.0  0.03411  0.59181  0.71002  1.0000
  C   C5        1.0  0.92886  0.37152  0.13617  1.0000
  C   C6        1.0  0.07114  0.62850  0.86384  1.0000
  C   C7        1.0  0.92535  0.20440  0.04210  1.0000
  C   C8        1.0  0.07465  0.79562  0.95790  1.0000
  C   C9        1.0  0.88135  0.16190  0.88853  1.0000
  C   C10       1.0  0.11865  0.83811  0.11148  1.0000
  C   C11       1.0  0.88196  0.99656  0.79448  1.0000
  C   C12       1.0  0.11804  0.00345  0.20554  1.0000
  C   C13       1.0  0.84391  0.95572  0.64009  1.0000
  C   C14       1.0  0.15609  0.04429  0.35993  1.0000
  C   C15       1.0  0.68624  0.94727  0.59390  1.0000
  C   C16       1.0  0.31377  0.05273  0.40610  1.0000
  C   C17       1.0  0.54054  0.90615  0.09901  1.0000
  C   C18       1.0  0.45946  0.09384  0.90098  1.0000
  C   C19       1.0  0.53828  0.78735  0.97212  1.0000
  C   C20       1.0  0.46172  0.21264  0.02787  1.0000
  C   C21       1.0  0.63078  0.69485  0.96542  1.0000
  C   C22       1.0  0.36923  0.30515  0.03457  1.0000
  C   C23       1.0  0.72118  0.72897  0.08921  1.0000
  C   C24       1.0  0.27883  0.27101  0.91077  1.0000
  C   C25       1.0  0.71837  0.85155  0.21083  1.0000
  C   C26       1.0  0.28163  0.14842  0.78917  1.0000
  C   C27       1.0  0.63362  0.56625  0.83506  1.0000
  C   C28       1.0  0.36638  0.43375  0.16493  1.0000
  C   C29       1.0  0.65681  0.42923  0.83593  1.0000
  C   C30       1.0  0.34319  0.57076  0.16406  1.0000
  C   C31       1.0  0.65848  0.30893  0.71253  1.0000
  C   C32       1.0  0.34152  0.69106  0.28746  1.0000
  C   C33       1.0  0.62354  0.45014  0.58753  1.0000
  C   C34       1.0  0.37647  0.54985  0.41246  1.0000
  C   C35       1.0  0.61529  0.57442  0.70589  1.0000
  C   C36       1.0  0.38471  0.42557  0.29410  1.0000
  N   N1        1.0  0.64348  0.31743  0.58902  1.0000
  N   N2        1.0  0.35653  0.68257  0.41097  1.0000
  N   N3        1.0  0.62905  0.93962  0.21713  1.0000
  N   N4        1.0  0.37094  0.06036  0.78287  1.0000
  O   O1        1.0  0.70628  0.28442  0.29806  1.0000
  O   O2        1.0  0.29372  0.71555  0.70192  1.0000
  O   O3        1.0  0.87728  0.24037  0.41258  1.0000
  O   O4        1.0  0.12272  0.75963  0.58742  1.0000
  O   O5        1.0  0.58213  0.89926  0.65587  1.0000
  O   O6        1.0  0.41787  0.10074  0.34412  1.0000
  O   O7        1.0  0.66355  0.98716  0.49527  1.0000
  O   O8        1.0  0.33645  0.01283  0.50473  1.0000
