data_image0
_chemical_formula_structural       Cd2H40C36N4O8
_chemical_formula_sum              "Cd2 H40 C36 N4 O8"
_cell_length_a       9.62943
_cell_length_b       10.0888
_cell_length_c       10.4381
_cell_angle_alpha    110.1
_cell_angle_beta     92.2685
_cell_angle_gamma    106.388

_space_group_name_H-M_alt    "P 1"
_space_group_IT_number       1

loop_
  _space_group_symop_operation_xyz
  'x, y, z'

loop_
  _atom_site_type_symbol
  _atom_site_label
  _atom_site_symmetry_multiplicity
  _atom_site_fract_x
  _atom_site_fract_y
  _atom_site_fract_z
  _atom_site_occupancy
  Cd  Cd1       1.0  0.37716  0.86817  0.08515  1.0000
  Cd  Cd2       1.0  0.62285  0.13184  0.91485  1.0000
  H   H1        1.0  0.31862  0.77114  0.75357  1.0000
  H   H2        1.0  0.68137  0.22885  0.24643  1.0000
  H   H3        1.0  0.31760  0.56571  0.53723  1.0000
  H   H4        1.0  0.68240  0.43429  0.46276  1.0000
  H   H5        1.0  0.40485  0.32693  0.78956  1.0000
  H   H6        1.0  0.59515  0.67307  0.21044  1.0000
  H   H7        1.0  0.39511  0.54318  0.99573  1.0000
  H   H8        1.0  0.60488  0.45681  0.00427  1.0000
  H   H9        1.0  0.22235  0.34163  0.38151  1.0000
  H   H10       1.0  0.77765  0.65837  0.61849  1.0000
  H   H11       1.0  0.24104  0.13342  0.17499  1.0000
  H   H12       1.0  0.75895  0.86657  0.82502  1.0000
  H   H13       1.0  0.53024  0.03376  0.40097  1.0000
  H   H14       1.0  0.46977  0.96624  0.59903  1.0000
  H   H15       1.0  0.52714  0.23845  0.61994  1.0000
  H   H16       1.0  0.47286  0.76156  0.38006  1.0000
  H   H17       1.0  0.09277  0.93974  0.88833  1.0000
  H   H18       1.0  0.90723  0.06027  0.11167  1.0000
  H   H19       1.0  0.11901  0.12674  0.90806  1.0000
  H   H20       1.0  0.88100  0.87326  0.09194  1.0000
  H   H21       1.0  0.97231  0.97812  0.68455  1.0000
  H   H22       1.0  0.02769  0.02188  0.31545  1.0000
  H   H23       1.0  0.14902  0.06517  0.65786  1.0000
  H   H24       1.0  0.85097  0.93483  0.34214  1.0000
  H   H25       1.0  0.03476  0.74166  0.63976  1.0000
  H   H26       1.0  0.96525  0.25834  0.36024  1.0000
  H   H27       1.0  0.21344  0.83102  0.61920  1.0000
  H   H28       1.0  0.78656  0.16898  0.38079  1.0000
  H   H29       1.0  0.94027  0.79640  0.43520  1.0000
  H   H30       1.0  0.05973  0.20360  0.56480  1.0000
  H   H31       1.0  0.12346  0.86941  0.41636  1.0000
  H   H32       1.0  0.87654  0.13059  0.58364  1.0000
  H   H33       1.0  0.15714  0.61817  0.38170  1.0000
  H   H34       1.0  0.84285  0.38183  0.61830  1.0000
  H   H35       1.0  0.96777  0.54760  0.38778  1.0000
  H   H36       1.0  0.03222  0.45239  0.61222  1.0000
  H   H37       1.0  0.91665  0.62387  0.18329  1.0000
  H   H38       1.0  0.08336  0.37614  0.81670  1.0000
  H   H39       1.0  0.00170  0.48318  0.14442  1.0000
  H   H40       1.0  0.99831  0.51682  0.85558  1.0000
  C   C1        1.0  0.33681  0.67060  0.75670  1.0000
  C   C2        1.0  0.66319  0.32940  0.24330  1.0000
  C   C3        1.0  0.33652  0.55520  0.63631  1.0000
  C   C4        1.0  0.66347  0.44479  0.36369  1.0000
  C   C5        1.0  0.36548  0.42965  0.64501  1.0000
  C   C6        1.0  0.63451  0.57035  0.35498  1.0000
  C   C7        1.0  0.38820  0.42470  0.77685  1.0000
  C   C8        1.0  0.61180  0.57531  0.22314  1.0000
  C   C9        1.0  0.38298  0.54399  0.89167  1.0000
  C   C10       1.0  0.61701  0.45601  0.10833  1.0000
  C   C11       1.0  0.37182  0.30702  0.51983  1.0000
  C   C12       1.0  0.62818  0.69298  0.48017  1.0000
  C   C13       1.0  0.29275  0.27705  0.39173  1.0000
  C   C14       1.0  0.70724  0.72294  0.60827  1.0000
  C   C15       1.0  0.30138  0.16073  0.27611  1.0000
  C   C16       1.0  0.69862  0.83927  0.72389  1.0000
  C   C17       1.0  0.46218  0.10435  0.40341  1.0000
  C   C18       1.0  0.53783  0.89565  0.59660  1.0000
  C   C19       1.0  0.45926  0.21781  0.52449  1.0000
  C   C20       1.0  0.54074  0.78219  0.47551  1.0000
  C   C21       1.0  0.30967  0.06015  0.87409  1.0000
  C   C22       1.0  0.69034  0.93986  0.12591  1.0000
  C   C23       1.0  0.14494  0.02548  0.84722  1.0000
  C   C24       1.0  0.85506  0.97453  0.15278  1.0000
  C   C25       1.0  0.08681  0.97955  0.69487  1.0000
  C   C26       1.0  0.91319  0.02045  0.30512  1.0000
  C   C27       1.0  0.09869  0.82889  0.60467  1.0000
  C   C28       1.0  0.90131  0.17111  0.39533  1.0000
  C   C29       1.0  0.05039  0.78697  0.45128  1.0000
  C   C30       1.0  0.94961  0.21302  0.54872  1.0000
  C   C31       1.0  0.04960  0.63110  0.36099  1.0000
  C   C32       1.0  0.95040  0.36890  0.63901  1.0000
  C   C33       1.0  0.01759  0.60088  0.20682  1.0000
  C   C34       1.0  0.98242  0.39912  0.79318  1.0000
  C   C35       1.0  0.14259  0.69494  0.15965  1.0000
  C   C36       1.0  0.85743  0.30506  0.84036  1.0000
  N   N1        1.0  0.36041  0.66614  0.88240  1.0000
  N   N2        1.0  0.63958  0.33386  0.11759  1.0000
  N   N3        1.0  0.38459  0.07558  0.28157  1.0000
  N   N4        1.0  0.61540  0.92442  0.71843  1.0000
  O   O1        1.0  0.27319  0.69953  0.19593  1.0000
  O   O2        1.0  0.72682  0.30047  0.80409  1.0000
  O   O3        1.0  0.38985  0.11975  0.80202  1.0000
  O   O4        1.0  0.61016  0.88027  0.19798  1.0000
  O   O5        1.0  0.36649  0.03140  0.97050  1.0000
  O   O6        1.0  0.63351  0.96859  0.02949  1.0000
  O   O7        1.0  0.11468  0.76568  0.08664  1.0000
  O   O8        1.0  0.88534  0.23433  0.91338  1.0000
