data_image0
_chemical_formula_structural       Ni4H56C56N8O24
_chemical_formula_sum              "Ni4 H56 C56 N8 O24"
_cell_length_a       7.9426
_cell_length_b       11.8418
_cell_length_c       15.436
_cell_angle_alpha    90.2301
_cell_angle_beta     89.7248
_cell_angle_gamma    89.9212

_space_group_name_H-M_alt    "P 1"
_space_group_IT_number       1

loop_
  _space_group_symop_operation_xyz
  'x, y, z'

loop_
  _atom_site_type_symbol
  _atom_site_label
  _atom_site_symmetry_multiplicity
  _atom_site_fract_x
  _atom_site_fract_y
  _atom_site_fract_z
  _atom_site_occupancy
  Ni  Ni1       1.0  1.00000  0.50000  0.00000  1.0000
  Ni  Ni2       1.0  0.50000  0.50000  0.50000  1.0000
  Ni  Ni3       1.0  0.49999  0.00000  0.00000  1.0000
  Ni  Ni4       1.0  0.00000  1.00000  0.50000  1.0000
  H   H1        1.0  0.83571  0.60047  0.15613  1.0000
  H   H2        1.0  0.66327  0.39979  0.65504  1.0000
  H   H3        1.0  0.33623  0.89955  0.84430  1.0000
  H   H4        1.0  0.16316  0.10142  0.34772  1.0000
  H   H5        1.0  0.16430  0.39954  0.84387  1.0000
  H   H6        1.0  0.33672  0.60020  0.34496  1.0000
  H   H7        1.0  0.66375  0.10045  0.15570  1.0000
  H   H8        1.0  0.83684  0.89858  0.65227  1.0000
  H   H9        1.0  0.02346  0.28311  0.09658  1.0000
  H   H10       1.0  0.47713  0.71735  0.59775  1.0000
  H   H11       1.0  0.52343  0.21668  0.90301  1.0000
  H   H12       1.0  0.97545  0.78417  0.40569  1.0000
  H   H13       1.0  0.97654  0.71690  0.90342  1.0000
  H   H14       1.0  0.52286  0.28265  0.40225  1.0000
  H   H15       1.0  0.47657  0.78332  0.09699  1.0000
  H   H16       1.0  0.02456  0.21582  0.59431  1.0000
  H   H17       1.0  0.75990  0.54141  0.30756  1.0000
  H   H18       1.0  0.73929  0.45902  0.80634  1.0000
  H   H19       1.0  0.26044  0.95858  0.69327  1.0000
  H   H20       1.0  0.23877  0.04193  0.19616  1.0000
  H   H21       1.0  0.24012  0.45860  0.69245  1.0000
  H   H22       1.0  0.26072  0.54097  0.19365  1.0000
  H   H23       1.0  0.73956  0.04141  0.30673  1.0000
  H   H24       1.0  0.76122  0.95806  0.80383  1.0000
  H   H25       1.0  0.95455  0.21033  0.24476  1.0000
  H   H26       1.0  0.54591  0.79028  0.74590  1.0000
  H   H27       1.0  0.45454  0.28960  0.75529  1.0000
  H   H28       1.0  0.04460  0.71122  0.25732  1.0000
  H   H29       1.0  0.04546  0.78968  0.75525  1.0000
  H   H30       1.0  0.45409  0.20971  0.25411  1.0000
  H   H31       1.0  0.54548  0.71039  0.24471  1.0000
  H   H32       1.0  0.95540  0.28877  0.74269  1.0000
  H   H33       1.0  0.82139  0.34178  0.35250  1.0000
  H   H34       1.0  0.67857  0.65865  0.85259  1.0000
  H   H35       1.0  0.32153  0.15809  0.64803  1.0000
  H   H36       1.0  0.17752  0.84267  0.14992  1.0000
  H   H37       1.0  0.17863  0.65824  0.64750  1.0000
  H   H38       1.0  0.32144  0.34133  0.14741  1.0000
  H   H39       1.0  0.67849  0.84190  0.35196  1.0000
  H   H40       1.0  0.82248  0.15733  0.85008  1.0000
  H   H41       1.0  0.00690  0.71493  0.04531  1.0000
  H   H42       1.0  0.49295  0.28521  0.54547  1.0000
  H   H43       1.0  0.50770  0.78506  0.95495  1.0000
  H   H44       1.0  0.99003  0.21796  0.45234  1.0000
  H   H45       1.0  0.99309  0.28508  0.95469  1.0000
  H   H46       1.0  0.50705  0.71478  0.45452  1.0000
  H   H47       1.0  0.49230  0.21494  0.04505  1.0000
  H   H48       1.0  0.00998  0.78204  0.54767  1.0000
  H   H49       1.0  0.19334  0.67107  0.02695  1.0000
  H   H50       1.0  0.30678  0.32913  0.52687  1.0000
  H   H51       1.0  0.69378  0.82897  0.97305  1.0000
  H   H52       1.0  0.80419  0.17451  0.47111  1.0000
  H   H53       1.0  0.80666  0.32894  0.97304  1.0000
  H   H54       1.0  0.69322  0.67087  0.47313  1.0000
  H   H55       1.0  0.30621  0.17103  0.02695  1.0000
  H   H56       1.0  0.19582  0.82548  0.52889  1.0000
  C   C1        1.0  0.86000  0.51493  0.17886  1.0000
  C   C2        1.0  0.63935  0.48543  0.67826  1.0000
  C   C3        1.0  0.36042  0.98506  0.82148  1.0000
  C   C4        1.0  0.13907  0.01591  0.32469  1.0000
  C   C5        1.0  0.14001  0.48508  0.82114  1.0000
  C   C6        1.0  0.36065  0.51457  0.32173  1.0000
  C   C7        1.0  0.63958  0.01494  0.17853  1.0000
  C   C8        1.0  0.86093  0.98409  0.67531  1.0000
  C   C9        1.0  0.96396  0.33716  0.14513  1.0000
  C   C10       1.0  0.53620  0.66327  0.64580  1.0000
  C   C11       1.0  0.46410  0.16268  0.85473  1.0000
  C   C12       1.0  0.03503  0.83807  0.35753  1.0000
  C   C13       1.0  0.03603  0.66285  0.85487  1.0000
  C   C14       1.0  0.46379  0.33672  0.35420  1.0000
  C   C15       1.0  0.53589  0.83732  0.14527  1.0000
  C   C16       1.0  0.96497  0.16192  0.64247  1.0000
  C   C17       1.0  0.81871  0.48168  0.26269  1.0000
  C   C18       1.0  0.68082  0.51879  0.76204  1.0000
  C   C19       1.0  0.31902  0.01834  0.73785  1.0000
  C   C20       1.0  0.18018  0.98229  0.24073  1.0000
  C   C21       1.0  0.18130  0.51833  0.73732  1.0000
  C   C22       1.0  0.31919  0.48121  0.23796  1.0000
  C   C23       1.0  0.68098  0.98166  0.26215  1.0000
  C   C24       1.0  0.81982  0.01771  0.75927  1.0000
  C   C25       1.0  0.92574  0.29739  0.22755  1.0000
  C   C26       1.0  0.57448  0.70315  0.72825  1.0000
  C   C27       1.0  0.42582  0.20254  0.77251  1.0000
  C   C28       1.0  0.07341  0.79831  0.27482  1.0000
  C   C29       1.0  0.07426  0.70263  0.77245  1.0000
  C   C30       1.0  0.42551  0.29684  0.27175  1.0000
  C   C31       1.0  0.57418  0.79745  0.22749  1.0000
  C   C32       1.0  0.92660  0.20168  0.72519  1.0000
  C   C33       1.0  0.85232  0.37069  0.28755  1.0000
  C   C34       1.0  0.64758  0.62988  0.78758  1.0000
  C   C35       1.0  0.35249  0.12932  0.71287  1.0000
  C   C36       1.0  0.14660  0.87137  0.21513  1.0000
  C   C37       1.0  0.14769  0.62932  0.71245  1.0000
  C   C38       1.0  0.35242  0.37012  0.21242  1.0000
  C   C39       1.0  0.64751  0.87067  0.28713  1.0000
  C   C40       1.0  0.85340  0.12863  0.78487  1.0000
  C   C41       1.0  0.62089  0.53444  0.99367  1.0000
  C   C42       1.0  0.87935  0.46536  0.49340  1.0000
  C   C43       1.0  0.12079  0.96556  0.00693  1.0000
  C   C44       1.0  0.37963  0.03520  0.50659  1.0000
  C   C45       1.0  0.37911  0.46556  0.00633  1.0000
  C   C46       1.0  0.12064  0.53465  0.50660  1.0000
  C   C47       1.0  0.87921  0.03444  0.99308  1.0000
  C   C48       1.0  0.62037  0.96480  0.49339  1.0000
  C   C49       1.0  0.44762  0.57963  0.99035  1.0000
  C   C50       1.0  0.05288  0.42038  0.49051  1.0000
  C   C51       1.0  0.94753  0.92045  0.00976  1.0000
  C   C52       1.0  0.55316  0.07928  0.51048  1.0000
  C   C53       1.0  0.55238  0.42038  0.00965  1.0000
  C   C54       1.0  0.94711  0.57962  0.50950  1.0000
  C   C55       1.0  0.05246  0.07954  0.99025  1.0000
  C   C56       1.0  0.44684  0.92071  0.48950  1.0000
  N   N1        1.0  0.93230  0.44419  0.12097  1.0000
  N   N2        1.0  0.56736  0.55613  0.62101  1.0000
  N   N3        1.0  0.43264  0.05567  0.87904  1.0000
  N   N4        1.0  0.06662  0.94522  0.38228  1.0000
  N   N5        1.0  0.06770  0.55582  0.87903  1.0000
  N   N6        1.0  0.43263  0.44386  0.37899  1.0000
  N   N7        1.0  0.56735  0.94433  0.12096  1.0000
  N   N8        1.0  0.93338  0.05478  0.61772  1.0000
  O   O1        1.0  0.76404  0.57911  0.98554  1.0000
  O   O2        1.0  0.73633  0.42069  0.48499  1.0000
  O   O3        1.0  0.26397  0.92111  0.01576  1.0000
  O   O4        1.0  0.23766  0.08153  0.51510  1.0000
  O   O5        1.0  0.23596  0.42089  0.01446  1.0000
  O   O6        1.0  0.26366  0.57931  0.51501  1.0000
  O   O7        1.0  0.73602  0.07889  0.98425  1.0000
  O   O8        1.0  0.76234  0.91847  0.48489  1.0000
  O   O9        1.0  0.08619  0.65105  0.05781  1.0000
  O   O10       1.0  0.41358  0.34945  0.55757  1.0000
  O   O11       1.0  0.58699  0.84891  0.94231  1.0000
  O   O12       1.0  0.90908  0.15592  0.43787  1.0000
  O   O13       1.0  0.91381  0.34895  0.94219  1.0000
  O   O14       1.0  0.58642  0.65055  0.44243  1.0000
  O   O15       1.0  0.41300  0.15109  0.05770  1.0000
  O   O16       1.0  0.09094  0.84408  0.56213  1.0000
  O   O17       1.0  0.38375  0.67634  0.97986  1.0000
  O   O18       1.0  0.11749  0.32373  0.48019  1.0000
  O   O19       1.0  0.88351  0.82389  0.02035  1.0000
  O   O20       1.0  0.61703  0.17566  0.52208  1.0000
  O   O21       1.0  0.61624  0.32367  0.02014  1.0000
  O   O22       1.0  0.88251  0.67628  0.51981  1.0000
  O   O23       1.0  0.11647  0.17611  0.97966  1.0000
  O   O24       1.0  0.38297  0.82434  0.47789  1.0000
