data_image0
_chemical_formula_structural       La2H20C18N6O16
_chemical_formula_sum              "La2 H20 C18 N6 O16"
_cell_length_a       8.76559
_cell_length_b       9.26181
_cell_length_c       9.69385
_cell_angle_alpha    67.9782
_cell_angle_beta     83.6205
_cell_angle_gamma    79.8526

_space_group_name_H-M_alt    "P 1"
_space_group_IT_number       1

loop_
  _space_group_symop_operation_xyz
  'x, y, z'

loop_
  _atom_site_type_symbol
  _atom_site_label
  _atom_site_symmetry_multiplicity
  _atom_site_fract_x
  _atom_site_fract_y
  _atom_site_fract_z
  _atom_site_occupancy
  La  La1       1.0  0.53391  0.25374  0.47766  1.0000
  La  La2       1.0  0.46609  0.74626  0.52233  1.0000
  H   H1        1.0  0.81960  0.74345  0.26107  1.0000
  H   H2        1.0  0.18041  0.25655  0.73893  1.0000
  H   H3        1.0  0.91606  0.62930  0.42279  1.0000
  H   H4        1.0  0.08396  0.37069  0.57719  1.0000
  H   H5        1.0  0.60958  0.18259  0.97784  1.0000
  H   H6        1.0  0.39042  0.81741  0.02215  1.0000
  H   H7        1.0  0.79958  0.11691  0.04418  1.0000
  H   H8        1.0  0.20042  0.88308  0.95582  1.0000
  H   H9        1.0  0.88289  0.74043  0.81777  1.0000
  H   H10       1.0  0.11710  0.25957  0.18225  1.0000
  H   H11       1.0  0.01829  0.77035  0.66461  1.0000
  H   H12       1.0  0.98170  0.22964  0.33541  1.0000
  H   H13       1.0  0.77598  0.21024  0.72192  1.0000
  H   H14       1.0  0.22401  0.78975  0.27808  1.0000
  H   H15       1.0  0.63231  0.34102  0.73415  1.0000
  H   H16       1.0  0.36768  0.65898  0.26585  1.0000
  H   H17       1.0  0.51057  0.46013  0.15028  1.0000
  H   H18       1.0  0.48944  0.53991  0.84970  1.0000
  H   H19       1.0  0.33018  0.48183  0.19170  1.0000
  H   H20       1.0  0.66982  0.51816  0.80828  1.0000
  C   C1        1.0  0.75836  0.51109  0.36430  1.0000
  C   C2        1.0  0.24165  0.48891  0.63568  1.0000
  C   C3        1.0  0.87818  0.62407  0.32032  1.0000
  C   C4        1.0  0.12183  0.37593  0.67966  1.0000
  C   C5        1.0  0.01136  0.58674  0.23107  1.0000
  C   C6        1.0  0.98864  0.41327  0.76890  1.0000
  C   C7        1.0  0.61513  0.06783  0.21582  1.0000
  C   C8        1.0  0.38487  0.93218  0.78419  1.0000
  C   C9        1.0  0.68228  0.08490  0.05770  1.0000
  C   C10       1.0  0.31772  0.91510  0.94231  1.0000
  C   C11       1.0  0.68772  0.94388  0.02455  1.0000
  C   C12       1.0  0.31227  0.05613  0.97545  1.0000
  C   C13       1.0  0.77876  0.87419  0.60772  1.0000
  C   C14       1.0  0.22123  0.12583  0.39229  1.0000
  C   C15       1.0  0.91533  0.82856  0.71023  1.0000
  C   C16       1.0  0.08467  0.17143  0.28979  1.0000
  C   C17       1.0  0.95273  0.96147  0.73609  1.0000
  C   C18       1.0  0.04728  0.03854  0.26394  1.0000
  N   N1        1.0  0.11963  0.55662  0.16025  1.0000
  N   N2        1.0  0.88037  0.44339  0.83972  1.0000
  N   N3        1.0  0.68991  0.82885  0.00118  1.0000
  N   N4        1.0  0.31007  0.17114  0.99882  1.0000
  N   N5        1.0  0.97556  0.07134  0.75773  1.0000
  N   N6        1.0  0.02444  0.92864  0.24229  1.0000
  O   O1        1.0  0.72956  0.76082  0.59290  1.0000
  O   O2        1.0  0.27042  0.23919  0.40712  1.0000
  O   O3        1.0  0.72587  0.01876  0.54733  1.0000
  O   O4        1.0  0.27415  0.98124  0.45268  1.0000
  O   O5        1.0  0.63111  0.55508  0.42432  1.0000
  O   O6        1.0  0.36890  0.44491  0.57568  1.0000
  O   O7        1.0  0.59257  0.19341  0.24339  1.0000
  O   O8        1.0  0.40743  0.80657  0.75661  1.0000
  O   O9        1.0  0.78532  0.38180  0.34442  1.0000
  O   O10       1.0  0.21469  0.61820  0.65557  1.0000
  O   O11       1.0  0.58864  0.93353  0.30399  1.0000
  O   O12       1.0  0.41136  0.06645  0.69602  1.0000
  O   O13       1.0  0.66937  0.25729  0.69339  1.0000
  O   O14       1.0  0.33063  0.74271  0.30660  1.0000
  O   O15       1.0  0.43318  0.49185  0.21799  1.0000
  O   O16       1.0  0.56682  0.50814  0.78201  1.0000
