data_image0
_chemical_formula_structural       H24Pb2C36N8O8
_chemical_formula_sum              "H24 Pb2 C36 N8 O8"
_cell_length_a       7.1178
_cell_length_b       8.62373
_cell_length_c       13.836
_cell_angle_alpha    100.427
_cell_angle_beta     99.7236
_cell_angle_gamma    100.818

_space_group_name_H-M_alt    "P 1"
_space_group_IT_number       1

loop_
  _space_group_symop_operation_xyz
  'x, y, z'

loop_
  _atom_site_type_symbol
  _atom_site_label
  _atom_site_symmetry_multiplicity
  _atom_site_fract_x
  _atom_site_fract_y
  _atom_site_fract_z
  _atom_site_occupancy
  H   H1        1.0  0.98698  0.78603  0.16351  1.0000
  H   H2        1.0  0.01305  0.21400  0.83650  1.0000
  H   H3        1.0  0.89119  0.92816  0.31735  1.0000
  H   H4        1.0  0.10875  0.07176  0.68268  1.0000
  H   H5        1.0  0.09842  0.93793  0.48787  1.0000
  H   H6        1.0  0.90151  0.06195  0.51215  1.0000
  H   H7        1.0  0.86338  0.57770  0.50428  1.0000
  H   H8        1.0  0.13661  0.42225  0.49572  1.0000
  H   H9        1.0  0.92520  0.43487  0.33737  1.0000
  H   H10       1.0  0.07479  0.56509  0.66263  1.0000
  H   H11       1.0  0.69319  0.43099  0.18001  1.0000
  H   H12       1.0  0.30685  0.56905  0.81998  1.0000
  H   H13       1.0  0.46569  0.96424  0.76070  1.0000
  H   H14       1.0  0.53432  0.03571  0.23930  1.0000
  H   H15       1.0  0.73103  0.80140  0.76702  1.0000
  H   H16       1.0  0.26902  0.19860  0.23298  1.0000
  H   H17       1.0  0.10946  0.92650  0.82599  1.0000
  H   H18       1.0  0.89057  0.07353  0.17400  1.0000
  H   H19       1.0  0.30908  0.84568  0.86795  1.0000
  H   H20       1.0  0.69094  0.15435  0.13205  1.0000
  H   H21       1.0  0.13802  0.07853  0.00552  1.0000
  H   H22       1.0  0.86199  0.92149  0.99448  1.0000
  H   H23       1.0  0.33584  0.99587  0.04613  1.0000
  H   H24       1.0  0.66420  0.00417  0.95386  1.0000
  Pb  Pb1       1.0  0.28878  0.55028  0.08388  1.0000
  Pb  Pb2       1.0  0.71119  0.44978  0.91612  1.0000
  C   C1        1.0  0.06808  0.79215  0.23898  1.0000
  C   C2        1.0  0.93192  0.20786  0.76104  1.0000
  C   C3        1.0  0.01711  0.87285  0.32485  1.0000
  C   C4        1.0  0.98285  0.12709  0.67517  1.0000
  C   C5        1.0  0.12891  0.87804  0.41795  1.0000
  C   C6        1.0  0.87105  0.12188  0.58207  1.0000
  C   C7        1.0  0.28850  0.80347  0.42471  1.0000
  C   C8        1.0  0.71148  0.19648  0.57530  1.0000
  C   C9        1.0  0.32812  0.72287  0.33441  1.0000
  C   C10       1.0  0.67189  0.27713  0.66560  1.0000
  C   C11       1.0  0.49209  0.64350  0.33813  1.0000
  C   C12       1.0  0.50793  0.35650  0.66187  1.0000
  C   C13       1.0  0.61231  0.64882  0.43175  1.0000
  C   C14       1.0  0.38770  0.35116  0.56825  1.0000
  C   C15       1.0  0.77034  0.57204  0.43205  1.0000
  C   C16       1.0  0.22966  0.42792  0.56795  1.0000
  C   C17       1.0  0.80343  0.49410  0.34200  1.0000
  C   C18       1.0  0.19657  0.50588  0.65800  1.0000
  C   C19       1.0  0.67562  0.49316  0.25271  1.0000
  C   C20       1.0  0.32440  0.50686  0.74728  1.0000
  C   C21       1.0  0.41230  0.80929  0.52086  1.0000
  C   C22       1.0  0.58769  0.19067  0.47914  1.0000
  C   C23       1.0  0.57019  0.73079  0.52435  1.0000
  C   C24       1.0  0.42982  0.26918  0.47565  1.0000
  C   C25       1.0  0.49128  0.89291  0.69223  1.0000
  C   C26       1.0  0.50872  0.10704  0.30778  1.0000
  C   C27       1.0  0.64240  0.80743  0.69575  1.0000
  C   C28       1.0  0.35763  0.19255  0.30426  1.0000
  C   C29       1.0  0.05019  0.74448  0.91013  1.0000
  C   C30       1.0  0.94980  0.25557  0.08986  1.0000
  C   C31       1.0  0.18511  0.89055  0.89143  1.0000
  C   C32       1.0  0.81490  0.10949  0.10856  1.0000
  C   C33       1.0  0.26024  0.03307  0.98112  1.0000
  C   C34       1.0  0.73978  0.96697  0.01887  1.0000
  C   C35       1.0  0.39511  0.17823  0.96208  1.0000
  C   C36       1.0  0.60486  0.82183  0.03790  1.0000
  N   N1        1.0  0.21808  0.71956  0.24394  1.0000
  N   N2        1.0  0.78194  0.28046  0.75607  1.0000
  N   N3        1.0  0.52533  0.56497  0.25108  1.0000
  N   N4        1.0  0.47470  0.43506  0.74892  1.0000
  N   N5        1.0  0.68300  0.72850  0.61283  1.0000
  N   N6        1.0  0.31703  0.27148  0.38717  1.0000
  N   N7        1.0  0.37576  0.89253  0.60578  1.0000
  N   N8        1.0  0.62423  0.10741  0.39423  1.0000
  O   O1        1.0  0.05837  0.72424  0.00018  1.0000
  O   O2        1.0  0.94160  0.27582  0.99981  1.0000
  O   O3        1.0  0.93592  0.64735  0.83342  1.0000
  O   O4        1.0  0.06409  0.35269  0.16657  1.0000
  O   O5        1.0  0.46185  0.30131  0.03597  1.0000
  O   O6        1.0  0.53813  0.69875  0.96402  1.0000
  O   O7        1.0  0.43642  0.17326  0.87585  1.0000
  O   O8        1.0  0.56352  0.82682  0.12413  1.0000
