data_image0
_chemical_formula_structural       Hg2H16C20N4Cl4
_chemical_formula_sum              "Hg2 H16 C20 N4 Cl4"
_cell_length_a       7.40178
_cell_length_b       9.32778
_cell_length_c       9.47212
_cell_angle_alpha    119.419
_cell_angle_beta     106.069
_cell_angle_gamma    90.1633

_space_group_name_H-M_alt    "P 1"
_space_group_IT_number       1

loop_
  _space_group_symop_operation_xyz
  'x, y, z'

loop_
  _atom_site_type_symbol
  _atom_site_label
  _atom_site_symmetry_multiplicity
  _atom_site_fract_x
  _atom_site_fract_y
  _atom_site_fract_z
  _atom_site_occupancy
  Hg  Hg1       1.0  0.25027  0.08096  0.99995  1.0000
  Hg  Hg2       1.0  0.74973  0.91904  0.00005  1.0000
  H   H1        1.0  0.58215  0.35435  0.34801  1.0000
  H   H2        1.0  0.91849  0.00548  0.65205  1.0000
  H   H3        1.0  0.41785  0.64565  0.65199  1.0000
  H   H4        1.0  0.08150  0.99452  0.34795  1.0000
  H   H5        1.0  0.71107  0.66489  0.52714  1.0000
  H   H6        1.0  0.78886  0.13675  0.47302  1.0000
  H   H7        1.0  0.28893  0.33511  0.47285  1.0000
  H   H8        1.0  0.21113  0.86325  0.52698  1.0000
  H   H9        1.0  0.58007  0.84435  0.40572  1.0000
  H   H10       1.0  0.91933  0.43806  0.59450  1.0000
  H   H11       1.0  0.41992  0.15564  0.59428  1.0000
  H   H12       1.0  0.08067  0.56195  0.40550  1.0000
  H   H13       1.0  0.33866  0.71506  0.12179  1.0000
  H   H14       1.0  0.16091  0.59319  0.87830  1.0000
  H   H15       1.0  0.66134  0.28494  0.87821  1.0000
  H   H16       1.0  0.83909  0.40681  0.12170  1.0000
  C   C1        1.0  0.53108  0.44059  0.30515  1.0000
  C   C2        1.0  0.96933  0.13471  0.69487  1.0000
  C   C3        1.0  0.46892  0.55941  0.69485  1.0000
  C   C4        1.0  0.03066  0.86529  0.30513  1.0000
  C   C5        1.0  0.60144  0.61122  0.40254  1.0000
  C   C6        1.0  0.89855  0.20789  0.59756  1.0000
  C   C7        1.0  0.39856  0.38878  0.59745  1.0000
  C   C8        1.0  0.10144  0.79211  0.40244  1.0000
  C   C9        1.0  0.52999  0.71023  0.33481  1.0000
  C   C10       1.0  0.96974  0.37488  0.66534  1.0000
  C   C11       1.0  0.47001  0.28977  0.66519  1.0000
  C   C12       1.0  0.03026  0.62512  0.33466  1.0000
  C   C13       1.0  0.39249  0.63690  0.17417  1.0000
  C   C14       1.0  0.10734  0.46246  0.82589  1.0000
  C   C15       1.0  0.60751  0.36310  0.82583  1.0000
  C   C16       1.0  0.89266  0.53754  0.17411  1.0000
  C   C17       1.0  0.32542  0.46505  0.08498  1.0000
  C   C18       1.0  0.17482  0.37990  0.91502  1.0000
  C   C19       1.0  0.67458  0.53495  0.91502  1.0000
  C   C20       1.0  0.82518  0.62010  0.08498  1.0000
  N   N1        1.0  0.39608  0.37104  0.15208  1.0000
  N   N2        1.0  0.10447  0.21854  0.84785  1.0000
  N   N3        1.0  0.60392  0.62896  0.84792  1.0000
  N   N4        1.0  0.89553  0.78146  0.15215  1.0000
  Cl  Cl1       1.0  0.48916  0.01809  0.20807  1.0000
  Cl  Cl2       1.0  0.01067  0.80969  0.79233  1.0000
  Cl  Cl3       1.0  0.51084  0.98191  0.79193  1.0000
  Cl  Cl4       1.0  0.98933  0.19031  0.20767  1.0000
