data_image0
_chemical_formula_structural       Zn2H44C64N8O14
_chemical_formula_sum              "Zn2 H44 C64 N8 O14"
_cell_length_a       9.8096
_cell_length_b       11.8199
_cell_length_c       14.07
_cell_angle_alpha    89.6251
_cell_angle_beta     69.8268
_cell_angle_gamma    66.9287

_space_group_name_H-M_alt    "P 1"
_space_group_IT_number       1

loop_
  _space_group_symop_operation_xyz
  'x, y, z'

loop_
  _atom_site_type_symbol
  _atom_site_label
  _atom_site_symmetry_multiplicity
  _atom_site_fract_x
  _atom_site_fract_y
  _atom_site_fract_z
  _atom_site_occupancy
  Zn  Zn1       1.0  0.98792  0.46080  0.71629  1.0000
  Zn  Zn2       1.0  0.01208  0.53920  0.28372  1.0000
  H   H1        1.0  0.32174  0.26327  0.93534  1.0000
  H   H2        1.0  0.67826  0.73673  0.06466  1.0000
  H   H3        1.0  0.01390  0.19367  0.40923  1.0000
  H   H4        1.0  0.98610  0.80633  0.59077  1.0000
  H   H5        1.0  0.28970  0.72223  0.50321  1.0000
  H   H6        1.0  0.71031  0.27776  0.49679  1.0000
  H   H7        1.0  0.52807  0.76668  0.47145  1.0000
  H   H8        1.0  0.47193  0.23331  0.52855  1.0000
  H   H9        1.0  0.70871  0.67091  0.56658  1.0000
  H   H10       1.0  0.29129  0.32909  0.43342  1.0000
  H   H11       1.0  0.41623  0.48460  0.72060  1.0000
  H   H12       1.0  0.58377  0.51540  0.27940  1.0000
  H   H13       1.0  0.19283  0.37208  0.83197  1.0000
  H   H14       1.0  0.80717  0.62792  0.16803  1.0000
  H   H15       1.0  0.91895  0.33030  0.13347  1.0000
  H   H16       1.0  0.08105  0.66970  0.86654  1.0000
  H   H17       1.0  0.67584  0.42163  0.08734  1.0000
  H   H18       1.0  0.32416  0.57837  0.91266  1.0000
  H   H19       1.0  0.71004  0.47191  0.90740  1.0000
  H   H20       1.0  0.28996  0.52809  0.09261  1.0000
  H   H21       1.0  0.52700  0.12046  0.91996  1.0000
  H   H22       1.0  0.47300  0.87953  0.08004  1.0000
  H   H23       1.0  0.78861  0.99486  0.92815  1.0000
  H   H24       1.0  0.21139  0.00514  0.07185  1.0000
  H   H25       1.0  0.59721  0.10948  0.25457  1.0000
  H   H26       1.0  0.40280  0.89052  0.74542  1.0000
  H   H27       1.0  0.32997  0.23433  0.24744  1.0000
  H   H28       1.0  0.67003  0.76567  0.75256  1.0000
  H   H29       1.0  0.05567  0.78554  0.13798  1.0000
  H   H30       1.0  0.94433  0.21447  0.86202  1.0000
  H   H31       1.0  0.19325  0.80126  0.25360  1.0000
  H   H32       1.0  0.80674  0.19875  0.74640  1.0000
  H   H33       1.0  0.94786  0.20075  0.29435  1.0000
  H   H34       1.0  0.05214  0.79925  0.70565  1.0000
  H   H35       1.0  0.80815  0.18415  0.18360  1.0000
  H   H36       1.0  0.19185  0.81586  0.81640  1.0000
  H   H37       1.0  0.33244  0.94987  0.47811  1.0000
  H   H38       1.0  0.66756  0.05013  0.52190  1.0000
  H   H39       1.0  0.40597  0.00631  0.61938  1.0000
  H   H40       1.0  0.59403  0.99369  0.38062  1.0000
  H   H41       1.0  0.25756  0.22254  0.71490  1.0000
  H   H42       1.0  0.74245  0.77745  0.28510  1.0000
  H   H43       1.0  0.97289  0.32632  0.54116  1.0000
  H   H44       1.0  0.02711  0.67368  0.45884  1.0000
  C   C1        1.0  0.19349  0.57497  0.63253  1.0000
  C   C2        1.0  0.80651  0.42503  0.36747  1.0000
  C   C3        1.0  0.33638  0.60196  0.61499  1.0000
  C   C4        1.0  0.66362  0.39804  0.38501  1.0000
  C   C5        1.0  0.36815  0.68191  0.54506  1.0000
  C   C6        1.0  0.63185  0.31809  0.45494  1.0000
  C   C7        1.0  0.50117  0.70732  0.52781  1.0000
  C   C8        1.0  0.49883  0.29267  0.47219  1.0000
  C   C9        1.0  0.60257  0.65405  0.58035  1.0000
  C   C10       1.0  0.39743  0.34595  0.41965  1.0000
  C   C11       1.0  0.57118  0.57475  0.65113  1.0000
  C   C12       1.0  0.42883  0.42524  0.34887  1.0000
  C   C13       1.0  0.43840  0.54862  0.66764  1.0000
  C   C14       1.0  0.56160  0.45138  0.33236  1.0000
  C   C15       1.0  0.68117  0.51630  0.70728  1.0000
  C   C16       1.0  0.31883  0.48369  0.29272  1.0000
  C   C17       1.0  0.08201  0.37592  0.88952  1.0000
  C   C18       1.0  0.91799  0.62408  0.11048  1.0000
  C   C19       1.0  0.07750  0.33618  0.98415  1.0000
  C   C20       1.0  0.92250  0.66382  0.01585  1.0000
  C   C21       1.0  0.92786  0.35435  0.05772  1.0000
  C   C22       1.0  0.07214  0.64565  0.94228  1.0000
  C   C23       1.0  0.79359  0.40605  0.03174  1.0000
  C   C24       1.0  0.20641  0.59395  0.96826  1.0000
  C   C25       1.0  0.80899  0.43782  0.93422  1.0000
  C   C26       1.0  0.19101  0.56218  0.06578  1.0000
  C   C27       1.0  0.24269  0.25841  0.09025  1.0000
  C   C28       1.0  0.75731  0.74159  0.90975  1.0000
  C   C29       1.0  0.40890  0.18818  0.08448  1.0000
  C   C30       1.0  0.59110  0.81181  0.91552  1.0000
  C   C31       1.0  0.53922  0.12156  0.99415  1.0000
  C   C32       1.0  0.46078  0.87844  0.00585  1.0000
  C   C33       1.0  0.68802  0.04947  0.99729  1.0000
  C   C34       1.0  0.31198  0.95053  0.00271  1.0000
  C   C35       1.0  0.70883  0.04475  0.09093  1.0000
  C   C36       1.0  0.29117  0.95525  0.90907  1.0000
  C   C37       1.0  0.58093  0.11197  0.18176  1.0000
  C   C38       1.0  0.41907  0.88803  0.81824  1.0000
  C   C39       1.0  0.43204  0.18220  0.17789  1.0000
  C   C40       1.0  0.56796  0.81780  0.82210  1.0000
  C   C41       1.0  0.92168  0.98278  0.15604  1.0000
  C   C42       1.0  0.07831  0.01722  0.84396  1.0000
  C   C43       1.0  0.03132  0.87554  0.17463  1.0000
  C   C44       1.0  0.96867  0.12446  0.82537  1.0000
  C   C45       1.0  0.10823  0.88487  0.23856  1.0000
  C   C46       1.0  0.89177  0.11514  0.76144  1.0000
  C   C47       1.0  0.07647  0.00210  0.28489  1.0000
  C   C48       1.0  0.92353  0.99791  0.71511  1.0000
  C   C49       1.0  0.96885  0.10884  0.26355  1.0000
  C   C50       1.0  0.03115  0.89117  0.73645  1.0000
  C   C51       1.0  0.89094  0.10026  0.19958  1.0000
  C   C52       1.0  0.10905  0.89974  0.80042  1.0000
  C   C53       1.0  0.15998  0.00417  0.35524  1.0000
  C   C54       1.0  0.84002  0.99583  0.64476  1.0000
  C   C55       1.0  0.14897  0.13382  0.49720  1.0000
  C   C56       1.0  0.85103  0.86618  0.50280  1.0000
  C   C57       1.0  0.27099  0.04261  0.52150  1.0000
  C   C58       1.0  0.72901  0.95738  0.47850  1.0000
  C   C59       1.0  0.30989  0.07458  0.60042  1.0000
  C   C60       1.0  0.69011  0.92541  0.39958  1.0000
  C   C61       1.0  0.22774  0.19431  0.65403  1.0000
  C   C62       1.0  0.77226  0.80569  0.34597  1.0000
  C   C63       1.0  0.06877  0.25262  0.55684  1.0000
  C   C64       1.0  0.93123  0.74738  0.44316  1.0000
  N   N1        1.0  0.95206  0.42340  0.86489  1.0000
  N   N2        1.0  0.04794  0.57660  0.13511  1.0000
  N   N3        1.0  0.22201  0.28126  0.99846  1.0000
  N   N4        1.0  0.77799  0.71874  0.00154  1.0000
  N   N5        1.0  0.10001  0.11465  0.41924  1.0000
  N   N6        1.0  0.89999  0.88535  0.58076  1.0000
  N   N7        1.0  0.10804  0.28108  0.63275  1.0000
  N   N8        1.0  0.89196  0.71891  0.36725  1.0000
  O   O1        1.0  0.18140  0.49006  0.68939  1.0000
  O   O2        1.0  0.81860  0.50994  0.31061  1.0000
  O   O3        1.0  0.09250  0.63484  0.59450  1.0000
  O   O4        1.0  0.90750  0.36516  0.40550  1.0000
  O   O5        1.0  0.64782  0.45354  0.77631  1.0000
  O   O6        1.0  0.35218  0.54646  0.22369  1.0000
  O   O7        1.0  0.80817  0.53898  0.67648  1.0000
  O   O8        1.0  0.19183  0.46102  0.32353  1.0000
  O   O9        1.0  0.12777  0.29368  0.17294  1.0000
  O   O10       1.0  0.87223  0.70632  0.82705  1.0000
  O   O11       1.0  0.85733  0.96375  0.08751  1.0000
  O   O12       1.0  0.14267  0.03625  0.91249  1.0000
  O   O13       1.0  0.27370  0.90927  0.35720  1.0000
  O   O14       1.0  0.72630  0.09073  0.64280  1.0000
