data_image0
_chemical_formula_structural       Cd2H44C64N8O14
_chemical_formula_sum              "Cd2 H44 C64 N8 O14"
_cell_length_a       10.4084
_cell_length_b       11.8069
_cell_length_c       13.73
_cell_angle_alpha    76.2905
_cell_angle_beta     73.0058
_cell_angle_gamma    64.7843

_space_group_name_H-M_alt    "P 1"
_space_group_IT_number       1

loop_
  _space_group_symop_operation_xyz
  'x, y, z'

loop_
  _atom_site_type_symbol
  _atom_site_label
  _atom_site_symmetry_multiplicity
  _atom_site_fract_x
  _atom_site_fract_y
  _atom_site_fract_z
  _atom_site_occupancy
  Cd  Cd1       1.0  0.98761  0.98596  0.21367  1.0000
  Cd  Cd2       1.0  0.01239  0.01404  0.78633  1.0000
  H   H1        1.0  0.72123  0.29485  0.90381  1.0000
  H   H2        1.0  0.27877  0.70515  0.09619  1.0000
  H   H3        1.0  0.07980  0.24931  0.43774  1.0000
  H   H4        1.0  0.92021  0.75069  0.56226  1.0000
  H   H5        1.0  0.46274  0.99754  0.22340  1.0000
  H   H6        1.0  0.53726  0.00245  0.77661  1.0000
  H   H7        1.0  0.46319  0.79415  0.00074  1.0000
  H   H8        1.0  0.53681  0.20585  0.99926  1.0000
  H   H9        1.0  0.72966  0.73008  0.94090  1.0000
  H   H10       1.0  0.27033  0.26992  0.05910  1.0000
  H   H11       1.0  0.86476  0.79502  0.02792  1.0000
  H   H12       1.0  0.13524  0.20498  0.97208  1.0000
  H   H13       1.0  0.02215  0.24153  0.20636  1.0000
  H   H14       1.0  0.97785  0.75847  0.79364  1.0000
  H   H15       1.0  0.95002  0.46496  0.12020  1.0000
  H   H16       1.0  0.04998  0.53504  0.87980  1.0000
  H   H17       1.0  0.80845  0.53186  0.98283  1.0000
  H   H18       1.0  0.19155  0.46814  0.01717  1.0000
  H   H19       1.0  0.82463  0.15186  0.02992  1.0000
  H   H20       1.0  0.17537  0.84813  0.97008  1.0000
  H   H21       1.0  0.49233  0.69948  0.77828  1.0000
  H   H22       1.0  0.50767  0.30052  0.22172  1.0000
  H   H23       1.0  0.33252  0.72657  0.66304  1.0000
  H   H24       1.0  0.66748  0.27343  0.33695  1.0000
  H   H25       1.0  0.49228  0.32299  0.67465  1.0000
  H   H26       1.0  0.50771  0.67701  0.32536  1.0000
  H   H27       1.0  0.65152  0.29579  0.78790  1.0000
  H   H28       1.0  0.34847  0.70421  0.21210  1.0000
  H   H29       1.0  0.29156  0.50301  0.42717  1.0000
  H   H30       1.0  0.70844  0.49700  0.57283  1.0000
  H   H31       1.0  0.15248  0.38268  0.42004  1.0000
  H   H32       1.0  0.84752  0.61732  0.57995  1.0000
  H   H33       1.0  0.06566  0.29956  0.75156  1.0000
  H   H34       1.0  0.93434  0.70043  0.24843  1.0000
  H   H35       1.0  0.21012  0.41959  0.75724  1.0000
  H   H36       1.0  0.78988  0.58041  0.24276  1.0000
  H   H37       1.0  0.62062  0.10484  0.57968  1.0000
  H   H38       1.0  0.37938  0.89517  0.42032  1.0000
  H   H39       1.0  0.75501  0.21076  0.62487  1.0000
  H   H40       1.0  0.24499  0.78925  0.37512  1.0000
  H   H41       1.0  0.07341  0.11344  0.34324  1.0000
  H   H42       1.0  0.92659  0.88656  0.65676  1.0000
  H   H43       1.0  0.71567  0.01792  0.40928  1.0000
  H   H44       1.0  0.28433  0.98209  0.59072  1.0000
  C   C1        1.0  0.75643  0.93964  0.17868  1.0000
  C   C2        1.0  0.24357  0.06035  0.82131  1.0000
  C   C3        1.0  0.67299  0.89792  0.13167  1.0000
  C   C4        1.0  0.32701  0.10208  0.86834  1.0000
  C   C5        1.0  0.52199  0.93631  0.16340  1.0000
  C   C6        1.0  0.47802  0.06369  0.83660  1.0000
  C   C7        1.0  0.44637  0.89794  0.11700  1.0000
  C   C8        1.0  0.55363  0.10206  0.88300  1.0000
  C   C9        1.0  0.28564  0.93572  0.15294  1.0000
  C   C10       1.0  0.71436  0.06428  0.84706  1.0000
  C   C11       1.0  0.52251  0.82251  0.03751  1.0000
  C   C12       1.0  0.47749  0.17749  0.96249  1.0000
  C   C13       1.0  0.67280  0.78548  0.00475  1.0000
  C   C14       1.0  0.32720  0.21452  0.99526  1.0000
  C   C15       1.0  0.74765  0.82204  0.05232  1.0000
  C   C16       1.0  0.25235  0.17796  0.94768  1.0000
  C   C17       1.0  0.95750  0.27557  0.14824  1.0000
  C   C18       1.0  0.04250  0.72443  0.85176  1.0000
  C   C19       1.0  0.91826  0.39870  0.09933  1.0000
  C   C20       1.0  0.08175  0.60130  0.90067  1.0000
  C   C21       1.0  0.84136  0.43619  0.02201  1.0000
  C   C22       1.0  0.15864  0.56380  0.97798  1.0000
  C   C23       1.0  0.80674  0.34712  0.99429  1.0000
  C   C24       1.0  0.19326  0.65287  0.00571  1.0000
  C   C25       1.0  0.84882  0.22443  0.04878  1.0000
  C   C26       1.0  0.15118  0.77557  0.95122  1.0000
  C   C27       1.0  0.67569  0.48721  0.85951  1.0000
  C   C28       1.0  0.32431  0.51279  0.14049  1.0000
  C   C29       1.0  0.58206  0.49580  0.79178  1.0000
  C   C30       1.0  0.41793  0.50420  0.20822  1.0000
  C   C31       1.0  0.49195  0.61729  0.75539  1.0000
  C   C32       1.0  0.50804  0.38271  0.24461  1.0000
  C   C33       1.0  0.40291  0.63288  0.69107  1.0000
  C   C34       1.0  0.59709  0.36712  0.30893  1.0000
  C   C35       1.0  0.40454  0.52676  0.66162  1.0000
  C   C36       1.0  0.59545  0.47324  0.33838  1.0000
  C   C37       1.0  0.49216  0.40515  0.69771  1.0000
  C   C38       1.0  0.50784  0.59485  0.30230  1.0000
  C   C39       1.0  0.58027  0.39058  0.76262  1.0000
  C   C40       1.0  0.41973  0.60942  0.23738  1.0000
  C   C41       1.0  0.25701  0.46958  0.59225  1.0000
  C   C42       1.0  0.74299  0.53042  0.40775  1.0000
  C   C43       1.0  0.24282  0.45693  0.49753  1.0000
  C   C44       1.0  0.75718  0.54307  0.50247  1.0000
  C   C45       1.0  0.16459  0.38762  0.49510  1.0000
  C   C46       1.0  0.83541  0.61238  0.50490  1.0000
  C   C47       1.0  0.09911  0.33109  0.58661  1.0000
  C   C48       1.0  0.90089  0.66891  0.41339  1.0000
  C   C49       1.0  0.11620  0.34384  0.68081  1.0000
  C   C50       1.0  0.88380  0.65616  0.31919  1.0000
  C   C51       1.0  0.19580  0.41139  0.68414  1.0000
  C   C52       1.0  0.80420  0.58861  0.31586  1.0000
  C   C53       1.0  0.00570  0.26295  0.59160  1.0000
  C   C54       1.0  0.99430  0.73705  0.40839  1.0000
  C   C55       1.0  0.71975  0.11127  0.52785  1.0000
  C   C56       1.0  0.28026  0.88873  0.47216  1.0000
  C   C57       1.0  0.79359  0.17047  0.55361  1.0000
  C   C58       1.0  0.20641  0.82953  0.44638  1.0000
  C   C59       1.0  0.92147  0.17585  0.48551  1.0000
  C   C60       1.0  0.07853  0.82416  0.51449  1.0000
  C   C61       1.0  0.97015  0.11874  0.39600  1.0000
  C   C62       1.0  0.02985  0.88126  0.60400  1.0000
  C   C63       1.0  0.77223  0.06047  0.43551  1.0000
  C   C64       1.0  0.22777  0.93953  0.56449  1.0000
  N   N1        1.0  0.92144  0.19080  0.12350  1.0000
  N   N2        1.0  0.07856  0.80920  0.87650  1.0000
  N   N3        1.0  0.73137  0.37222  0.91772  1.0000
  N   N4        1.0  0.26863  0.62778  0.08228  1.0000
  N   N5        1.0  0.00452  0.23495  0.50028  1.0000
  N   N6        1.0  0.99549  0.76506  0.49971  1.0000
  N   N7        1.0  0.89668  0.06398  0.37137  1.0000
  N   N8        1.0  0.10332  0.93602  0.62863  1.0000
  O   O1        1.0  0.89439  0.90381  0.13766  1.0000
  O   O2        1.0  0.10561  0.09619  0.86234  1.0000
  O   O3        1.0  0.69401  0.00454  0.25204  1.0000
  O   O4        1.0  0.30599  0.99546  0.74796  1.0000
  O   O5        1.0  0.22362  0.88381  0.11859  1.0000
  O   O6        1.0  0.77638  0.11619  0.88141  1.0000
  O   O7        1.0  0.21481  0.01361  0.21786  1.0000
  O   O8        1.0  0.78519  0.98639  0.78214  1.0000
  O   O9        1.0  0.93076  0.23319  0.67453  1.0000
  O   O10       1.0  0.06924  0.76681  0.32547  1.0000
  O   O11       1.0  0.32435  0.54877  0.58965  1.0000
  O   O12       1.0  0.67565  0.45123  0.41035  1.0000
  O   O13       1.0  0.69732  0.58133  0.86393  1.0000
  O   O14       1.0  0.30268  0.41867  0.13607  1.0000
