data_image0
_chemical_formula_structural       Cd2H44C48N8O8
_chemical_formula_sum              "Cd2 H44 C48 N8 O8"
_cell_length_a       9.27774
_cell_length_b       9.57713
_cell_length_c       13.7814
_cell_angle_alpha    87.5529
_cell_angle_beta     72.0547
_cell_angle_gamma    71.7128

_space_group_name_H-M_alt    "P 1"
_space_group_IT_number       1

loop_
  _space_group_symop_operation_xyz
  'x, y, z'

loop_
  _atom_site_type_symbol
  _atom_site_label
  _atom_site_symmetry_multiplicity
  _atom_site_fract_x
  _atom_site_fract_y
  _atom_site_fract_z
  _atom_site_occupancy
  Cd  Cd1       1.0  0.54167  0.32784  0.08303  1.0000
  Cd  Cd2       1.0  0.45833  0.67216  0.91697  1.0000
  H   H1        1.0  0.35978  0.96188  0.27571  1.0000
  H   H2        1.0  0.64022  0.03812  0.72429  1.0000
  H   H3        1.0  0.45788  0.86235  0.15725  1.0000
  H   H4        1.0  0.54212  0.13765  0.84275  1.0000
  H   H5        1.0  0.48316  0.94553  0.40730  1.0000
  H   H6        1.0  0.51684  0.05447  0.59270  1.0000
  H   H7        1.0  0.67194  0.78621  0.49097  1.0000
  H   H8        1.0  0.32806  0.21379  0.50903  1.0000
  H   H9        1.0  0.90310  0.57541  0.38847  1.0000
  H   H10       1.0  0.09690  0.42459  0.61153  1.0000
  H   H11       1.0  0.93881  0.53101  0.20599  1.0000
  H   H12       1.0  0.06119  0.46899  0.79401  1.0000
  H   H13       1.0  0.88276  0.63927  0.04933  1.0000
  H   H14       1.0  0.11724  0.36073  0.95067  1.0000
  H   H15       1.0  0.69680  0.76899  0.05483  1.0000
  H   H16       1.0  0.30320  0.23101  0.94517  1.0000
  H   H17       1.0  0.48479  0.31072  0.33308  1.0000
  H   H18       1.0  0.51521  0.68928  0.66692  1.0000
  H   H19       1.0  0.29961  0.54217  0.47976  1.0000
  H   H20       1.0  0.70039  0.45783  0.52024  1.0000
  H   H21       1.0  0.23171  0.66090  0.19348  1.0000
  H   H22       1.0  0.76829  0.33910  0.80652  1.0000
  H   H23       1.0  0.01296  0.80757  0.37325  1.0000
  H   H24       1.0  0.98704  0.19243  0.62675  1.0000
  H   H25       1.0  0.17755  0.87246  0.35803  1.0000
  H   H26       1.0  0.82245  0.12754  0.64197  1.0000
  H   H27       1.0  0.87929  0.72790  0.54158  1.0000
  H   H28       1.0  0.12070  0.27210  0.45842  1.0000
  H   H29       1.0  0.82455  0.74259  0.72947  1.0000
  H   H30       1.0  0.17545  0.25741  0.27053  1.0000
  H   H31       1.0  0.23731  0.88253  0.68758  1.0000
  H   H32       1.0  0.76269  0.11747  0.31242  1.0000
  H   H33       1.0  0.28763  0.87302  0.50001  1.0000
  H   H34       1.0  0.71237  0.12698  0.49999  1.0000
  H   H35       1.0  0.90346  0.76906  0.87228  1.0000
  H   H36       1.0  0.09654  0.23094  0.12772  1.0000
  H   H37       1.0  0.10308  0.76426  0.85431  1.0000
  H   H38       1.0  0.89692  0.23574  0.14569  1.0000
  H   H39       1.0  0.68386  0.99198  0.94484  1.0000
  H   H40       1.0  0.31614  0.00802  0.05516  1.0000
  H   H41       1.0  0.92538  0.30070  0.94052  1.0000
  H   H42       1.0  0.07463  0.69930  0.05948  1.0000
  H   H43       1.0  0.14595  0.03685  0.83747  1.0000
  H   H44       1.0  0.85405  0.96315  0.16253  1.0000
  C   C1        1.0  0.50964  0.06331  0.17194  1.0000
  C   C2        1.0  0.49035  0.93669  0.82806  1.0000
  C   C3        1.0  0.47654  0.92248  0.21586  1.0000
  C   C4        1.0  0.52346  0.07752  0.78414  1.0000
  C   C5        1.0  0.59914  0.82611  0.26093  1.0000
  C   C6        1.0  0.40086  0.17389  0.73907  1.0000
  C   C7        1.0  0.58294  0.85293  0.36360  1.0000
  C   C8        1.0  0.41706  0.14707  0.63640  1.0000
  C   C9        1.0  0.69011  0.76461  0.41028  1.0000
  C   C10       1.0  0.30989  0.23540  0.58972  1.0000
  C   C11       1.0  0.81881  0.64767  0.35329  1.0000
  C   C12       1.0  0.18119  0.35234  0.64671  1.0000
  C   C13       1.0  0.83876  0.62246  0.25046  1.0000
  C   C14       1.0  0.16124  0.37754  0.74954  1.0000
  C   C15       1.0  0.73086  0.71038  0.20291  1.0000
  C   C16       1.0  0.26914  0.28962  0.79709  1.0000
  C   C17       1.0  0.75441  0.67449  0.09238  1.0000
  C   C18       1.0  0.24559  0.32551  0.90762  1.0000
  C   C19       1.0  0.69684  0.54484  0.08013  1.0000
  C   C20       1.0  0.30316  0.45516  0.91987  1.0000
  C   C21       1.0  0.40271  0.41727  0.32680  1.0000
  C   C22       1.0  0.59729  0.58273  0.67320  1.0000
  C   C23       1.0  0.31279  0.53079  0.39943  1.0000
  C   C24       1.0  0.68721  0.46921  0.60058  1.0000
  C   C25       1.0  0.27570  0.59462  0.25040  1.0000
  C   C26       1.0  0.72429  0.40538  0.74960  1.0000
  C   C27       1.0  0.12238  0.78927  0.39402  1.0000
  C   C28       1.0  0.87762  0.21073  0.60598  1.0000
  C   C29       1.0  0.08582  0.80176  0.50805  1.0000
  C   C30       1.0  0.91417  0.19824  0.49195  1.0000
  C   C31       1.0  0.95657  0.76405  0.57337  1.0000
  C   C32       1.0  0.04343  0.23595  0.42663  1.0000
  C   C33       1.0  0.92629  0.77134  0.67904  1.0000
  C   C34       1.0  0.07371  0.22866  0.32096  1.0000
  C   C35       1.0  0.02623  0.81475  0.72099  1.0000
  C   C36       1.0  0.97377  0.18525  0.27901  1.0000
  C   C37       1.0  0.15696  0.85103  0.65574  1.0000
  C   C38       1.0  0.84304  0.14897  0.34426  1.0000
  C   C39       1.0  0.18522  0.84558  0.55045  1.0000
  C   C40       1.0  0.81478  0.15442  0.44955  1.0000
  C   C41       1.0  0.99391  0.82193  0.83511  1.0000
  C   C42       1.0  0.00609  0.17807  0.16489  1.0000
  C   C43       1.0  0.77688  0.04338  0.93232  1.0000
  C   C44       1.0  0.22312  0.95662  0.06768  1.0000
  C   C45       1.0  0.90817  0.19804  0.92558  1.0000
  C   C46       1.0  0.09184  0.80196  0.07442  1.0000
  C   C47       1.0  0.01759  0.06980  0.87408  1.0000
  C   C48       1.0  0.98241  0.93020  0.12592  1.0000
  N   N1        1.0  0.37813  0.45830  0.23445  1.0000
  N   N2        1.0  0.62187  0.54170  0.76555  1.0000
  N   N3        1.0  0.23275  0.64252  0.34981  1.0000
  N   N4        1.0  0.76725  0.35748  0.65019  1.0000
  N   N5        1.0  0.75898  0.18033  0.96141  1.0000
  N   N6        1.0  0.24102  0.81967  0.03859  1.0000
  N   N7        1.0  0.93179  0.97344  0.87944  1.0000
  N   N8        1.0  0.06821  0.02656  0.12055  1.0000
  O   O1        1.0  0.43337  0.12874  0.11097  1.0000
  O   O2        1.0  0.56663  0.87126  0.88903  1.0000
  O   O3        1.0  0.60450  0.11096  0.19951  1.0000
  O   O4        1.0  0.39550  0.88904  0.80049  1.0000
  O   O5        1.0  0.61875  0.55123  0.01685  1.0000
  O   O6        1.0  0.38125  0.44877  0.98315  1.0000
  O   O7        1.0  0.72965  0.43460  0.13193  1.0000
  O   O8        1.0  0.27035  0.56540  0.86807  1.0000
