data_image0
_chemical_formula_structural       Cd2H48C66N8O14
_chemical_formula_sum              "Cd2 H48 C66 N8 O14"
_cell_length_a       10.3615
_cell_length_b       10.6585
_cell_length_c       14.4804
_cell_angle_alpha    91.5972
_cell_angle_beta     103.963
_cell_angle_gamma    104.226

_space_group_name_H-M_alt    "P 1"
_space_group_IT_number       1

loop_
  _space_group_symop_operation_xyz
  'x, y, z'

loop_
  _atom_site_type_symbol
  _atom_site_label
  _atom_site_symmetry_multiplicity
  _atom_site_fract_x
  _atom_site_fract_y
  _atom_site_fract_z
  _atom_site_occupancy
  Cd  Cd1       1.0  0.04410  0.99595  0.21999  1.0000
  Cd  Cd2       1.0  0.95590  0.00405  0.78001  1.0000
  H   H1        1.0  0.03043  0.74051  0.88395  1.0000
  H   H2        1.0  0.96957  0.25949  0.11605  1.0000
  H   H3        1.0  0.75043  0.74936  0.45291  1.0000
  H   H4        1.0  0.24957  0.25064  0.54709  1.0000
  H   H5        1.0  0.32039  0.20441  0.02783  1.0000
  H   H6        1.0  0.67961  0.79560  0.97217  1.0000
  H   H7        1.0  0.71894  0.16805  0.01035  1.0000
  H   H8        1.0  0.28106  0.83195  0.98965  1.0000
  H   H9        1.0  0.54342  0.00075  0.23365  1.0000
  H   H10       1.0  0.45658  0.99925  0.76634  1.0000
  H   H11       1.0  0.60433  0.28614  0.89625  1.0000
  H   H12       1.0  0.39567  0.71386  0.10375  1.0000
  H   H13       1.0  0.49833  0.37046  0.93876  1.0000
  H   H14       1.0  0.50167  0.62954  0.06124  1.0000
  H   H15       1.0  0.42220  0.22299  0.86447  1.0000
  H   H16       1.0  0.57780  0.77702  0.13553  1.0000
  H   H17       1.0  0.05433  0.86213  0.02348  1.0000
  H   H18       1.0  0.94567  0.13787  0.97653  1.0000
  H   H19       1.0  0.76592  0.48311  0.95628  1.0000
  H   H20       1.0  0.23408  0.51689  0.04373  1.0000
  H   H21       1.0  0.70515  0.51760  0.11102  1.0000
  H   H22       1.0  0.29485  0.48240  0.88898  1.0000
  H   H23       1.0  0.82633  0.72459  0.21583  1.0000
  H   H24       1.0  0.17367  0.27541  0.78417  1.0000
  H   H25       1.0  0.18536  0.69985  0.84054  1.0000
  H   H26       1.0  0.81464  0.30015  0.15946  1.0000
  H   H27       1.0  0.32654  0.68756  0.72982  1.0000
  H   H28       1.0  0.67345  0.31244  0.27018  1.0000
  H   H29       1.0  0.99215  0.38922  0.55086  1.0000
  H   H30       1.0  0.00785  0.61078  0.44913  1.0000
  H   H31       1.0  0.84945  0.40288  0.66663  1.0000
  H   H32       1.0  0.15055  0.59712  0.33337  1.0000
  H   H33       1.0  0.45239  0.50745  0.71461  1.0000
  H   H34       1.0  0.54761  0.49256  0.28540  1.0000
  H   H35       1.0  0.69747  0.61510  0.72412  1.0000
  H   H36       1.0  0.30253  0.38490  0.27588  1.0000
  H   H37       1.0  0.57130  0.78155  0.45901  1.0000
  H   H38       1.0  0.42870  0.21844  0.54099  1.0000
  H   H39       1.0  0.32833  0.67413  0.45059  1.0000
  H   H40       1.0  0.67167  0.32586  0.54941  1.0000
  H   H41       1.0  0.09381  0.81568  0.62881  1.0000
  H   H42       1.0  0.90619  0.18432  0.37119  1.0000
  H   H43       1.0  0.30594  0.89877  0.57131  1.0000
  H   H44       1.0  0.69406  0.10123  0.42869  1.0000
  H   H45       1.0  0.28053  0.95946  0.40074  1.0000
  H   H46       1.0  0.71947  0.04054  0.59926  1.0000
  H   H47       1.0  0.85702  0.86819  0.34925  1.0000
  H   H48       1.0  0.14298  0.13181  0.65075  1.0000
  C   C1        1.0  0.29987  0.06536  0.17835  1.0000
  C   C2        1.0  0.70012  0.93463  0.82165  1.0000
  C   C3        1.0  0.42044  0.10045  0.13513  1.0000
  C   C4        1.0  0.57956  0.89954  0.86487  1.0000
  C   C5        1.0  0.41320  0.17197  0.05515  1.0000
  C   C6        1.0  0.58680  0.82803  0.94484  1.0000
  C   C7        1.0  0.52058  0.19875  0.00948  1.0000
  C   C8        1.0  0.47941  0.80125  0.99052  1.0000
  C   C9        1.0  0.63538  0.15154  0.04585  1.0000
  C   C10       1.0  0.36462  0.84846  0.95415  1.0000
  C   C11       1.0  0.64573  0.08212  0.12711  1.0000
  C   C12       1.0  0.35427  0.91787  0.87288  1.0000
  C   C13       1.0  0.53765  0.05648  0.17159  1.0000
  C   C14       1.0  0.46235  0.94352  0.82840  1.0000
  C   C15       1.0  0.77429  0.04058  0.16791  1.0000
  C   C16       1.0  0.22570  0.95942  0.83209  1.0000
  C   C17       1.0  0.51155  0.27363  0.92260  1.0000
  C   C18       1.0  0.48845  0.72637  0.07740  1.0000
  C   C19       1.0  0.97820  0.78221  0.04111  1.0000
  C   C20       1.0  0.02181  0.21779  0.95889  1.0000
  C   C21       1.0  0.91682  0.66827  0.97838  1.0000
  C   C22       1.0  0.08318  0.33173  0.02162  1.0000
  C   C23       1.0  0.81601  0.57115  0.00382  1.0000
  C   C24       1.0  0.18400  0.42885  0.99619  1.0000
  C   C25       1.0  0.78278  0.59136  0.08956  1.0000
  C   C26       1.0  0.21722  0.40864  0.91045  1.0000
  C   C27       1.0  0.84972  0.70542  0.14832  1.0000
  C   C28       1.0  0.15028  0.29458  0.85169  1.0000
  C   C29       1.0  0.91983  0.55264  0.82892  1.0000
  C   C30       1.0  0.08018  0.44735  0.17108  1.0000
  C   C31       1.0  0.00621  0.55368  0.76020  1.0000
  C   C32       1.0  0.99379  0.44632  0.23980  1.0000
  C   C33       1.0  0.14047  0.63241  0.77682  1.0000
  C   C34       1.0  0.85953  0.36759  0.22318  1.0000
  C   C35       1.0  0.22238  0.62459  0.71470  1.0000
  C   C36       1.0  0.77762  0.37541  0.28530  1.0000
  C   C37       1.0  0.16824  0.53469  0.63423  1.0000
  C   C38       1.0  0.83176  0.46531  0.36577  1.0000
  C   C39       1.0  0.03314  0.45593  0.61534  1.0000
  C   C40       1.0  0.96686  0.54407  0.38466  1.0000
  C   C41       1.0  0.95357  0.46519  0.67843  1.0000
  C   C42       1.0  0.04643  0.53481  0.32157  1.0000
  C   C43       1.0  0.37675  0.58437  0.58112  1.0000
  C   C44       1.0  0.62325  0.41564  0.41888  1.0000
  C   C45       1.0  0.47933  0.56775  0.65901  1.0000
  C   C46       1.0  0.52067  0.43225  0.34099  1.0000
  C   C47       1.0  0.61654  0.62793  0.66425  1.0000
  C   C48       1.0  0.38346  0.37207  0.33575  1.0000
  C   C49       1.0  0.65228  0.70232  0.59142  1.0000
  C   C50       1.0  0.34772  0.29768  0.40858  1.0000
  C   C51       1.0  0.54771  0.71937  0.51463  1.0000
  C   C52       1.0  0.45229  0.28062  0.48537  1.0000
  C   C53       1.0  0.41032  0.66117  0.50954  1.0000
  C   C54       1.0  0.58968  0.33883  0.49046  1.0000
  C   C55       1.0  0.80075  0.75924  0.59800  1.0000
  C   C56       1.0  0.19925  0.24076  0.40200  1.0000
  C   C57       1.0  0.95826  0.82971  0.49204  1.0000
  C   C58       1.0  0.04174  0.17029  0.50796  1.0000
  C   C59       1.0  0.08685  0.84215  0.55623  1.0000
  C   C60       1.0  0.91315  0.15785  0.44377  1.0000
  C   C61       1.0  0.20431  0.88891  0.52352  1.0000
  C   C62       1.0  0.79570  0.11109  0.47648  1.0000
  C   C63       1.0  0.19226  0.92297  0.43013  1.0000
  C   C64       1.0  0.80774  0.07703  0.56988  1.0000
  C   C65       1.0  0.95435  0.86897  0.40000  1.0000
  C   C66       1.0  0.04565  0.13103  0.60001  1.0000
  N   N1        1.0  0.94573  0.79888  0.12377  1.0000
  N   N2        1.0  0.05427  0.20112  0.87623  1.0000
  N   N3        1.0  0.96260  0.65790  0.89642  1.0000
  N   N4        1.0  0.03740  0.34210  0.10358  1.0000
  N   N5        1.0  0.83105  0.77855  0.51152  1.0000
  N   N6        1.0  0.16895  0.22145  0.48848  1.0000
  N   N7        1.0  0.06797  0.91434  0.37004  1.0000
  N   N8        1.0  0.93203  0.08566  0.62996  1.0000
  O   O1        1.0  0.18529  0.08133  0.12814  1.0000
  O   O2        1.0  0.81471  0.91867  0.87186  1.0000
  O   O3        1.0  0.31251  0.01948  0.25885  1.0000
  O   O4        1.0  0.68750  0.98052  0.74115  1.0000
  O   O5        1.0  0.88133  0.09314  0.13809  1.0000
  O   O6        1.0  0.11867  0.90686  0.86191  1.0000
  O   O7        1.0  0.77608  0.95965  0.23006  1.0000
  O   O8        1.0  0.22392  0.04035  0.76993  1.0000
  O   O9        1.0  0.81808  0.46000  0.82510  1.0000
  O   O10       1.0  0.18193  0.53999  0.17491  1.0000
  O   O11       1.0  0.23914  0.51946  0.56694  1.0000
  O   O12       1.0  0.76086  0.48055  0.43306  1.0000
  O   O13       1.0  0.89045  0.78611  0.67517  1.0000
  O   O14       1.0  0.10955  0.21390  0.32483  1.0000
