data_image0
_chemical_formula_structural       Cd2H34C34N4O10
_chemical_formula_sum              "Cd2 H34 C34 N4 O10"
_cell_length_a       8.7504
_cell_length_b       10.6035
_cell_length_c       10.9141
_cell_angle_alpha    60.6598
_cell_angle_beta     69.985
_cell_angle_gamma    85.118

_space_group_name_H-M_alt    "P 1"
_space_group_IT_number       1

loop_
  _space_group_symop_operation_xyz
  'x, y, z'

loop_
  _atom_site_type_symbol
  _atom_site_label
  _atom_site_symmetry_multiplicity
  _atom_site_fract_x
  _atom_site_fract_y
  _atom_site_fract_z
  _atom_site_occupancy
  Cd  Cd1       1.0  0.22433  0.91662  0.66702  1.0000
  Cd  Cd2       1.0  0.77567  0.08338  0.33298  1.0000
  H   H1        1.0  0.97054  0.75402  0.02476  1.0000
  H   H2        1.0  0.02946  0.24598  0.97524  1.0000
  H   H3        1.0  0.38247  0.58173  0.84231  1.0000
  H   H4        1.0  0.61753  0.41827  0.15768  1.0000
  H   H5        1.0  0.20925  0.36915  0.13545  1.0000
  H   H6        1.0  0.79075  0.63085  0.86455  1.0000
  H   H7        1.0  0.91064  0.35668  0.30628  1.0000
  H   H8        1.0  0.08935  0.64331  0.69372  1.0000
  H   H9        1.0  0.81524  0.51884  0.25924  1.0000
  H   H10       1.0  0.18475  0.48116  0.74077  1.0000
  H   H11       1.0  0.95688  0.25605  0.53154  1.0000
  H   H12       1.0  0.04312  0.74394  0.46846  1.0000
  H   H13       1.0  0.99117  0.72367  0.27062  1.0000
  H   H14       1.0  0.00883  0.27632  0.72938  1.0000
  H   H15       1.0  0.73598  0.10440  0.83733  1.0000
  H   H16       1.0  0.26402  0.89561  0.16267  1.0000
  H   H17       1.0  0.66455  0.02012  0.75769  1.0000
  H   H18       1.0  0.33545  0.97988  0.24231  1.0000
  H   H19       1.0  0.50507  0.78922  0.91237  1.0000
  H   H20       1.0  0.49493  0.21078  0.08763  1.0000
  H   H21       1.0  0.35622  0.58889  0.16834  1.0000
  H   H22       1.0  0.64378  0.41111  0.83166  1.0000
  H   H23       1.0  0.40025  0.57227  0.38865  1.0000
  H   H24       1.0  0.59975  0.42773  0.61135  1.0000
  H   H25       1.0  0.75792  0.94518  0.09610  1.0000
  H   H26       1.0  0.24208  0.05482  0.90390  1.0000
  H   H27       1.0  0.57539  0.63805  0.48673  1.0000
  H   H28       1.0  0.42461  0.36195  0.51326  1.0000
  H   H29       1.0  0.73177  0.78615  0.36567  1.0000
  H   H30       1.0  0.26823  0.21385  0.63433  1.0000
  H   H31       1.0  0.37550  0.08336  0.38393  1.0000
  H   H32       1.0  0.62450  0.91664  0.61607  1.0000
  H   H33       1.0  0.19508  0.11222  0.37975  1.0000
  H   H34       1.0  0.80492  0.88779  0.62025  1.0000
  C   C1        1.0  0.06174  0.68084  0.01308  1.0000
  C   C2        1.0  0.93826  0.31916  0.98692  1.0000
  C   C3        1.0  0.27278  0.58696  0.92411  1.0000
  C   C4        1.0  0.72722  0.41304  0.07589  1.0000
  C   C5        1.0  0.18940  0.48114  0.06843  1.0000
  C   C6        1.0  0.81060  0.51886  0.93156  1.0000
  C   C7        1.0  0.92938  0.47167  0.27164  1.0000
  C   C8        1.0  0.07062  0.52833  0.72836  1.0000
  C   C9        1.0  0.97508  0.36327  0.51793  1.0000
  C   C10       1.0  0.02492  0.63673  0.48207  1.0000
  C   C11       1.0  0.96913  0.48745  0.38796  1.0000
  C   C12       1.0  0.03087  0.51255  0.61204  1.0000
  C   C13       1.0  0.99482  0.62459  0.37069  1.0000
  C   C14       1.0  0.00518  0.37541  0.62931  1.0000
  C   C15       1.0  0.90423  0.97243  0.77001  1.0000
  C   C16       1.0  0.09577  0.02757  0.22999  1.0000
  C   C17       1.0  0.73080  0.00415  0.83229  1.0000
  C   C18       1.0  0.26920  0.99585  0.16771  1.0000
  C   C19       1.0  0.64250  0.87973  0.98716  1.0000
  C   C20       1.0  0.35750  0.12027  0.01284  1.0000
  C   C21       1.0  0.52993  0.77820  0.00833  1.0000
  C   C22       1.0  0.47007  0.22180  0.99167  1.0000
  C   C23       1.0  0.44536  0.66641  0.15229  1.0000
  C   C24       1.0  0.55464  0.33359  0.84771  1.0000
  C   C25       1.0  0.47184  0.65561  0.27593  1.0000
  C   C26       1.0  0.52816  0.34439  0.72407  1.0000
  C   C27       1.0  0.58567  0.75484  0.25674  1.0000
  C   C28       1.0  0.41433  0.24516  0.74326  1.0000
  C   C29       1.0  0.67086  0.86603  0.11180  1.0000
  C   C30       1.0  0.32914  0.13397  0.88820  1.0000
  C   C31       1.0  0.60597  0.74871  0.39137  1.0000
  C   C32       1.0  0.39403  0.25130  0.60863  1.0000
  C   C33       1.0  0.49193  0.84723  0.43615  1.0000
  C   C34       1.0  0.50807  0.15277  0.56385  1.0000
  N   N1        1.0  0.19164  0.71087  0.89107  1.0000
  N   N2        1.0  0.80836  0.28913  0.10893  1.0000
  N   N3        1.0  0.05577  0.54252  0.12260  1.0000
  N   N4        1.0  0.94423  0.45748  0.87740  1.0000
  O   O1        1.0  0.01866  0.01641  0.79133  1.0000
  O   O2        1.0  0.98134  0.98359  0.20866  1.0000
  O   O3        1.0  0.93067  0.89826  0.70180  1.0000
  O   O4        1.0  0.06933  0.10174  0.29820  1.0000
  O   O5        1.0  0.53379  0.98516  0.35554  1.0000
  O   O6        1.0  0.46621  0.01484  0.64446  1.0000
  O   O7        1.0  0.35968  0.78921  0.54598  1.0000
  O   O8        1.0  0.64032  0.21078  0.45403  1.0000
  O   O9        1.0  0.27206  0.11823  0.42744  1.0000
  O   O10       1.0  0.72794  0.88177  0.57256  1.0000
