data_image0
_chemical_formula_structural       Ag4P4H48C24N16O16
_chemical_formula_sum              "Ag4 P4 H48 C24 N16 O16"
_cell_length_a       7.70149
_cell_length_b       9.99103
_cell_length_c       13.4998
_cell_angle_alpha    90
_cell_angle_beta     90
_cell_angle_gamma    90

_space_group_name_H-M_alt    "P 1"
_space_group_IT_number       1

loop_
  _space_group_symop_operation_xyz
  'x, y, z'

loop_
  _atom_site_type_symbol
  _atom_site_label
  _atom_site_symmetry_multiplicity
  _atom_site_fract_x
  _atom_site_fract_y
  _atom_site_fract_z
  _atom_site_occupancy
  Ag  Ag1       1.0  0.19288  0.25870  0.78510  1.0000
  Ag  Ag2       1.0  0.69288  0.24130  0.21490  1.0000
  Ag  Ag3       1.0  0.80712  0.75870  0.71490  1.0000
  Ag  Ag4       1.0  0.30712  0.74130  0.28510  1.0000
  P   P1        1.0  0.35087  0.48544  0.97607  1.0000
  P   P2        1.0  0.85087  0.01456  0.02394  1.0000
  P   P3        1.0  0.64913  0.98544  0.52394  1.0000
  P   P4        1.0  0.14913  0.51456  0.47606  1.0000
  H   H1        1.0  0.21428  0.67920  0.04956  1.0000
  H   H2        1.0  0.71428  0.82080  0.95044  1.0000
  H   H3        1.0  0.78572  0.17920  0.45044  1.0000
  H   H4        1.0  0.28572  0.32080  0.54956  1.0000
  H   H5        1.0  0.16557  0.52856  0.11641  1.0000
  H   H6        1.0  0.66557  0.97144  0.88359  1.0000
  H   H7        1.0  0.83443  0.02856  0.38359  1.0000
  H   H8        1.0  0.33443  0.47144  0.61641  1.0000
  H   H9        1.0  0.61427  0.53244  0.88126  1.0000
  H   H10       1.0  0.11427  0.96756  0.11874  1.0000
  H   H11       1.0  0.38573  0.03244  0.61874  1.0000
  H   H12       1.0  0.88573  0.46756  0.38126  1.0000
  H   H13       1.0  0.49169  0.68078  0.90206  1.0000
  H   H14       1.0  0.99169  0.81921  0.09794  1.0000
  H   H15       1.0  0.50831  0.18079  0.59794  1.0000
  H   H16       1.0  0.00831  0.31921  0.40206  1.0000
  H   H17       1.0  0.36494  0.28996  0.08170  1.0000
  H   H18       1.0  0.86494  0.21004  0.91830  1.0000
  H   H19       1.0  0.63506  0.78996  0.41830  1.0000
  H   H20       1.0  0.13506  0.71004  0.58170  1.0000
  H   H21       1.0  0.53709  0.28853  0.99330  1.0000
  H   H22       1.0  0.03709  0.21147  0.00670  1.0000
  H   H23       1.0  0.46291  0.78853  0.50670  1.0000
  H   H24       1.0  0.96291  0.71147  0.49330  1.0000
  H   H25       1.0  0.80778  0.52820  0.12891  1.0000
  H   H26       1.0  0.30778  0.97180  0.87109  1.0000
  H   H27       1.0  0.19222  0.02820  0.37109  1.0000
  H   H28       1.0  0.69222  0.47180  0.62891  1.0000
  H   H29       1.0  0.78358  0.43636  0.01560  1.0000
  H   H30       1.0  0.28357  0.06364  0.98440  1.0000
  H   H31       1.0  0.21643  0.93636  0.48440  1.0000
  H   H32       1.0  0.71642  0.56364  0.51560  1.0000
  H   H33       1.0  0.49090  0.78365  0.06495  1.0000
  H   H34       1.0  0.99090  0.71635  0.93505  1.0000
  H   H35       1.0  0.50910  0.28365  0.43505  1.0000
  H   H36       1.0  0.00910  0.21635  0.56495  1.0000
  H   H37       1.0  0.64202  0.72507  0.15673  1.0000
  H   H38       1.0  0.14202  0.77493  0.84327  1.0000
  H   H39       1.0  0.35798  0.22506  0.34327  1.0000
  H   H40       1.0  0.85798  0.27493  0.65673  1.0000
  H   H41       1.0  0.57685  0.52530  0.25025  1.0000
  H   H42       1.0  0.07685  0.97470  0.74975  1.0000
  H   H43       1.0  0.42315  0.02530  0.24975  1.0000
  H   H44       1.0  0.92315  0.47470  0.75025  1.0000
  H   H45       1.0  0.37987  0.43513  0.22552  1.0000
  H   H46       1.0  0.87986  0.06487  0.77448  1.0000
  H   H47       1.0  0.62014  0.93513  0.27448  1.0000
  H   H48       1.0  0.12014  0.56487  0.72552  1.0000
  C   C1        1.0  0.26805  0.58535  0.07862  1.0000
  C   C2        1.0  0.76804  0.91464  0.92138  1.0000
  C   C3        1.0  0.73196  0.08536  0.42138  1.0000
  C   C4        1.0  0.23195  0.41464  0.57862  1.0000
  C   C5        1.0  0.53565  0.58668  0.93624  1.0000
  C   C6        1.0  0.03565  0.91332  0.06376  1.0000
  C   C7        1.0  0.46435  0.08668  0.56376  1.0000
  C   C8        1.0  0.96435  0.41332  0.43624  1.0000
  C   C9        1.0  0.46207  0.35242  0.04384  1.0000
  C   C10       1.0  0.96207  0.14758  0.95616  1.0000
  C   C11       1.0  0.53793  0.85242  0.45616  1.0000
  C   C12       1.0  0.03793  0.64758  0.54384  1.0000
  C   C13       1.0  0.71565  0.49670  0.07140  1.0000
  C   C14       1.0  0.21565  0.00330  0.92860  1.0000
  C   C15       1.0  0.28435  0.99670  0.42860  1.0000
  C   C16       1.0  0.78435  0.50330  0.57140  1.0000
  C   C17       1.0  0.54923  0.69470  0.09935  1.0000
  C   C18       1.0  0.04923  0.80530  0.90065  1.0000
  C   C19       1.0  0.45077  0.19470  0.40065  1.0000
  C   C20       1.0  0.95077  0.30530  0.59935  1.0000
  C   C21       1.0  0.48465  0.49468  0.19281  1.0000
  C   C22       1.0  0.98465  0.00532  0.80719  1.0000
  C   C23       1.0  0.51535  0.99468  0.30719  1.0000
  C   C24       1.0  0.01535  0.50532  0.69281  1.0000
  N   N1        1.0  0.58774  0.27991  0.79471  1.0000
  N   N2        1.0  0.08774  0.22009  0.20529  1.0000
  N   N3        1.0  0.41226  0.77991  0.70529  1.0000
  N   N4        1.0  0.91226  0.72009  0.29471  1.0000
  N   N5        1.0  0.40878  0.61827  0.15000  1.0000
  N   N6        1.0  0.90878  0.88173  0.85000  1.0000
  N   N7        1.0  0.59122  0.11827  0.35000  1.0000
  N   N8        1.0  0.09122  0.38173  0.65000  1.0000
  N   N9        1.0  0.64254  0.61643  0.02495  1.0000
  N   N10       1.0  0.14254  0.88357  0.97505  1.0000
  N   N11       1.0  0.35746  0.11643  0.47505  1.0000
  N   N12       1.0  0.85746  0.38357  0.52495  1.0000
  N   N13       1.0  0.58071  0.41156  0.11982  1.0000
  N   N14       1.0  0.08071  0.08844  0.88018  1.0000
  N   N15       1.0  0.41930  0.91156  0.38018  1.0000
  N   N16       1.0  0.91929  0.58844  0.61982  1.0000
  O   O1        1.0  0.21464  0.44679  0.90125  1.0000
  O   O2        1.0  0.71465  0.05321  0.09875  1.0000
  O   O3        1.0  0.78536  0.94679  0.59875  1.0000
  O   O4        1.0  0.28536  0.55321  0.40125  1.0000
  O   O5        1.0  0.49775  0.33629  0.72757  1.0000
  O   O6        1.0  0.99775  0.16371  0.27243  1.0000
  O   O7        1.0  0.50225  0.83629  0.77243  1.0000
  O   O8        1.0  0.00225  0.66371  0.22757  1.0000
  O   O9        1.0  0.52451  0.18348  0.84389  1.0000
  O   O10       1.0  0.02451  0.31652  0.15611  1.0000
  O   O11       1.0  0.47549  0.68348  0.65611  1.0000
  O   O12       1.0  0.97549  0.81652  0.34389  1.0000
  O   O13       1.0  0.74001  0.32209  0.81270  1.0000
  O   O14       1.0  0.24001  0.17791  0.18730  1.0000
  O   O15       1.0  0.25999  0.82209  0.68730  1.0000
  O   O16       1.0  0.75999  0.67791  0.31270  1.0000
