data_image0
_chemical_formula_structural       Ag8P4H56C24S4N12O24
_chemical_formula_sum              "Ag8 P4 H56 C24 S4 N12 O24"
_cell_length_a       7.00316
_cell_length_b       10.1733
_cell_length_c       16.6597
_cell_angle_alpha    90
_cell_angle_beta     90
_cell_angle_gamma    90

_space_group_name_H-M_alt    "P 1"
_space_group_IT_number       1

loop_
  _space_group_symop_operation_xyz
  'x, y, z'

loop_
  _atom_site_type_symbol
  _atom_site_label
  _atom_site_symmetry_multiplicity
  _atom_site_fract_x
  _atom_site_fract_y
  _atom_site_fract_z
  _atom_site_occupancy
  Ag  Ag1       1.0  0.60113  0.01475  0.27982  1.0000
  Ag  Ag2       1.0  0.10114  0.98525  0.72018  1.0000
  Ag  Ag3       1.0  0.10113  0.51475  0.22018  1.0000
  Ag  Ag4       1.0  0.60114  0.48525  0.77982  1.0000
  Ag  Ag5       1.0  0.39430  0.23827  0.93483  1.0000
  Ag  Ag6       1.0  0.89430  0.76173  0.06517  1.0000
  Ag  Ag7       1.0  0.89430  0.73827  0.56517  1.0000
  Ag  Ag8       1.0  0.39430  0.26173  0.43483  1.0000
  P   P1        1.0  0.00324  0.05859  0.14855  1.0000
  P   P2        1.0  0.50324  0.94141  0.85145  1.0000
  P   P3        1.0  0.50324  0.55859  0.35145  1.0000
  P   P4        1.0  0.00324  0.44141  0.64855  1.0000
  H   H1        1.0  0.16932  0.00409  0.27209  1.0000
  H   H2        1.0  0.66932  0.99591  0.72791  1.0000
  H   H3        1.0  0.66932  0.50409  0.22791  1.0000
  H   H4        1.0  0.16932  0.49591  0.77209  1.0000
  H   H5        1.0  0.25962  0.91459  0.18744  1.0000
  H   H6        1.0  0.75962  0.08541  0.81256  1.0000
  H   H7        1.0  0.75962  0.41459  0.31256  1.0000
  H   H8        1.0  0.25962  0.58541  0.68744  1.0000
  H   H9        1.0  0.86137  0.27669  0.14306  1.0000
  H   H10       1.0  0.36137  0.72331  0.85694  1.0000
  H   H11       1.0  0.36137  0.77669  0.35694  1.0000
  H   H12       1.0  0.86137  0.22331  0.64306  1.0000
  H   H13       1.0  0.91695  0.22845  0.24391  1.0000
  H   H14       1.0  0.41695  0.77155  0.75609  1.0000
  H   H15       1.0  0.41695  0.72845  0.25609  1.0000
  H   H16       1.0  0.91695  0.27155  0.74391  1.0000
  H   H17       1.0  0.17293  0.98666  0.02997  1.0000
  H   H18       1.0  0.67293  0.01334  0.97003  1.0000
  H   H19       1.0  0.67293  0.48666  0.47003  1.0000
  H   H20       1.0  0.17293  0.51334  0.52997  1.0000
  H   H21       1.0  0.01836  0.12130  0.00714  1.0000
  H   H22       1.0  0.51836  0.87870  0.99286  1.0000
  H   H23       1.0  0.51837  0.62130  0.49287  1.0000
  H   H24       1.0  0.01836  0.37870  0.50714  1.0000
  H   H25       1.0  0.55253  0.18661  0.11291  1.0000
  H   H26       1.0  0.05253  0.81339  0.88709  1.0000
  H   H27       1.0  0.05253  0.68661  0.38709  1.0000
  H   H28       1.0  0.55253  0.31339  0.61291  1.0000
  H   H29       1.0  0.47161  0.02236  0.09457  1.0000
  H   H30       1.0  0.97161  0.97764  0.90543  1.0000
  H   H31       1.0  0.97161  0.52236  0.40543  1.0000
  H   H32       1.0  0.47161  0.47764  0.59457  1.0000
  H   H33       1.0  0.10203  0.34085  0.05364  1.0000
  H   H34       1.0  0.60203  0.65914  0.94636  1.0000
  H   H35       1.0  0.60203  0.84086  0.44636  1.0000
  H   H36       1.0  0.10203  0.15914  0.55365  1.0000
  H   H37       1.0  0.33929  0.37283  0.08887  1.0000
  H   H38       1.0  0.83930  0.62717  0.91113  1.0000
  H   H39       1.0  0.83930  0.87283  0.41113  1.0000
  H   H40       1.0  0.33930  0.12717  0.58887  1.0000
  H   H41       1.0  0.24540  0.23365  0.28843  1.0000
  H   H42       1.0  0.74540  0.76635  0.71156  1.0000
  H   H43       1.0  0.74540  0.73366  0.21157  1.0000
  H   H44       1.0  0.24540  0.26635  0.78844  1.0000
  H   H45       1.0  0.42480  0.30662  0.22655  1.0000
  H   H46       1.0  0.92481  0.69338  0.77345  1.0000
  H   H47       1.0  0.92481  0.80662  0.27345  1.0000
  H   H48       1.0  0.42481  0.19338  0.72655  1.0000
  H   H49       1.0  0.15813  0.45735  0.89809  1.0000
  H   H50       1.0  0.65813  0.54265  0.10191  1.0000
  H   H51       1.0  0.65813  0.95735  0.60191  1.0000
  H   H52       1.0  0.15812  0.04265  0.39809  1.0000
  H   H53       1.0  0.30634  0.53384  0.95188  1.0000
  H   H54       1.0  0.80634  0.46616  0.04812  1.0000
  H   H55       1.0  0.80634  0.03384  0.54812  1.0000
  H   H56       1.0  0.30634  0.96616  0.45188  1.0000
  C   C1        1.0  0.20852  0.01053  0.20852  1.0000
  C   C2        1.0  0.70852  0.98947  0.79148  1.0000
  C   C3        1.0  0.70852  0.51054  0.29148  1.0000
  C   C4        1.0  0.20852  0.48947  0.70852  1.0000
  C   C5        1.0  0.96714  0.22762  0.18147  1.0000
  C   C6        1.0  0.46714  0.77238  0.81853  1.0000
  C   C7        1.0  0.46714  0.72762  0.31853  1.0000
  C   C8        1.0  0.96714  0.27238  0.68147  1.0000
  C   C9        1.0  0.11861  0.08175  0.05168  1.0000
  C   C10       1.0  0.61861  0.91825  0.94832  1.0000
  C   C11       1.0  0.61861  0.58175  0.44832  1.0000
  C   C12       1.0  0.11861  0.41825  0.55168  1.0000
  C   C13       1.0  0.42893  0.12042  0.11476  1.0000
  C   C14       1.0  0.92893  0.87958  0.88524  1.0000
  C   C15       1.0  0.92893  0.62042  0.38524  1.0000
  C   C16       1.0  0.42893  0.37958  0.61476  1.0000
  C   C17       1.0  0.21853  0.30454  0.09151  1.0000
  C   C18       1.0  0.71853  0.69546  0.90849  1.0000
  C   C19       1.0  0.71853  0.80454  0.40849  1.0000
  C   C20       1.0  0.21853  0.19546  0.59151  1.0000
  C   C21       1.0  0.30080  0.24094  0.22702  1.0000
  C   C22       1.0  0.80081  0.75906  0.77298  1.0000
  C   C23       1.0  0.80081  0.74094  0.27298  1.0000
  C   C24       1.0  0.30081  0.25906  0.72702  1.0000
  S   S1        1.0  0.84615  0.18884  0.40413  1.0000
  S   S2        1.0  0.34615  0.81116  0.59587  1.0000
  S   S3        1.0  0.34615  0.68884  0.09587  1.0000
  S   S4        1.0  0.84616  0.31116  0.90413  1.0000
  N   N1        1.0  0.36334  0.11032  0.19892  1.0000
  N   N2        1.0  0.86335  0.88968  0.80108  1.0000
  N   N3        1.0  0.86335  0.61032  0.30108  1.0000
  N   N4        1.0  0.36335  0.38968  0.69892  1.0000
  N   N5        1.0  0.28159  0.17499  0.06043  1.0000
  N   N6        1.0  0.78159  0.82501  0.93957  1.0000
  N   N7        1.0  0.78160  0.67499  0.43957  1.0000
  N   N8        1.0  0.28159  0.32501  0.56043  1.0000
  N   N9        1.0  0.15138  0.30030  0.17563  1.0000
  N   N10       1.0  0.65139  0.69970  0.82437  1.0000
  N   N11       1.0  0.65139  0.80030  0.32437  1.0000
  N   N12       1.0  0.15139  0.19970  0.67563  1.0000
  O   O1        1.0  0.82876  0.97115  0.14975  1.0000
  O   O2        1.0  0.32876  0.02885  0.85025  1.0000
  O   O3        1.0  0.32876  0.47115  0.35025  1.0000
  O   O4        1.0  0.82876  0.52885  0.64975  1.0000
  O   O5        1.0  0.29792  0.46643  0.90876  1.0000
  O   O6        1.0  0.79792  0.53357  0.09124  1.0000
  O   O7        1.0  0.79792  0.96642  0.59124  1.0000
  O   O8        1.0  0.29791  0.03358  0.40876  1.0000
  O   O9        1.0  0.66311  0.21488  0.35764  1.0000
  O   O10       1.0  0.16311  0.78512  0.64236  1.0000
  O   O11       1.0  0.16311  0.71488  0.14236  1.0000
  O   O12       1.0  0.66311  0.28512  0.85764  1.0000
  O   O13       1.0  0.92866  0.06325  0.37209  1.0000
  O   O14       1.0  0.42866  0.93675  0.62791  1.0000
  O   O15       1.0  0.42866  0.56325  0.12791  1.0000
  O   O16       1.0  0.92866  0.43675  0.87209  1.0000
  O   O17       1.0  0.80024  0.17654  0.49115  1.0000
  O   O18       1.0  0.30024  0.82346  0.50885  1.0000
  O   O19       1.0  0.30024  0.67654  0.00885  1.0000
  O   O20       1.0  0.80024  0.32346  0.99115  1.0000
  O   O21       1.0  0.98110  0.29851  0.38970  1.0000
  O   O22       1.0  0.48110  0.70149  0.61030  1.0000
  O   O23       1.0  0.48110  0.79851  0.11030  1.0000
  O   O24       1.0  0.98110  0.20149  0.88970  1.0000
