data_image0
_chemical_formula_structural       Cd6H12C12N18Cl6
_chemical_formula_sum              "Cd6 H12 C12 N18 Cl6"
_cell_length_a       11.1338
_cell_length_b       11.6021
_cell_length_c       11.6021
_cell_angle_alpha    120
_cell_angle_beta     90
_cell_angle_gamma    90

_space_group_name_H-M_alt    "P 1"
_space_group_IT_number       1

loop_
  _space_group_symop_operation_xyz
  'x, y, z'

loop_
  _atom_site_type_symbol
  _atom_site_label
  _atom_site_symmetry_multiplicity
  _atom_site_fract_x
  _atom_site_fract_y
  _atom_site_fract_z
  _atom_site_occupancy
  Cd  Cd1       1.0  0.75001  0.61402  0.22805  1.0000
  Cd  Cd2       1.0  0.41667  0.77195  0.38597  1.0000
  Cd  Cd3       1.0  0.08334  0.61402  0.38597  1.0000
  Cd  Cd4       1.0  0.25001  0.38598  0.77195  1.0000
  Cd  Cd5       1.0  0.91667  0.22805  0.61403  1.0000
  Cd  Cd6       1.0  0.58334  0.38598  0.61403  1.0000
  H   H1        1.0  0.76496  0.95224  0.36839  1.0000
  H   H2        1.0  0.43162  0.63161  0.58385  1.0000
  H   H3        1.0  0.09829  0.41615  0.04776  1.0000
  H   H4        1.0  0.26496  0.04776  0.63161  1.0000
  H   H5        1.0  0.93162  0.36839  0.41615  1.0000
  H   H6        1.0  0.59829  0.58384  0.95224  1.0000
  H   H7        1.0  0.90172  0.36839  0.95224  1.0000
  H   H8        1.0  0.23505  0.58385  0.63161  1.0000
  H   H9        1.0  0.56839  0.04776  0.41615  1.0000
  H   H10       1.0  0.40172  0.63161  0.04776  1.0000
  H   H11       1.0  0.73505  0.41615  0.36839  1.0000
  H   H12       1.0  0.06839  0.95224  0.58385  1.0000
  C   C1        1.0  0.83953  0.92041  0.40590  1.0000
  C   C2        1.0  0.50619  0.59410  0.51450  1.0000
  C   C3        1.0  0.17286  0.48550  0.07960  1.0000
  C   C4        1.0  0.33953  0.07960  0.59410  1.0000
  C   C5        1.0  0.00619  0.40590  0.48550  1.0000
  C   C6        1.0  0.67286  0.51450  0.92040  1.0000
  C   C7        1.0  0.82716  0.40589  0.92040  1.0000
  C   C8        1.0  0.16049  0.51451  0.59410  1.0000
  C   C9        1.0  0.49383  0.07960  0.48549  1.0000
  C   C10       1.0  0.32716  0.59411  0.07960  1.0000
  C   C11       1.0  0.66049  0.48549  0.40590  1.0000
  C   C12       1.0  0.99383  0.92040  0.51451  1.0000
  N   N1        1.0  0.91668  0.00350  0.50175  1.0000
  N   N2        1.0  0.58334  0.49825  0.50175  1.0000
  N   N3        1.0  0.25001  0.49825  0.99650  1.0000
  N   N4        1.0  0.41668  0.99650  0.49825  1.0000
  N   N5        1.0  0.08334  0.50174  0.49825  1.0000
  N   N6        1.0  0.75000  0.50175  0.00350  1.0000
  N   N7        1.0  0.86689  0.79337  0.36178  1.0000
  N   N8        1.0  0.53355  0.63823  0.43160  1.0000
  N   N9        1.0  0.20022  0.56840  0.20662  1.0000
  N   N10       1.0  0.36689  0.20662  0.63822  1.0000
  N   N11       1.0  0.03355  0.36177  0.56840  1.0000
  N   N12       1.0  0.70022  0.43160  0.79338  1.0000
  N   N13       1.0  0.79979  0.36177  0.79338  1.0000
  N   N14       1.0  0.13312  0.43161  0.63823  1.0000
  N   N15       1.0  0.46646  0.20662  0.56839  1.0000
  N   N16       1.0  0.29979  0.63823  0.20662  1.0000
  N   N17       1.0  0.63312  0.56839  0.36177  1.0000
  N   N18       1.0  0.96646  0.79338  0.43161  1.0000
  Cl  Cl1       1.0  0.91668  0.44829  0.22415  1.0000
  Cl  Cl2       1.0  0.58334  0.77585  0.22415  1.0000
  Cl  Cl3       1.0  0.25001  0.77585  0.55170  1.0000
  Cl  Cl4       1.0  0.41668  0.55170  0.77585  1.0000
  Cl  Cl5       1.0  0.08334  0.22415  0.77585  1.0000
  Cl  Cl6       1.0  0.75001  0.22415  0.44830  1.0000
