data_image0
_chemical_formula_structural       Mg2H14C14N2O12
_chemical_formula_sum              "Mg2 H14 C14 N2 O12"
_cell_length_a       7.21882
_cell_length_b       7.8542
_cell_length_c       7.85426
_cell_angle_alpha    99.8328
_cell_angle_beta     100.845
_cell_angle_gamma    100.844

_space_group_name_H-M_alt    "P 1"
_space_group_IT_number       1

loop_
  _space_group_symop_operation_xyz
  'x, y, z'

loop_
  _atom_site_type_symbol
  _atom_site_label
  _atom_site_symmetry_multiplicity
  _atom_site_fract_x
  _atom_site_fract_y
  _atom_site_fract_z
  _atom_site_occupancy
  Mg  Mg1       1.0  0.75000  0.34676  0.65323  1.0000
  Mg  Mg2       1.0  0.25000  0.65324  0.34677  1.0000
  H   H1        1.0  0.39639  0.15717  0.60965  1.0000
  H   H2        1.0  0.10361  0.39035  0.84283  1.0000
  H   H3        1.0  0.60361  0.84283  0.39035  1.0000
  H   H4        1.0  0.89639  0.60965  0.15717  1.0000
  H   H5        1.0  0.37853  0.31920  0.51452  1.0000
  H   H6        1.0  0.12147  0.48548  0.68080  1.0000
  H   H7        1.0  0.62147  0.68080  0.48548  1.0000
  H   H8        1.0  0.87853  0.51452  0.31920  1.0000
  H   H9        1.0  0.75000  0.83266  0.16734  1.0000
  H   H10       1.0  0.25000  0.16734  0.83266  1.0000
  H   H11       1.0  0.78763  0.95306  0.65779  1.0000
  H   H12       1.0  0.71237  0.34220  0.04693  1.0000
  H   H13       1.0  0.21237  0.04694  0.34220  1.0000
  H   H14       1.0  0.28763  0.65780  0.95306  1.0000
  C   C1        1.0  0.75000  0.92335  0.07664  1.0000
  C   C2        1.0  0.25000  0.07665  0.92336  1.0000
  C   C3        1.0  0.76081  0.86577  0.90114  1.0000
  C   C4        1.0  0.73920  0.09885  0.13422  1.0000
  C   C5        1.0  0.23919  0.13422  0.09886  1.0000
  C   C6        1.0  0.26081  0.90115  0.86578  1.0000
  C   C7        1.0  0.76708  0.98876  0.79169  1.0000
  C   C8        1.0  0.73292  0.20831  0.01124  1.0000
  C   C9        1.0  0.23292  0.01124  0.20830  1.0000
  C   C10       1.0  0.26708  0.79169  0.98876  1.0000
  C   C11       1.0  0.76576  0.67716  0.83192  1.0000
  C   C12       1.0  0.73425  0.16809  0.32283  1.0000
  C   C13       1.0  0.23424  0.32284  0.16808  1.0000
  C   C14       1.0  0.26575  0.83192  0.67717  1.0000
  N   N1        1.0  0.75000  0.15634  0.84365  1.0000
  N   N2        1.0  0.25000  0.84366  0.15635  1.0000
  O   O1        1.0  0.78905  0.57486  0.93871  1.0000
  O   O2        1.0  0.71095  0.06128  0.42514  1.0000
  O   O3        1.0  0.21095  0.42515  0.06129  1.0000
  O   O4        1.0  0.28905  0.93872  0.57486  1.0000
  O   O5        1.0  0.45750  0.28343  0.61506  1.0000
  O   O6        1.0  0.04251  0.38494  0.71657  1.0000
  O   O7        1.0  0.54251  0.71657  0.38494  1.0000
  O   O8        1.0  0.95749  0.61506  0.28343  1.0000
  O   O9        1.0  0.74471  0.62092  0.66482  1.0000
  O   O10       1.0  0.75529  0.33518  0.37907  1.0000
  O   O11       1.0  0.25528  0.37908  0.33519  1.0000
  O   O12       1.0  0.24471  0.66482  0.62093  1.0000
