data_image0
_chemical_formula_structural       Eu2H26C50O20F36
_chemical_formula_sum              "Eu2 H26 C50 O20 F36"
_cell_length_a       9.11785
_cell_length_b       10.8172
_cell_length_c       17.5516
_cell_angle_alpha    90
_cell_angle_beta     90
_cell_angle_gamma    105.96

_space_group_name_H-M_alt    "P 1"
_space_group_IT_number       1

loop_
  _space_group_symop_operation_xyz
  'x, y, z'

loop_
  _atom_site_type_symbol
  _atom_site_label
  _atom_site_symmetry_multiplicity
  _atom_site_fract_x
  _atom_site_fract_y
  _atom_site_fract_z
  _atom_site_occupancy
  Eu  Eu1       1.0  0.70654  0.31301  0.99641  1.0000
  Eu  Eu2       1.0  0.29346  0.68699  0.49641  1.0000
  H   H1        1.0  0.57408  0.97442  0.97544  1.0000
  H   H2        1.0  0.42592  0.02558  0.47544  1.0000
  H   H3        1.0  0.83370  0.81217  0.13288  1.0000
  H   H4        1.0  0.16630  0.18783  0.63288  1.0000
  H   H5        1.0  0.69748  0.59229  0.08755  1.0000
  H   H6        1.0  0.30252  0.40772  0.58755  1.0000
  H   H7        1.0  0.43915  0.75492  0.92946  1.0000
  H   H8        1.0  0.56085  0.24508  0.42946  1.0000
  H   H9        1.0  0.16984  0.41009  0.88568  1.0000
  H   H10       1.0  0.83016  0.58991  0.38568  1.0000
  H   H11       1.0  0.22713  0.33287  0.96679  1.0000
  H   H12       1.0  0.77288  0.66713  0.46679  1.0000
  H   H13       1.0  0.33834  0.35290  0.88100  1.0000
  H   H14       1.0  0.66166  0.64709  0.38100  1.0000
  H   H15       1.0  0.99750  0.15473  0.22793  1.0000
  H   H16       1.0  0.00250  0.84527  0.72793  1.0000
  H   H17       1.0  0.84643  0.21783  0.19411  1.0000
  H   H18       1.0  0.15357  0.78217  0.69411  1.0000
  H   H19       1.0  0.00941  0.22933  0.13513  1.0000
  H   H20       1.0  0.99059  0.77067  0.63513  1.0000
  H   H21       1.0  0.14045  0.70683  0.00286  1.0000
  H   H22       1.0  0.85955  0.29317  0.50286  1.0000
  H   H23       1.0  0.72108  0.07555  0.75894  1.0000
  H   H24       1.0  0.27891  0.92445  0.25894  1.0000
  H   H25       1.0  0.31453  0.16705  0.19698  1.0000
  H   H26       1.0  0.68547  0.83295  0.69698  1.0000
  C   C1        1.0  0.60239  0.89050  0.99858  1.0000
  C   C2        1.0  0.39761  0.10950  0.49858  1.0000
  C   C3        1.0  0.71259  0.90620  0.05623  1.0000
  C   C4        1.0  0.28741  0.09380  0.55623  1.0000
  C   C5        1.0  0.74882  0.79906  0.08782  1.0000
  C   C6        1.0  0.25118  0.20094  0.58782  1.0000
  C   C7        1.0  0.67336  0.67660  0.06224  1.0000
  C   C8        1.0  0.32664  0.32340  0.56224  1.0000
  C   C9        1.0  0.56122  0.66087  0.00552  1.0000
  C   C10       1.0  0.43878  0.33913  0.50552  1.0000
  C   C11       1.0  0.52596  0.76812  0.97356  1.0000
  C   C12       1.0  0.47404  0.23188  0.47356  1.0000
  C   C13       1.0  0.47991  0.52934  0.98087  1.0000
  C   C14       1.0  0.52009  0.47066  0.48087  1.0000
  C   C15       1.0  0.26647  0.39460  0.91719  1.0000
  C   C16       1.0  0.73353  0.60540  0.41719  1.0000
  C   C17       1.0  0.78375  0.03775  0.08445  1.0000
  C   C18       1.0  0.21625  0.96225  0.58446  1.0000
  C   C19       1.0  0.93429  0.17100  0.17812  1.0000
  C   C20       1.0  0.06571  0.82900  0.67812  1.0000
  C   C21       1.0  0.96083  0.70737  0.88049  1.0000
  C   C22       1.0  0.03917  0.29263  0.38049  1.0000
  C   C23       1.0  0.93941  0.60191  0.94207  1.0000
  C   C24       1.0  0.06059  0.39809  0.44207  1.0000
  C   C25       1.0  0.04720  0.61948  0.00093  1.0000
  C   C26       1.0  0.95280  0.38052  0.50093  1.0000
  C   C27       1.0  0.03757  0.52398  0.05614  1.0000
  C   C28       1.0  0.96243  0.47602  0.55614  1.0000
  C   C29       1.0  0.15855  0.54792  0.12034  1.0000
  C   C30       1.0  0.84145  0.45208  0.62034  1.0000
  C   C31       1.0  0.45329  0.13125  0.77157  1.0000
  C   C32       1.0  0.54671  0.86875  0.27157  1.0000
  C   C33       1.0  0.59228  0.17636  0.82505  1.0000
  C   C34       1.0  0.40772  0.82364  0.32505  1.0000
  C   C35       1.0  0.72123  0.13480  0.80878  1.0000
  C   C36       1.0  0.27877  0.86520  0.30878  1.0000
  C   C37       1.0  0.85390  0.17475  0.85297  1.0000
  C   C38       1.0  0.14610  0.82525  0.35298  1.0000
  C   C39       1.0  0.99421  0.13502  0.82380  1.0000
  C   C40       1.0  0.00579  0.86498  0.32380  1.0000
  C   C41       1.0  0.23331  0.02492  0.06969  1.0000
  C   C42       1.0  0.76669  0.97508  0.56969  1.0000
  C   C43       1.0  0.38228  0.13329  0.08278  1.0000
  C   C44       1.0  0.61772  0.86671  0.58278  1.0000
  C   C45       1.0  0.40163  0.19696  0.15341  1.0000
  C   C46       1.0  0.59837  0.80304  0.65341  1.0000
  C   C47       1.0  0.53247  0.29726  0.16941  1.0000
  C   C48       1.0  0.46753  0.70274  0.66941  1.0000
  C   C49       1.0  0.54915  0.35913  0.24947  1.0000
  C   C50       1.0  0.45085  0.64087  0.74947  1.0000
  O   O1        1.0  0.52350  0.43296  0.99539  1.0000
  O   O2        1.0  0.47650  0.56704  0.49539  1.0000
  O   O3        1.0  0.35227  0.52218  0.94255  1.0000
  O   O4        1.0  0.64773  0.47782  0.44255  1.0000
  O   O5        1.0  0.86332  0.04310  0.14812  1.0000
  O   O6        1.0  0.13668  0.95690  0.64812  1.0000
  O   O7        1.0  0.76807  0.13536  0.05225  1.0000
  O   O8        1.0  0.23193  0.86464  0.55225  1.0000
  O   O9        1.0  0.82145  0.50890  0.93298  1.0000
  O   O10       1.0  0.17855  0.49110  0.43298  1.0000
  O   O11       1.0  0.93972  0.41573  0.06029  1.0000
  O   O12       1.0  0.06028  0.58427  0.56029  1.0000
  O   O13       1.0  0.57317  0.24586  0.88003  1.0000
  O   O14       1.0  0.42683  0.75414  0.38003  1.0000
  O   O15       1.0  0.87523  0.24369  0.91224  1.0000
  O   O16       1.0  0.12477  0.75631  0.41224  1.0000
  O   O17       1.0  0.47049  0.15536  0.02612  1.0000
  O   O18       1.0  0.52951  0.84464  0.52612  1.0000
  O   O19       1.0  0.64536  0.34428  0.12646  1.0000
  O   O20       1.0  0.35464  0.65572  0.62646  1.0000
  F   F1        1.0  0.92802  0.65310  0.81051  1.0000
  F   F2        1.0  0.07198  0.34690  0.31051  1.0000
  F   F3        1.0  0.86396  0.78179  0.89316  1.0000
  F   F4        1.0  0.13604  0.21821  0.39316  1.0000
  F   F5        1.0  0.10500  0.78743  0.87803  1.0000
  F   F6        1.0  0.89500  0.21257  0.37803  1.0000
  F   F7        1.0  0.09019  0.53689  0.18972  1.0000
  F   F8        1.0  0.90981  0.46311  0.68972  1.0000
  F   F9        1.0  0.26175  0.66565  0.11701  1.0000
  F   F10       1.0  0.73825  0.33435  0.61701  1.0000
  F   F11       1.0  0.23881  0.45782  0.11697  1.0000
  F   F12       1.0  0.76119  0.54218  0.61697  1.0000
  F   F13       1.0  0.34155  0.03818  0.80652  1.0000
  F   F14       1.0  0.65845  0.96182  0.30652  1.0000
  F   F15       1.0  0.39457  0.22993  0.75378  1.0000
  F   F16       1.0  0.60543  0.77007  0.25378  1.0000
  F   F17       1.0  0.48717  0.08010  0.70477  1.0000
  F   F18       1.0  0.51283  0.91990  0.20477  1.0000
  F   F19       1.0  0.07371  0.22476  0.77286  1.0000
  F   F20       1.0  0.92629  0.77524  0.27286  1.0000
  F   F21       1.0  0.09011  0.12622  0.88088  1.0000
  F   F22       1.0  0.90989  0.87378  0.38088  1.0000
  F   F23       1.0  0.95385  0.01957  0.78706  1.0000
  F   F24       1.0  0.04615  0.98043  0.28706  1.0000
  F   F25       1.0  0.25680  0.93248  0.02290  1.0000
  F   F26       1.0  0.74320  0.06752  0.52290  1.0000
  F   F27       1.0  0.12661  0.07442  0.03584  1.0000
  F   F28       1.0  0.87339  0.92558  0.53584  1.0000
  F   F29       1.0  0.17031  0.96624  0.13538  1.0000
  F   F30       1.0  0.82969  0.03376  0.63538  1.0000
  F   F31       1.0  0.42275  0.31734  0.29387  1.0000
  F   F32       1.0  0.57725  0.68266  0.79387  1.0000
  F   F33       1.0  0.66775  0.33152  0.28725  1.0000
  F   F34       1.0  0.33225  0.66848  0.78725  1.0000
  F   F35       1.0  0.58129  0.48928  0.24445  1.0000
  F   F36       1.0  0.41871  0.51072  0.74445  1.0000
