data_image0
_chemical_formula_structural       Co2H20C28S4N16
_chemical_formula_sum              "Co2 H20 C28 S4 N16"
_cell_length_a       7.09561
_cell_length_b       8.84591
_cell_length_c       13.2616
_cell_angle_alpha    109.476
_cell_angle_beta     97.273
_cell_angle_gamma    89.9863

_space_group_name_H-M_alt    "P 1"
_space_group_IT_number       1

loop_
  _space_group_symop_operation_xyz
  'x, y, z'

loop_
  _atom_site_type_symbol
  _atom_site_label
  _atom_site_symmetry_multiplicity
  _atom_site_fract_x
  _atom_site_fract_y
  _atom_site_fract_z
  _atom_site_occupancy
  Co  Co1       1.0  0.74994  0.09572  0.00004  1.0000
  Co  Co2       1.0  0.25006  0.90427  0.99996  1.0000
  H   H1        1.0  0.69005  0.38362  0.24101  1.0000
  H   H2        1.0  0.80963  0.14286  0.75894  1.0000
  H   H3        1.0  0.30995  0.61639  0.75900  1.0000
  H   H4        1.0  0.19037  0.85714  0.24106  1.0000
  H   H5        1.0  0.56709  0.76408  0.52352  1.0000
  H   H6        1.0  0.93298  0.24085  0.47647  1.0000
  H   H7        1.0  0.43291  0.23592  0.47648  1.0000
  H   H8        1.0  0.06702  0.75915  0.52353  1.0000
  H   H9        1.0  0.73777  0.58270  0.14986  1.0000
  H   H10       1.0  0.76197  0.43309  0.85009  1.0000
  H   H11       1.0  0.26223  0.41730  0.85014  1.0000
  H   H12       1.0  0.23803  0.56691  0.14991  1.0000
  H   H13       1.0  0.60792  0.96410  0.43004  1.0000
  H   H14       1.0  0.89214  0.53436  0.56996  1.0000
  H   H15       1.0  0.39208  0.03591  0.56996  1.0000
  H   H16       1.0  0.10786  0.46564  0.43003  1.0000
  H   H17       1.0  0.60268  0.47426  0.42643  1.0000
  H   H18       1.0  0.89736  0.04814  0.57360  1.0000
  H   H19       1.0  0.39732  0.52574  0.57357  1.0000
  H   H20       1.0  0.10264  0.95186  0.42640  1.0000
  C   C1        1.0  0.66885  0.51026  0.28188  1.0000
  C   C2        1.0  0.83084  0.22863  0.71806  1.0000
  C   C3        1.0  0.33115  0.48974  0.71812  1.0000
  C   C4        1.0  0.16916  0.77137  0.28194  1.0000
  C   C5        1.0  0.60105  0.72477  0.44114  1.0000
  C   C6        1.0  0.89883  0.28392  0.55883  1.0000
  C   C7        1.0  0.39895  0.27524  0.55886  1.0000
  C   C8        1.0  0.10117  0.71608  0.44116  1.0000
  C   C9        1.0  0.67087  0.78285  0.28506  1.0000
  C   C10       1.0  0.82893  0.49804  0.71489  1.0000
  C   C11       1.0  0.32913  0.21715  0.71494  1.0000
  C   C12       1.0  0.17107  0.50196  0.28511  1.0000
  C   C13       1.0  0.69444  0.62074  0.23015  1.0000
  C   C14       1.0  0.80521  0.39084  0.76978  1.0000
  C   C15       1.0  0.30556  0.37926  0.76985  1.0000
  C   C16       1.0  0.19479  0.60916  0.23021  1.0000
  C   C17       1.0  0.62411  0.83647  0.38994  1.0000
  C   C18       1.0  0.87576  0.44679  0.61002  1.0000
  C   C19       1.0  0.37589  0.16354  0.61006  1.0000
  C   C20       1.0  0.12424  0.55321  0.38998  1.0000
  C   C21       1.0  0.64616  0.89566  0.13261  1.0000
  C   C22       1.0  0.85397  0.76326  0.86737  1.0000
  C   C23       1.0  0.35384  0.10434  0.86739  1.0000
  C   C24       1.0  0.14603  0.23674  0.13263  1.0000
  C   C25       1.0  0.62249  0.56200  0.38699  1.0000
  C   C26       1.0  0.87739  0.17530  0.61299  1.0000
  C   C27       1.0  0.37751  0.43800  0.61301  1.0000
  C   C28       1.0  0.12261  0.82470  0.38701  1.0000
  S   S1        1.0  0.49229  0.75676  0.03639  1.0000
  S   S2        1.0  0.00790  0.72037  0.96352  1.0000
  S   S3        1.0  0.50772  0.24324  0.96361  1.0000
  S   S4        1.0  0.99210  0.27962  0.03648  1.0000
  N   N1        1.0  0.73011  0.02897  0.12617  1.0000
  N   N2        1.0  0.76999  0.90306  0.87385  1.0000
  N   N3        1.0  0.26989  0.97102  0.87383  1.0000
  N   N4        1.0  0.23001  0.09694  0.12615  1.0000
  N   N5        1.0  0.70460  0.89781  0.23521  1.0000
  N   N6        1.0  0.79538  0.66287  0.76478  1.0000
  N   N7        1.0  0.29540  0.10219  0.76479  1.0000
  N   N8        1.0  0.20462  0.33712  0.23521  1.0000
  N   N9        1.0  0.81588  0.03297  0.29024  1.0000
  N   N10       1.0  0.68401  0.74306  0.70981  1.0000
  N   N11       1.0  0.18412  0.96704  0.70976  1.0000
  N   N12       1.0  0.31599  0.25694  0.29019  1.0000
  N   N13       1.0  0.82899  0.11050  0.22425  1.0000
  N   N14       1.0  0.67096  0.88657  0.77580  1.0000
  N   N15       1.0  0.17102  0.88950  0.77575  1.0000
  N   N16       1.0  0.32904  0.11343  0.22420  1.0000
