data_image0
_chemical_formula_structural       Cd2H20C28S4N16
_chemical_formula_sum              "Cd2 H20 C28 S4 N16"
_cell_length_a       7.27023
_cell_length_b       9.04116
_cell_length_c       13.1662
_cell_angle_alpha    110.075
_cell_angle_beta     101.92
_cell_angle_gamma    89.9974

_space_group_name_H-M_alt    "P 1"
_space_group_IT_number       1

loop_
  _space_group_symop_operation_xyz
  'x, y, z'

loop_
  _atom_site_type_symbol
  _atom_site_label
  _atom_site_symmetry_multiplicity
  _atom_site_fract_x
  _atom_site_fract_y
  _atom_site_fract_z
  _atom_site_occupancy
  Cd  Cd1       1.0  0.74996  0.60474  0.99994  1.0000
  Cd  Cd2       1.0  0.25004  0.39526  0.00006  1.0000
  H   H1        1.0  0.18735  0.92039  0.85204  1.0000
  H   H2        1.0  0.31253  0.06894  0.14778  1.0000
  H   H3        1.0  0.81265  0.07961  0.14797  1.0000
  H   H4        1.0  0.68747  0.93106  0.85221  1.0000
  H   H5        1.0  0.10904  0.13115  0.77142  1.0000
  H   H6        1.0  0.39128  0.36024  0.22853  1.0000
  H   H7        1.0  0.89096  0.86885  0.22858  1.0000
  H   H8        1.0  0.60872  0.63976  0.77147  1.0000
  H   H9        1.0  0.91191  0.06485  0.58294  1.0000
  H   H10       1.0  0.58828  0.48212  0.41707  1.0000
  H   H11       1.0  0.08809  0.93515  0.41707  1.0000
  H   H12       1.0  0.41172  0.51788  0.58293  1.0000
  H   H13       1.0  0.79555  0.78397  0.46966  1.0000
  H   H14       1.0  0.70390  0.31427  0.53036  1.0000
  H   H15       1.0  0.20444  0.21603  0.53035  1.0000
  H   H16       1.0  0.29609  0.68573  0.46964  1.0000
  H   H17       1.0  0.87095  0.57377  0.55016  1.0000
  H   H18       1.0  0.62825  0.02366  0.44968  1.0000
  H   H19       1.0  0.12905  0.42623  0.44984  1.0000
  H   H20       1.0  0.37174  0.97634  0.55031  1.0000
  C   C1        1.0  0.07127  0.61450  0.85529  1.0000
  C   C2        1.0  0.42878  0.75945  0.14463  1.0000
  C   C3        1.0  0.92873  0.38550  0.14471  1.0000
  C   C4        1.0  0.57122  0.24055  0.85537  1.0000
  C   C5        1.0  0.02729  0.73696  0.70653  1.0000
  C   C6        1.0  0.47224  0.03074  0.29329  1.0000
  C   C7        1.0  0.97272  0.26304  0.29347  1.0000
  C   C8        1.0  0.52776  0.96926  0.70671  1.0000
  C   C9        1.0  0.09638  0.89243  0.77001  1.0000
  C   C10       1.0  0.40346  0.12287  0.22984  1.0000
  C   C11       1.0  0.90362  0.10757  0.23000  1.0000
  C   C12       1.0  0.59654  0.87713  0.77015  1.0000
  C   C13       1.0  0.05313  0.00961  0.72447  1.0000
  C   C14       1.0  0.44693  0.28554  0.27546  1.0000
  C   C15       1.0  0.94687  0.99039  0.27553  1.0000
  C   C16       1.0  0.55307  0.71446  0.72454  1.0000
  C   C17       1.0  0.94413  0.97163  0.61714  1.0000
  C   C18       1.0  0.55584  0.35472  0.38284  1.0000
  C   C19       1.0  0.05586  0.02837  0.38286  1.0000
  C   C20       1.0  0.44416  0.64528  0.61716  1.0000
  C   C21       1.0  0.87853  0.81507  0.55408  1.0000
  C   C22       1.0  0.62102  0.26109  0.44587  1.0000
  C   C23       1.0  0.12147  0.18493  0.44592  1.0000
  C   C24       1.0  0.37897  0.73892  0.55412  1.0000
  C   C25       1.0  0.91985  0.69646  0.59854  1.0000
  C   C26       1.0  0.57953  0.09807  0.40133  1.0000
  C   C27       1.0  0.08015  0.30354  0.40146  1.0000
  C   C28       1.0  0.42046  0.90193  0.59866  1.0000
  S   S1        1.0  0.99774  0.75807  0.95926  1.0000
  S   S2        1.0  0.50261  0.79906  0.04075  1.0000
  S   S3        1.0  0.00226  0.24193  0.04074  1.0000
  S   S4        1.0  0.49740  0.20093  0.95925  1.0000
  N   N1        1.0  0.07258  0.61610  0.75194  1.0000
  N   N2        1.0  0.42692  0.86449  0.24786  1.0000
  N   N3        1.0  0.92742  0.38390  0.24806  1.0000
  N   N4        1.0  0.57309  0.13551  0.75214  1.0000
  N   N5        1.0  0.13516  0.47809  0.69137  1.0000
  N   N6        1.0  0.36412  0.78710  0.30840  1.0000
  N   N7        1.0  0.86484  0.52191  0.30863  1.0000
  N   N8        1.0  0.63588  0.21289  0.69159  1.0000
  N   N9        1.0  0.17388  0.39562  0.75484  1.0000
  N   N10       1.0  0.32582  0.64110  0.24503  1.0000
  N   N11       1.0  0.82612  0.60439  0.24517  1.0000
  N   N12       1.0  0.67419  0.35890  0.75497  1.0000
  N   N13       1.0  0.13846  0.47548  0.85596  1.0000
  N   N14       1.0  0.36171  0.61975  0.14399  1.0000
  N   N15       1.0  0.86154  0.52452  0.14404  1.0000
  N   N16       1.0  0.63830  0.38024  0.85601  1.0000
