data_image0
_chemical_formula_structural       Ag4H8C16O8
_chemical_formula_sum              "Ag4 H8 C16 O8"
_cell_length_a       6.12878
_cell_length_b       7.49834
_cell_length_c       8.93805
_cell_angle_alpha    90.0009
_cell_angle_beta     89.9993
_cell_angle_gamma    111.215

_space_group_name_H-M_alt    "P 1"
_space_group_IT_number       1

loop_
  _space_group_symop_operation_xyz
  'x, y, z'

loop_
  _atom_site_type_symbol
  _atom_site_label
  _atom_site_symmetry_multiplicity
  _atom_site_fract_x
  _atom_site_fract_y
  _atom_site_fract_z
  _atom_site_occupancy
  Ag  Ag1       1.0  0.11017  0.08623  0.63166  1.0000
  Ag  Ag2       1.0  0.38982  0.91377  0.13166  1.0000
  Ag  Ag3       1.0  0.88982  0.91378  0.36835  1.0000
  Ag  Ag4       1.0  0.61017  0.08623  0.86834  1.0000
  H   H1        1.0  0.18025  0.46269  0.31773  1.0000
  H   H2        1.0  0.31975  0.53733  0.81771  1.0000
  H   H3        1.0  0.81975  0.53731  0.68228  1.0000
  H   H4        1.0  0.68027  0.46269  0.18229  1.0000
  H   H5        1.0  0.63275  0.78047  0.67056  1.0000
  H   H6        1.0  0.86727  0.21953  0.17055  1.0000
  H   H7        1.0  0.36724  0.21952  0.32944  1.0000
  H   H8        1.0  0.13273  0.78048  0.82945  1.0000
  C   C1        1.0  0.27449  0.77984  0.48739  1.0000
  C   C2        1.0  0.22552  0.22016  0.98738  1.0000
  C   C3        1.0  0.72552  0.22015  0.51261  1.0000
  C   C4        1.0  0.77448  0.77985  0.01262  1.0000
  C   C5        1.0  0.39565  0.63868  0.49128  1.0000
  C   C6        1.0  0.10436  0.36133  0.99128  1.0000
  C   C7        1.0  0.60435  0.36131  0.50872  1.0000
  C   C8        1.0  0.89565  0.63869  0.00872  1.0000
  C   C9        1.0  0.32053  0.47852  0.39717  1.0000
  C   C10       1.0  0.17947  0.52148  0.89717  1.0000
  C   C11       1.0  0.67947  0.52147  0.60283  1.0000
  C   C12       1.0  0.82052  0.47852  0.10283  1.0000
  C   C13       1.0  0.57707  0.65960  0.59391  1.0000
  C   C14       1.0  0.92294  0.34039  0.09390  1.0000
  C   C15       1.0  0.42293  0.34038  0.40609  1.0000
  C   C16       1.0  0.07706  0.65961  0.90609  1.0000
  O   O1        1.0  0.28828  0.87998  0.60426  1.0000
  O   O2        1.0  0.21172  0.12002  0.10425  1.0000
  O   O3        1.0  0.71171  0.12001  0.39574  1.0000
  O   O4        1.0  0.78827  0.87998  0.89575  1.0000
  O   O5        1.0  0.16021  0.78464  0.36804  1.0000
  O   O6        1.0  0.33979  0.21537  0.86802  1.0000
  O   O7        1.0  0.83978  0.21536  0.63196  1.0000
  O   O8        1.0  0.66021  0.78464  0.13197  1.0000
