data_image0
_chemical_formula_structural       Cd4H16C20N16O16
_chemical_formula_sum              "Cd4 H16 C20 N16 O16"
_cell_length_a       7.86293
_cell_length_b       7.95254
_cell_length_c       13.565
_cell_angle_alpha    89.9877
_cell_angle_beta     90.0179
_cell_angle_gamma    113.264

_space_group_name_H-M_alt    "P 1"
_space_group_IT_number       1

loop_
  _space_group_symop_operation_xyz
  'x, y, z'

loop_
  _atom_site_type_symbol
  _atom_site_label
  _atom_site_symmetry_multiplicity
  _atom_site_fract_x
  _atom_site_fract_y
  _atom_site_fract_z
  _atom_site_occupancy
  Cd  Cd1       1.0  0.30354  0.52901  0.27348  1.0000
  Cd  Cd2       1.0  0.69646  0.47099  0.72652  1.0000
  Cd  Cd3       1.0  0.30368  0.02900  0.22668  1.0000
  Cd  Cd4       1.0  0.69632  0.97100  0.77331  1.0000
  H   H1        1.0  0.26859  0.08230  0.64780  1.0000
  H   H2        1.0  0.73141  0.91770  0.35221  1.0000
  H   H3        1.0  0.28709  0.88103  0.69501  1.0000
  H   H4        1.0  0.71291  0.11897  0.30499  1.0000
  H   H5        1.0  0.73184  0.41772  0.14759  1.0000
  H   H6        1.0  0.26816  0.58228  0.85241  1.0000
  H   H7        1.0  0.71282  0.61874  0.19475  1.0000
  H   H8        1.0  0.28718  0.38126  0.80525  1.0000
  H   H9        1.0  0.77588  0.04523  0.00870  1.0000
  H   H10       1.0  0.22413  0.95477  0.99130  1.0000
  H   H11       1.0  0.87950  0.97781  0.11090  1.0000
  H   H12       1.0  0.12050  0.02219  0.88910  1.0000
  H   H13       1.0  0.22357  0.45458  0.50887  1.0000
  H   H14       1.0  0.77643  0.54542  0.49113  1.0000
  H   H15       1.0  0.12032  0.52221  0.61111  1.0000
  H   H16       1.0  0.87967  0.47778  0.38889  1.0000
  C   C1        1.0  0.21350  0.93269  0.64193  1.0000
  C   C2        1.0  0.78650  0.06731  0.35807  1.0000
  C   C3        1.0  0.24649  0.88371  0.54096  1.0000
  C   C4        1.0  0.75352  0.11629  0.45904  1.0000
  C   C5        1.0  0.99132  0.64996  0.17185  1.0000
  C   C6        1.0  0.00868  0.35004  0.82815  1.0000
  C   C7        1.0  0.78672  0.56734  0.14177  1.0000
  C   C8        1.0  0.21327  0.43266  0.85823  1.0000
  C   C9        1.0  0.75393  0.61641  0.04076  1.0000
  C   C10       1.0  0.24607  0.38359  0.95924  1.0000
  C   C11       1.0  0.75623  0.93792  0.06329  1.0000
  C   C12       1.0  0.24377  0.06208  0.93671  1.0000
  C   C13       1.0  0.24349  0.56192  0.56347  1.0000
  C   C14       1.0  0.75651  0.43808  0.43653  1.0000
  C   C15       1.0  0.40804  0.58626  0.63146  1.0000
  C   C16       1.0  0.59196  0.41374  0.36854  1.0000
  C   C17       1.0  0.59176  0.91335  0.13134  1.0000
  C   C18       1.0  0.40824  0.08666  0.86866  1.0000
  C   C19       1.0  0.00882  0.85035  0.67180  1.0000
  C   C20       1.0  0.99118  0.14965  0.32820  1.0000
  N   N1        1.0  0.26339  0.99001  0.46242  1.0000
  N   N2        1.0  0.73661  0.00998  0.53758  1.0000
  N   N3        1.0  0.28575  0.89550  0.38513  1.0000
  N   N4        1.0  0.71425  0.10450  0.61487  1.0000
  N   N5        1.0  0.28464  0.73758  0.41151  1.0000
  N   N6        1.0  0.71537  0.26242  0.58849  1.0000
  N   N7        1.0  0.25961  0.72679  0.50989  1.0000
  N   N8        1.0  0.74039  0.27321  0.49011  1.0000
  N   N9        1.0  0.73761  0.51038  0.96219  1.0000
  N   N10       1.0  0.26238  0.48963  0.03781  1.0000
  N   N11       1.0  0.74041  0.77317  0.00970  1.0000
  N   N12       1.0  0.25960  0.22683  0.99030  1.0000
  N   N13       1.0  0.71514  0.60487  0.88489  1.0000
  N   N14       1.0  0.28486  0.39513  0.11511  1.0000
  N   N15       1.0  0.71565  0.76253  0.91129  1.0000
  N   N16       1.0  0.28435  0.23747  0.08871  1.0000
  O   O1        1.0  0.03540  0.56256  0.23831  1.0000
  O   O2        1.0  0.96460  0.43744  0.76169  1.0000
  O   O3        1.0  0.09504  0.79979  0.13220  1.0000
  O   O4        1.0  0.90496  0.20021  0.86780  1.0000
  O   O5        1.0  0.47917  0.73214  0.67994  1.0000
  O   O6        1.0  0.52083  0.26786  0.32007  1.0000
  O   O7        1.0  0.44789  0.44614  0.63677  1.0000
  O   O8        1.0  0.55210  0.55386  0.36323  1.0000
  O   O9        1.0  0.96470  0.93797  0.73806  1.0000
  O   O10       1.0  0.03530  0.06203  0.26194  1.0000
  O   O11       1.0  0.55203  0.05353  0.13687  1.0000
  O   O12       1.0  0.44798  0.94649  0.86313  1.0000
  O   O13       1.0  0.52062  0.76723  0.17963  1.0000
  O   O14       1.0  0.47935  0.23277  0.82035  1.0000
  O   O15       1.0  0.90509  0.70044  0.63219  1.0000
  O   O16       1.0  0.09491  0.29956  0.36782  1.0000
