data_image0
_chemical_formula_structural       Ag8H4C20O16
_chemical_formula_sum              "Ag8 H4 C20 O16"
_cell_length_a       6.27682
_cell_length_b       8.40573
_cell_length_c       10.8942
_cell_angle_alpha    89.6717
_cell_angle_beta     90.0004
_cell_angle_gamma    89.9985

_space_group_name_H-M_alt    "P 1"
_space_group_IT_number       1

loop_
  _space_group_symop_operation_xyz
  'x, y, z'

loop_
  _atom_site_type_symbol
  _atom_site_label
  _atom_site_symmetry_multiplicity
  _atom_site_fract_x
  _atom_site_fract_y
  _atom_site_fract_z
  _atom_site_occupancy
  Ag  Ag1       1.0  0.54746  0.89962  0.29769  1.0000
  Ag  Ag2       1.0  0.04746  0.10037  0.20230  1.0000
  Ag  Ag3       1.0  0.45256  0.10035  0.70232  1.0000
  Ag  Ag4       1.0  0.95254  0.89966  0.79769  1.0000
  Ag  Ag5       1.0  0.83121  0.14925  0.55769  1.0000
  Ag  Ag6       1.0  0.33120  0.85074  0.94232  1.0000
  Ag  Ag7       1.0  0.16881  0.85073  0.44232  1.0000
  Ag  Ag8       1.0  0.66881  0.14928  0.05767  1.0000
  H   H1        1.0  0.80205  0.61141  0.37856  1.0000
  H   H2        1.0  0.30204  0.38857  0.12145  1.0000
  H   H3        1.0  0.19796  0.38857  0.62144  1.0000
  H   H4        1.0  0.69796  0.61144  0.87855  1.0000
  C   C1        1.0  0.58404  0.64922  0.52947  1.0000
  C   C2        1.0  0.08403  0.35077  0.97053  1.0000
  C   C3        1.0  0.41598  0.35078  0.47054  1.0000
  C   C4        1.0  0.91596  0.64920  0.02945  1.0000
  C   C5        1.0  0.66702  0.56405  0.43018  1.0000
  C   C6        1.0  0.16699  0.43594  0.06982  1.0000
  C   C7        1.0  0.33299  0.43591  0.56983  1.0000
  C   C8        1.0  0.83297  0.56409  0.93017  1.0000
  C   C9        1.0  0.41585  0.58448  0.59983  1.0000
  C   C10       1.0  0.91583  0.41554  0.90017  1.0000
  C   C11       1.0  0.58417  0.41548  0.40017  1.0000
  C   C12       1.0  0.08414  0.58452  0.09984  1.0000
  C   C13       1.0  0.67178  0.80820  0.56235  1.0000
  C   C14       1.0  0.17178  0.19179  0.93764  1.0000
  C   C15       1.0  0.32823  0.19177  0.43766  1.0000
  C   C16       1.0  0.82822  0.80822  0.06235  1.0000
  C   C17       1.0  0.31242  0.68019  0.69990  1.0000
  C   C18       1.0  0.81243  0.31983  0.80008  1.0000
  C   C19       1.0  0.68759  0.31979  0.30010  1.0000
  C   C20       1.0  0.18757  0.68020  0.19990  1.0000
  O   O1        1.0  0.75733  0.89572  0.47753  1.0000
  O   O2        1.0  0.25733  0.10428  0.02247  1.0000
  O   O3        1.0  0.24267  0.10425  0.52248  1.0000
  O   O4        1.0  0.74265  0.89576  0.97751  1.0000
  O   O5        1.0  0.65383  0.85216  0.67294  1.0000
  O   O6        1.0  0.15383  0.14786  0.82707  1.0000
  O   O7        1.0  0.34618  0.14781  0.32705  1.0000
  O   O8        1.0  0.84616  0.85219  0.17295  1.0000
  O   O9        1.0  0.35581  0.64863  0.81060  1.0000
  O   O10       1.0  0.85580  0.35138  0.68941  1.0000
  O   O11       1.0  0.64419  0.35137  0.18941  1.0000
  O   O12       1.0  0.14420  0.64863  0.31059  1.0000
  O   O13       1.0  0.18099  0.78658  0.66195  1.0000
  O   O14       1.0  0.68097  0.21343  0.83806  1.0000
  O   O15       1.0  0.81902  0.21341  0.33804  1.0000
  O   O16       1.0  0.31898  0.78658  0.16195  1.0000
