data_image0
_chemical_formula_structural       Cd2H28C32N24O8
_chemical_formula_sum              "Cd2 H28 C32 N24 O8"
_cell_length_a       4.93151
_cell_length_b       12.1527
_cell_length_c       16.6148
_cell_angle_alpha    89.9997
_cell_angle_beta     97.4229
_cell_angle_gamma    89.9997

_space_group_name_H-M_alt    "P 1"
_space_group_IT_number       1

loop_
  _space_group_symop_operation_xyz
  'x, y, z'

loop_
  _atom_site_type_symbol
  _atom_site_label
  _atom_site_symmetry_multiplicity
  _atom_site_fract_x
  _atom_site_fract_y
  _atom_site_fract_z
  _atom_site_occupancy
  Cd  Cd1       1.0  0.00000  1.00000  1.00000  1.0000
  Cd  Cd2       1.0  0.50000  0.50000  0.50000  1.0000
  H   H1        1.0  0.32099  0.74710  0.43816  1.0000
  H   H2        1.0  0.17901  0.24710  0.06184  1.0000
  H   H3        1.0  0.67901  0.25290  0.56184  1.0000
  H   H4        1.0  0.82099  0.75290  0.93816  1.0000
  H   H5        1.0  0.98994  0.13479  0.31337  1.0000
  H   H6        1.0  0.51007  0.63479  0.18664  1.0000
  H   H7        1.0  0.01006  0.86521  0.68663  1.0000
  H   H8        1.0  0.48994  0.36521  0.81337  1.0000
  H   H9        1.0  0.47110  0.89872  0.14317  1.0000
  H   H10       1.0  0.02890  0.39872  0.35683  1.0000
  H   H11       1.0  0.52891  0.10128  0.85683  1.0000
  H   H12       1.0  0.97110  0.60128  0.64317  1.0000
  H   H13       1.0  0.85529  0.12577  0.16224  1.0000
  H   H14       1.0  0.64471  0.62576  0.33776  1.0000
  H   H15       1.0  0.14471  0.87423  0.83776  1.0000
  H   H16       1.0  0.35529  0.37424  0.66224  1.0000
  H   H17       1.0  0.28036  0.93309  0.49814  1.0000
  H   H18       1.0  0.21964  0.43309  0.00186  1.0000
  H   H19       1.0  0.71964  0.06691  0.50186  1.0000
  H   H20       1.0  0.78036  0.56691  0.99814  1.0000
  H   H21       1.0  0.31015  0.82895  0.57381  1.0000
  H   H22       1.0  0.18985  0.32896  0.92619  1.0000
  H   H23       1.0  0.68985  0.17105  0.42619  1.0000
  H   H24       1.0  0.81016  0.67104  0.07381  1.0000
  H   H25       1.0  0.98458  0.89068  0.54128  1.0000
  H   H26       1.0  0.51542  0.39068  0.95872  1.0000
  H   H27       1.0  0.01542  0.10933  0.45872  1.0000
  H   H28       1.0  0.48458  0.60932  0.04128  1.0000
  C   C1        1.0  0.99150  0.67101  0.49140  1.0000
  C   C2        1.0  0.50852  0.17102  0.00860  1.0000
  C   C3        1.0  0.00850  0.32899  0.50860  1.0000
  C   C4        1.0  0.49148  0.82898  0.99140  1.0000
  C   C5        1.0  0.43198  0.95374  0.26602  1.0000
  C   C6        1.0  0.06802  0.45374  0.23398  1.0000
  C   C7        1.0  0.56801  0.04626  0.73398  1.0000
  C   C8        1.0  0.93198  0.54626  0.76602  1.0000
  C   C9        1.0  0.12602  0.77278  0.45743  1.0000
  C   C10       1.0  0.37398  0.27278  0.04257  1.0000
  C   C11       1.0  0.87397  0.22722  0.54257  1.0000
  C   C12       1.0  0.62602  0.72722  0.95743  1.0000
  C   C13       1.0  0.09818  0.08034  0.27614  1.0000
  C   C14       1.0  0.40183  0.58034  0.22386  1.0000
  C   C15       1.0  0.90183  0.91966  0.72386  1.0000
  C   C16       1.0  0.59818  0.41966  0.77614  1.0000
  C   C17       1.0  0.65799  0.88519  0.30310  1.0000
  C   C18       1.0  0.84201  0.38519  0.19691  1.0000
  C   C19       1.0  0.34201  0.11481  0.69690  1.0000
  C   C20       1.0  0.15799  0.61481  0.80309  1.0000
  C   C21       1.0  0.35895  0.94966  0.18152  1.0000
  C   C22       1.0  0.14105  0.44966  0.31848  1.0000
  C   C23       1.0  0.64106  0.05034  0.81848  1.0000
  C   C24       1.0  0.85895  0.55034  0.68152  1.0000
  C   C25       1.0  0.02169  0.07618  0.19231  1.0000
  C   C26       1.0  0.47831  0.57617  0.30770  1.0000
  C   C27       1.0  0.97831  0.92382  0.80769  1.0000
  C   C28       1.0  0.52170  0.42383  0.69230  1.0000
  C   C29       1.0  0.17688  0.86254  0.52169  1.0000
  C   C30       1.0  0.32311  0.36254  0.97831  1.0000
  C   C31       1.0  0.82311  0.13747  0.47831  1.0000
  C   C32       1.0  0.67689  0.63747  0.02169  1.0000
  N   N1        1.0  0.15354  0.01098  0.14496  1.0000
  N   N2        1.0  0.34646  0.51098  0.35504  1.0000
  N   N3        1.0  0.84646  0.98901  0.85504  1.0000
  N   N4        1.0  0.65354  0.48901  0.64496  1.0000
  N   N5        1.0  0.30208  0.01955  0.31377  1.0000
  N   N6        1.0  0.19792  0.51955  0.18623  1.0000
  N   N7        1.0  0.69792  0.98045  0.68623  1.0000
  N   N8        1.0  0.80209  0.48045  0.81377  1.0000
  N   N9        1.0  0.95901  0.81211  0.38405  1.0000
  N   N10       1.0  0.54099  0.31211  0.11595  1.0000
  N   N11       1.0  0.04099  0.18789  0.61595  1.0000
  N   N12       1.0  0.45901  0.68789  0.88405  1.0000
  N   N13       1.0  0.75438  0.88297  0.38253  1.0000
  N   N14       1.0  0.74562  0.38297  0.11747  1.0000
  N   N15       1.0  0.24561  0.11703  0.61747  1.0000
  N   N16       1.0  0.25438  0.61703  0.88253  1.0000
  N   N17       1.0  0.80088  0.81651  0.25897  1.0000
  N   N18       1.0  0.69912  0.31651  0.24103  1.0000
  N   N19       1.0  0.19913  0.18349  0.74103  1.0000
  N   N20       1.0  0.30088  0.68349  0.75897  1.0000
  N   N21       1.0  0.99084  0.77034  0.31100  1.0000
  N   N22       1.0  0.50916  0.27034  0.18900  1.0000
  N   N23       1.0  0.00916  0.22966  0.68900  1.0000
  N   N24       1.0  0.49085  0.72966  0.81100  1.0000
  O   O1        1.0  0.14916  0.60705  0.53546  1.0000
  O   O2        1.0  0.35083  0.10705  0.96454  1.0000
  O   O3        1.0  0.85084  0.39295  0.46454  1.0000
  O   O4        1.0  0.64917  0.89295  0.03546  1.0000
  O   O5        1.0  0.73406  0.66112  0.47582  1.0000
  O   O6        1.0  0.76593  0.16112  0.02418  1.0000
  O   O7        1.0  0.26593  0.33888  0.52418  1.0000
  O   O8        1.0  0.23407  0.83888  0.97582  1.0000
