data_image0
_chemical_formula_structural       Na4Zn6H48C40O48
_chemical_formula_sum              "Na4 Zn6 H48 C40 O48"
_cell_length_a       7.45843
_cell_length_b       10.3256
_cell_length_c       21.213
_cell_angle_alpha    88.7567
_cell_angle_beta     86.5558
_cell_angle_gamma    68.8285

_space_group_name_H-M_alt    "P 1"
_space_group_IT_number       1

loop_
  _space_group_symop_operation_xyz
  'x, y, z'

loop_
  _atom_site_type_symbol
  _atom_site_label
  _atom_site_symmetry_multiplicity
  _atom_site_fract_x
  _atom_site_fract_y
  _atom_site_fract_z
  _atom_site_occupancy
  Na  Na1       1.0  0.78364  0.75762  0.69274  1.0000
  Na  Na2       1.0  0.45873  0.75760  0.80728  1.0000
  Na  Na3       1.0  0.21636  0.24238  0.30726  1.0000
  Na  Na4       1.0  0.54127  0.24240  0.19272  1.0000
  Zn  Zn1       1.0  0.02537  0.94913  0.75000  1.0000
  Zn  Zn2       1.0  0.97463  0.05087  0.25000  1.0000
  Zn  Zn3       1.0  0.18235  0.50077  0.41950  1.0000
  Zn  Zn4       1.0  0.31700  0.50076  0.08045  1.0000
  Zn  Zn5       1.0  0.81765  0.49923  0.58050  1.0000
  Zn  Zn6       1.0  0.68300  0.49924  0.91955  1.0000
  H   H1        1.0  0.49500  0.51239  0.35740  1.0000
  H   H2        1.0  0.99284  0.51238  0.14254  1.0000
  H   H3        1.0  0.50500  0.48761  0.64260  1.0000
  H   H4        1.0  0.00716  0.48762  0.85747  1.0000
  H   H5        1.0  0.32062  0.66168  0.35077  1.0000
  H   H6        1.0  0.01789  0.66167  0.14922  1.0000
  H   H7        1.0  0.67938  0.33832  0.64923  1.0000
  H   H8        1.0  0.98210  0.33833  0.85078  1.0000
  H   H9        1.0  0.12062  0.15575  0.67793  1.0000
  H   H10       1.0  0.72365  0.15575  0.82208  1.0000
  H   H11       1.0  0.87938  0.84425  0.32207  1.0000
  H   H12       1.0  0.27635  0.84425  0.17792  1.0000
  H   H13       1.0  0.13161  0.15242  0.75594  1.0000
  H   H14       1.0  0.71589  0.15243  0.74407  1.0000
  H   H15       1.0  0.86839  0.84758  0.24406  1.0000
  H   H16       1.0  0.28411  0.84758  0.25593  1.0000
  H   H17       1.0  0.24899  0.70360  0.69392  1.0000
  H   H18       1.0  0.04737  0.70356  0.80614  1.0000
  H   H19       1.0  0.75101  0.29640  0.30608  1.0000
  H   H20       1.0  0.95263  0.29644  0.19386  1.0000
  H   H21       1.0  0.36052  0.80226  0.67937  1.0000
  H   H22       1.0  0.83720  0.80224  0.82067  1.0000
  H   H23       1.0  0.63948  0.19774  0.32062  1.0000
  H   H24       1.0  0.16280  0.19776  0.17933  1.0000
  H   H25       1.0  0.68534  0.99014  0.39455  1.0000
  H   H26       1.0  0.32456  0.99008  0.10540  1.0000
  H   H27       1.0  0.31466  0.00987  0.60545  1.0000
  H   H28       1.0  0.67544  0.00991  0.89460  1.0000
  H   H29       1.0  0.55361  0.24739  0.55981  1.0000
  H   H30       1.0  0.19891  0.24743  0.94018  1.0000
  H   H31       1.0  0.44639  0.75261  0.44019  1.0000
  H   H32       1.0  0.80109  0.75257  0.05982  1.0000
  H   H33       1.0  0.96348  0.82799  0.56617  1.0000
  H   H34       1.0  0.20848  0.82800  0.93378  1.0000
  H   H35       1.0  0.03652  0.17201  0.43383  1.0000
  H   H36       1.0  0.79151  0.17199  0.06622  1.0000
  H   H37       1.0  0.76831  0.55614  0.41930  1.0000
  H   H38       1.0  0.67565  0.55625  0.08061  1.0000
  H   H39       1.0  0.23168  0.44387  0.58070  1.0000
  H   H40       1.0  0.32435  0.44375  0.91939  1.0000
  H   H41       1.0  0.40835  0.00118  0.73280  1.0000
  H   H42       1.0  0.59039  0.00115  0.76716  1.0000
  H   H43       1.0  0.59164  0.99882  0.26720  1.0000
  H   H44       1.0  0.40960  0.99885  0.23284  1.0000
  H   H45       1.0  0.68994  0.51933  0.71815  1.0000
  H   H46       1.0  0.79087  0.51932  0.78189  1.0000
  H   H47       1.0  0.31006  0.48067  0.28185  1.0000
  H   H48       1.0  0.20913  0.48069  0.21811  1.0000
  C   C1        1.0  0.76146  0.03990  0.57049  1.0000
  C   C2        1.0  0.19855  0.03994  0.92948  1.0000
  C   C3        1.0  0.23854  0.96010  0.42951  1.0000
  C   C4        1.0  0.80145  0.96006  0.07051  1.0000
  C   C5        1.0  0.70919  0.00402  0.44360  1.0000
  C   C6        1.0  0.28685  0.00399  0.05635  1.0000
  C   C7        1.0  0.29081  0.99598  0.55640  1.0000
  C   C8        1.0  0.71316  0.99601  0.94365  1.0000
  C   C9        1.0  0.46784  0.24512  0.43730  1.0000
  C   C10       1.0  0.28714  0.24506  0.06269  1.0000
  C   C11       1.0  0.53216  0.75488  0.56270  1.0000
  C   C12       1.0  0.71287  0.75494  0.93731  1.0000
  C   C13       1.0  0.60803  0.13099  0.47323  1.0000
  C   C14       1.0  0.26103  0.13096  0.02674  1.0000
  C   C15       1.0  0.39197  0.86901  0.52677  1.0000
  C   C16       1.0  0.73897  0.86904  0.97326  1.0000
  C   C17       1.0  0.83723  0.89446  0.47686  1.0000
  C   C18       1.0  0.26835  0.89445  0.02308  1.0000
  C   C19       1.0  0.16277  0.10554  0.52314  1.0000
  C   C20       1.0  0.73165  0.10555  0.97692  1.0000
  C   C21       1.0  0.78941  0.05749  0.63861  1.0000
  C   C22       1.0  0.15292  0.05757  0.86138  1.0000
  C   C23       1.0  0.21059  0.94250  0.36139  1.0000
  C   C24       1.0  0.84708  0.94243  0.13862  1.0000
  C   C25       1.0  0.94467  0.75986  0.44396  1.0000
  C   C26       1.0  0.29550  0.75985  0.05598  1.0000
  C   C27       1.0  0.05533  0.24014  0.55604  1.0000
  C   C28       1.0  0.70450  0.24015  0.94402  1.0000
  C   C29       1.0  0.63434  0.14872  0.53678  1.0000
  C   C30       1.0  0.21693  0.14872  0.96320  1.0000
  C   C31       1.0  0.36566  0.85129  0.46322  1.0000
  C   C32       1.0  0.78308  0.85128  0.03680  1.0000
  C   C33       1.0  0.86305  0.91276  0.54030  1.0000
  C   C34       1.0  0.22416  0.91278  0.95965  1.0000
  C   C35       1.0  0.13695  0.08724  0.45970  1.0000
  C   C36       1.0  0.77584  0.08722  0.04035  1.0000
  C   C37       1.0  0.83203  0.47333  0.38357  1.0000
  C   C38       1.0  0.69479  0.47342  0.11634  1.0000
  C   C39       1.0  0.16797  0.52667  0.61643  1.0000
  C   C40       1.0  0.30521  0.52658  0.88366  1.0000
  O   O1        1.0  0.89493  0.94805  0.66711  1.0000
  O   O2        1.0  0.15673  0.94816  0.83289  1.0000
  O   O3        1.0  0.10507  0.05195  0.33289  1.0000
  O   O4        1.0  0.84327  0.05184  0.16711  1.0000
  O   O5        1.0  0.35001  0.55890  0.35392  1.0000
  O   O6        1.0  0.09130  0.55889  0.14606  1.0000
  O   O7        1.0  0.64999  0.44110  0.64608  1.0000
  O   O8        1.0  0.90870  0.44111  0.85394  1.0000
  O   O9        1.0  0.15872  0.09530  0.71638  1.0000
  O   O10       1.0  0.74593  0.09532  0.78363  1.0000
  O   O11       1.0  0.84128  0.90470  0.28362  1.0000
  O   O12       1.0  0.25407  0.90468  0.21637  1.0000
  O   O13       1.0  0.27512  0.78223  0.71309  1.0000
  O   O14       1.0  0.94266  0.78219  0.78696  1.0000
  O   O15       1.0  0.72488  0.21777  0.28691  1.0000
  O   O16       1.0  0.05734  0.21781  0.21304  1.0000
  O   O17       1.0  0.01541  0.42151  0.37543  1.0000
  O   O18       1.0  0.56317  0.42168  0.12455  1.0000
  O   O19       1.0  0.98459  0.57849  0.62457  1.0000
  O   O20       1.0  0.43683  0.57832  0.87545  1.0000
  O   O21       1.0  0.36548  0.35404  0.46923  1.0000
  O   O22       1.0  0.28060  0.35397  0.03077  1.0000
  O   O23       1.0  0.63452  0.64596  0.53077  1.0000
  O   O24       1.0  0.71940  0.64603  0.96923  1.0000
  O   O25       1.0  0.05012  0.65826  0.47767  1.0000
  O   O26       1.0  0.29177  0.65822  0.02227  1.0000
  O   O27       1.0  0.94988  0.34174  0.52233  1.0000
  O   O28       1.0  0.70823  0.34178  0.97773  1.0000
  O   O29       1.0  0.70853  0.17528  0.66516  1.0000
  O   O30       1.0  0.11606  0.17536  0.83483  1.0000
  O   O31       1.0  0.29147  0.82471  0.33484  1.0000
  O   O32       1.0  0.88394  0.82464  0.16517  1.0000
  O   O33       1.0  0.45318  0.23073  0.37891  1.0000
  O   O34       1.0  0.31617  0.23061  0.12107  1.0000
  O   O35       1.0  0.54682  0.76927  0.62109  1.0000
  O   O36       1.0  0.68383  0.76939  0.87893  1.0000
  O   O37       1.0  0.93198  0.74719  0.38541  1.0000
  O   O38       1.0  0.32069  0.74725  0.11454  1.0000
  O   O39       1.0  0.06802  0.25281  0.61459  1.0000
  O   O40       1.0  0.67931  0.25275  0.88546  1.0000
  O   O41       1.0  0.72028  0.43436  0.35312  1.0000
  O   O42       1.0  0.84567  0.43432  0.14671  1.0000
  O   O43       1.0  0.27972  0.56564  0.64688  1.0000
  O   O44       1.0  0.15433  0.56568  0.85329  1.0000
  O   O45       1.0  0.53033  0.93929  0.74996  1.0000
  O   O46       1.0  0.46967  0.06071  0.25004  1.0000
  O   O47       1.0  0.70997  0.58031  0.75001  1.0000
  O   O48       1.0  0.29003  0.41969  0.24999  1.0000
