data_image0
_chemical_formula_structural       NaZn3H13C19O17
_chemical_formula_sum              "Na1 Zn3 H13 C19 O17"
_cell_length_a       7.69815
_cell_length_b       9.40998
_cell_length_c       9.7861
_cell_angle_alpha    61.8696
_cell_angle_beta     70.9698
_cell_angle_gamma    79.706

_space_group_name_H-M_alt    "P 1"
_space_group_IT_number       1

loop_
  _space_group_symop_operation_xyz
  'x, y, z'

loop_
  _atom_site_type_symbol
  _atom_site_label
  _atom_site_symmetry_multiplicity
  _atom_site_fract_x
  _atom_site_fract_y
  _atom_site_fract_z
  _atom_site_occupancy
  Na  Na1       1.0  0.55230  0.95374  0.17449  1.0000
  Zn  Zn1       1.0  0.03978  0.45301  0.68167  1.0000
  Zn  Zn2       1.0  0.79141  0.26394  0.03336  1.0000
  Zn  Zn3       1.0  0.27256  0.66481  0.30309  1.0000
  H   H1        1.0  0.44680  0.28979  0.18540  1.0000
  H   H2        1.0  0.45975  0.29065  0.01645  1.0000
  H   H3        1.0  0.92931  0.56937  0.37779  1.0000
  H   H4        1.0  0.89183  0.74400  0.37358  1.0000
  H   H5        1.0  0.64032  0.61634  0.17213  1.0000
  H   H6        1.0  0.58994  0.58078  0.35774  1.0000
  H   H7        1.0  0.80101  0.84418  0.95925  1.0000
  H   H8        1.0  0.35034  0.18432  0.74574  1.0000
  H   H9        1.0  0.26338  0.09373  0.38011  1.0000
  H   H10       1.0  0.72753  0.72773  0.60734  1.0000
  H   H11       1.0  0.83937  0.21427  0.47609  1.0000
  H   H12       1.0  0.24505  0.70409  0.85078  1.0000
  H   H13       1.0  0.16660  0.23320  0.10030  1.0000
  C   C1        1.0  0.30384  0.15889  0.55143  1.0000
  C   C2        1.0  0.84040  0.16409  0.77526  1.0000
  C   C3        1.0  0.22187  0.77209  0.55348  1.0000
  C   C4        1.0  0.31343  0.88095  0.98293  1.0000
  C   C5        1.0  0.75695  0.59295  0.90830  1.0000
  C   C6        1.0  0.78957  0.88184  0.83887  1.0000
  C   C7        1.0  0.30461  0.33397  0.43977  1.0000
  C   C8        1.0  0.32149  0.10205  0.70692  1.0000
  C   C9        1.0  0.27702  0.04985  0.50090  1.0000
  C   C10       1.0  0.75381  0.81671  0.63880  1.0000
  C   C11       1.0  0.81393  0.09001  0.56698  1.0000
  C   C12       1.0  0.26515  0.83095  0.76580  1.0000
  C   C13       1.0  0.76185  0.76785  0.79554  1.0000
  C   C14       1.0  0.30033  0.93834  0.81474  1.0000
  C   C15       1.0  0.78499  0.97613  0.52301  1.0000
  C   C16       1.0  0.81192  0.04404  0.72557  1.0000
  C   C17       1.0  0.20285  0.29684  0.96668  1.0000
  C   C18       1.0  0.25848  0.88602  0.60720  1.0000
  C   C19       1.0  0.79217  0.02316  0.35245  1.0000
  O   O1        1.0  0.13988  0.64462  0.66294  1.0000
  O   O2        1.0  0.90551  0.30007  0.66328  1.0000
  O   O3        1.0  0.51037  0.23446  0.11523  1.0000
  O   O4        1.0  0.38064  0.96979  0.01488  1.0000
  O   O5        1.0  0.81509  0.17290  0.25532  1.0000
  O   O6        1.0  0.27445  0.43774  0.49991  1.0000
  O   O7        1.0  0.77924  0.49388  0.84568  1.0000
  O   O8        1.0  0.25211  0.73848  0.08588  1.0000
  O   O9        1.0  0.27454  0.81274  0.40146  1.0000
  O   O10       1.0  0.79820  0.12010  0.92639  1.0000
  O   O11       1.0  0.96716  0.63926  0.41051  1.0000
  O   O12       1.0  0.57445  0.66170  0.25360  1.0000
  O   O13       1.0  0.33057  0.38445  0.29134  1.0000
  O   O14       1.0  0.07348  0.30215  0.90700  1.0000
  O   O15       1.0  0.73771  0.54081  0.05684  1.0000
  O   O16       1.0  0.77586  0.91636  0.31263  1.0000
  O   O17       1.0  0.35718  0.35537  0.88614  1.0000
