data_image0
_chemical_formula_structural       Na4Zn6H24C40O36
_chemical_formula_sum              "Na4 Zn6 H24 C40 O36"
_cell_length_a       7.39182
_cell_length_b       10.4573
_cell_length_c       16.542
_cell_angle_alpha    86.8473
_cell_angle_beta     81.0478
_cell_angle_gamma    69.3029

_space_group_name_H-M_alt    "P 1"
_space_group_IT_number       1

loop_
  _space_group_symop_operation_xyz
  'x, y, z'

loop_
  _atom_site_type_symbol
  _atom_site_label
  _atom_site_symmetry_multiplicity
  _atom_site_fract_x
  _atom_site_fract_y
  _atom_site_fract_z
  _atom_site_occupancy
  Na  Na1       1.0  0.64007  0.72073  0.25006  1.0000
  Na  Na2       1.0  0.35993  0.27927  0.74994  1.0000
  Na  Na3       1.0  0.86988  0.26038  0.74998  1.0000
  Na  Na4       1.0  0.13012  0.73962  0.25002  1.0000
  Zn  Zn1       1.0  0.86906  0.98408  0.40152  1.0000
  Zn  Zn2       1.0  0.14681  0.98422  0.09853  1.0000
  Zn  Zn3       1.0  0.13094  0.01592  0.59848  1.0000
  Zn  Zn4       1.0  0.85319  0.01578  0.90147  1.0000
  Zn  Zn5       1.0  0.84796  0.30427  0.25001  1.0000
  Zn  Zn6       1.0  0.15204  0.69573  0.74999  1.0000
  H   H1        1.0  0.59814  0.15633  0.32560  1.0000
  H   H2        1.0  0.24589  0.15632  0.17436  1.0000
  H   H3        1.0  0.40186  0.84367  0.67440  1.0000
  H   H4        1.0  0.75411  0.84368  0.82564  1.0000
  H   H5        1.0  0.57134  0.00469  0.33120  1.0000
  H   H6        1.0  0.42426  0.00461  0.16877  1.0000
  H   H7        1.0  0.42865  0.99531  0.66880  1.0000
  H   H8        1.0  0.57574  0.99540  0.83123  1.0000
  H   H9        1.0  0.91639  0.48546  0.36397  1.0000
  H   H10       1.0  0.59791  0.48542  0.13620  1.0000
  H   H11       1.0  0.08361  0.51454  0.63603  1.0000
  H   H12       1.0  0.40209  0.51458  0.86380  1.0000
  H   H13       1.0  0.63670  0.73389  0.57673  1.0000
  H   H14       1.0  0.62969  0.73415  0.92362  1.0000
  H   H15       1.0  0.36330  0.26611  0.42327  1.0000
  H   H16       1.0  0.37032  0.26585  0.07638  1.0000
  H   H17       1.0  0.68165  0.31144  0.57963  1.0000
  H   H18       1.0  0.00608  0.31142  0.92040  1.0000
  H   H19       1.0  0.31835  0.68856  0.42037  1.0000
  H   H20       1.0  0.99392  0.68858  0.07960  1.0000
  H   H21       1.0  0.21670  0.04519  0.40154  1.0000
  H   H22       1.0  0.73835  0.04502  0.09837  1.0000
  H   H23       1.0  0.78330  0.95481  0.59846  1.0000
  H   H24       1.0  0.26164  0.95498  0.90163  1.0000
  C   C1        1.0  0.84174  0.49473  0.42678  1.0000
  C   C2        1.0  0.66331  0.49471  0.07340  1.0000
  C   C3        1.0  0.15827  0.50527  0.57322  1.0000
  C   C4        1.0  0.33670  0.50529  0.92660  1.0000
  C   C5        1.0  0.64737  0.52401  0.58761  1.0000
  C   C6        1.0  0.82833  0.52412  0.91255  1.0000
  C   C7        1.0  0.35263  0.47599  0.41239  1.0000
  C   C8        1.0  0.17167  0.47588  0.08745  1.0000
  C   C9        1.0  0.80757  0.38253  0.46767  1.0000
  C   C10       1.0  0.80950  0.38249  0.03244  1.0000
  C   C11       1.0  0.19243  0.61747  0.53233  1.0000
  C   C12       1.0  0.19050  0.61751  0.96756  1.0000
  C   C13       1.0  0.82060  0.74040  0.42449  1.0000
  C   C14       1.0  0.43899  0.74045  0.07576  1.0000
  C   C15       1.0  0.17940  0.25960  0.57551  1.0000
  C   C16       1.0  0.56101  0.25955  0.92424  1.0000
  C   C17       1.0  0.68430  0.63487  0.54703  1.0000
  C   C18       1.0  0.68092  0.63502  0.95324  1.0000
  C   C19       1.0  0.31570  0.36513  0.45297  1.0000
  C   C20       1.0  0.31908  0.36498  0.04676  1.0000
  C   C21       1.0  0.71111  0.39766  0.54819  1.0000
  C   C22       1.0  0.89068  0.39767  0.95190  1.0000
  C   C23       1.0  0.28888  0.60234  0.45181  1.0000
  C   C24       1.0  0.10932  0.60233  0.04810  1.0000
  C   C25       1.0  0.78130  0.62065  0.46682  1.0000
  C   C26       1.0  0.59804  0.62072  0.03343  1.0000
  C   C27       1.0  0.21870  0.37934  0.53318  1.0000
  C   C28       1.0  0.40196  0.37928  0.96657  1.0000
  C   C29       1.0  0.52169  0.54093  0.66899  1.0000
  C   C30       1.0  0.93683  0.54089  0.83109  1.0000
  C   C31       1.0  0.47831  0.45907  0.33101  1.0000
  C   C32       1.0  0.06318  0.45910  0.16891  1.0000
  C   C33       1.0  0.86790  0.24780  0.42598  1.0000
  C   C34       1.0  0.88420  0.24772  0.07406  1.0000
  C   C35       1.0  0.13210  0.75220  0.57402  1.0000
  C   C36       1.0  0.11580  0.75228  0.92593  1.0000
  C   C37       1.0  0.26877  0.95479  0.36127  1.0000
  C   C38       1.0  0.77664  0.95463  0.13866  1.0000
  C   C39       1.0  0.73123  0.04521  0.63873  1.0000
  C   C40       1.0  0.22336  0.04537  0.86134  1.0000
  O   O1        1.0  0.82830  0.15067  0.46617  1.0000
  O   O2        1.0  0.02095  0.15070  0.03379  1.0000
  O   O3        1.0  0.17170  0.84933  0.53383  1.0000
  O   O4        1.0  0.97905  0.84930  0.96621  1.0000
  O   O5        1.0  0.14177  0.90529  0.34504  1.0000
  O   O6        1.0  0.95314  0.90511  0.15489  1.0000
  O   O7        1.0  0.85823  0.09471  0.65496  1.0000
  O   O8        1.0  0.04685  0.09489  0.84511  1.0000
  O   O9        1.0  0.79556  0.84366  0.47005  1.0000
  O   O10       1.0  0.36071  0.84364  0.03015  1.0000
  O   O11       1.0  0.20444  0.15634  0.52995  1.0000
  O   O12       1.0  0.63929  0.15636  0.96985  1.0000
  O   O13       1.0  0.66603  0.05649  0.32696  1.0000
  O   O14       1.0  0.27778  0.05649  0.17299  1.0000
  O   O15       1.0  0.33397  0.94352  0.67304  1.0000
  O   O16       1.0  0.72222  0.94351  0.82701  1.0000
  O   O17       1.0  0.95723  0.23294  0.35252  1.0000
  O   O18       1.0  0.81019  0.23266  0.14756  1.0000
  O   O19       1.0  0.04277  0.76706  0.64748  1.0000
  O   O20       1.0  0.18981  0.76734  0.85244  1.0000
  O   O21       1.0  0.41917  0.66626  0.69194  1.0000
  O   O22       1.0  0.91464  0.66618  0.80823  1.0000
  O   O23       1.0  0.58083  0.33374  0.30806  1.0000
  O   O24       1.0  0.08536  0.33382  0.19177  1.0000
  O   O25       1.0  0.87578  0.73629  0.34851  1.0000
  O   O26       1.0  0.38798  0.73636  0.15173  1.0000
  O   O27       1.0  0.12422  0.26371  0.65149  1.0000
  O   O28       1.0  0.61202  0.26363  0.84827  1.0000
  O   O29       1.0  0.50918  0.43865  0.70903  1.0000
  O   O30       1.0  0.05064  0.43854  0.79087  1.0000
  O   O31       1.0  0.49082  0.56135  0.29097  1.0000
  O   O32       1.0  0.94935  0.56147  0.20913  1.0000
  O   O33       1.0  0.44748  0.90586  0.33401  1.0000
  O   O34       1.0  0.64684  0.90574  0.16594  1.0000
  O   O35       1.0  0.55252  0.09414  0.66599  1.0000
  O   O36       1.0  0.35316  0.09426  0.83407  1.0000
