data_image0
_chemical_formula_structural       Zn4H40C56O20
_chemical_formula_sum              "Zn4 H40 C56 O20"
_cell_length_a       5.52759
_cell_length_b       13.5904
_cell_length_c       15.99
_cell_angle_alpha    90.0002
_cell_angle_beta     89.9998
_cell_angle_gamma    98.1641

_space_group_name_H-M_alt    "P 1"
_space_group_IT_number       1

loop_
  _space_group_symop_operation_xyz
  'x, y, z'

loop_
  _atom_site_type_symbol
  _atom_site_label
  _atom_site_symmetry_multiplicity
  _atom_site_fract_x
  _atom_site_fract_y
  _atom_site_fract_z
  _atom_site_occupancy
  Zn  Zn1       1.0  0.06510  0.88812  0.92013  1.0000
  Zn  Zn2       1.0  0.43488  0.11187  0.42012  1.0000
  Zn  Zn3       1.0  0.93490  0.11189  0.07988  1.0000
  Zn  Zn4       1.0  0.56509  0.88813  0.57988  1.0000
  H   H1        1.0  0.67162  0.86538  0.83297  1.0000
  H   H2        1.0  0.82837  0.13461  0.33296  1.0000
  H   H3        1.0  0.32839  0.13462  0.16703  1.0000
  H   H4        1.0  0.17161  0.86538  0.66704  1.0000
  H   H5        1.0  0.88323  0.86797  0.76831  1.0000
  H   H6        1.0  0.61677  0.13202  0.26830  1.0000
  H   H7        1.0  0.11678  0.13202  0.23170  1.0000
  H   H8        1.0  0.38322  0.86798  0.73170  1.0000
  H   H9        1.0  0.69532  0.67746  0.79597  1.0000
  H   H10       1.0  0.80467  0.32252  0.29597  1.0000
  H   H11       1.0  0.30466  0.32254  0.20403  1.0000
  H   H12       1.0  0.19532  0.67747  0.70403  1.0000
  H   H13       1.0  0.82583  0.51272  0.79423  1.0000
  H   H14       1.0  0.67418  0.48727  0.29422  1.0000
  H   H15       1.0  0.17416  0.48728  0.20577  1.0000
  H   H16       1.0  0.32582  0.51273  0.70577  1.0000
  H   H17       1.0  0.22156  0.40323  0.95664  1.0000
  H   H18       1.0  0.27844  0.59677  0.45664  1.0000
  H   H19       1.0  0.77845  0.59677  0.04336  1.0000
  H   H20       1.0  0.72154  0.40323  0.54336  1.0000
  H   H21       1.0  0.09334  0.56909  0.95654  1.0000
  H   H22       1.0  0.40665  0.43090  0.45654  1.0000
  H   H23       1.0  0.90666  0.43091  0.04346  1.0000
  H   H24       1.0  0.59333  0.56910  0.54346  1.0000
  H   H25       1.0  0.94691  0.38152  0.80432  1.0000
  H   H26       1.0  0.55309  0.61847  0.30431  1.0000
  H   H27       1.0  0.05311  0.61849  0.19568  1.0000
  H   H28       1.0  0.44692  0.38153  0.69568  1.0000
  H   H29       1.0  0.04042  0.21144  0.79377  1.0000
  H   H30       1.0  0.45956  0.78854  0.29377  1.0000
  H   H31       1.0  0.95959  0.78856  0.20624  1.0000
  H   H32       1.0  0.54044  0.21145  0.70622  1.0000
  H   H33       1.0  0.75479  0.06904  0.85225  1.0000
  H   H34       1.0  0.74518  0.93095  0.35226  1.0000
  H   H35       1.0  0.24522  0.93097  0.14776  1.0000
  H   H36       1.0  0.25481  0.06904  0.64774  1.0000
  H   H37       1.0  0.29148  0.27235  0.94301  1.0000
  H   H38       1.0  0.20852  0.72764  0.44300  1.0000
  H   H39       1.0  0.70853  0.72766  0.05700  1.0000
  H   H40       1.0  0.79149  0.27235  0.55699  1.0000
  C   C1        1.0  0.30274  0.73404  0.87526  1.0000
  C   C2        1.0  0.19723  0.26594  0.37526  1.0000
  C   C3        1.0  0.69726  0.26597  0.12474  1.0000
  C   C4        1.0  0.80275  0.73405  0.62474  1.0000
  C   C5        1.0  0.38421  0.63442  0.87601  1.0000
  C   C6        1.0  0.11577  0.36557  0.37601  1.0000
  C   C7        1.0  0.61579  0.36559  0.12399  1.0000
  C   C8        1.0  0.88421  0.63442  0.62399  1.0000
  C   C9        1.0  0.59176  0.61696  0.83109  1.0000
  C   C10       1.0  0.90823  0.38303  0.33109  1.0000
  C   C11       1.0  0.40824  0.38304  0.16891  1.0000
  C   C12       1.0  0.09176  0.61696  0.66890  1.0000
  C   C13       1.0  0.66508  0.52316  0.83064  1.0000
  C   C14       1.0  0.83492  0.47683  0.33064  1.0000
  C   C15       1.0  0.33493  0.47684  0.16936  1.0000
  C   C16       1.0  0.16507  0.52317  0.66935  1.0000
  C   C17       1.0  0.53418  0.44316  0.87501  1.0000
  C   C18       1.0  0.96581  0.55682  0.37501  1.0000
  C   C19       1.0  0.46583  0.55684  0.12499  1.0000
  C   C20       1.0  0.03418  0.44317  0.62499  1.0000
  C   C21       1.0  0.32671  0.46216  0.92028  1.0000
  C   C22       1.0  0.17328  0.53783  0.42027  1.0000
  C   C23       1.0  0.67331  0.53784  0.07973  1.0000
  C   C24       1.0  0.82669  0.46216  0.57972  1.0000
  C   C25       1.0  0.25333  0.55565  0.92099  1.0000
  C   C26       1.0  0.24666  0.44434  0.42098  1.0000
  C   C27       1.0  0.74668  0.44435  0.07901  1.0000
  C   C28       1.0  0.75332  0.55565  0.57901  1.0000
  C   C29       1.0  0.60719  0.34239  0.87311  1.0000
  C   C30       1.0  0.89280  0.65760  0.37310  1.0000
  C   C31       1.0  0.39283  0.65762  0.12690  1.0000
  C   C32       1.0  0.10719  0.34239  0.62689  1.0000
  C   C33       1.0  0.82095  0.32185  0.83255  1.0000
  C   C34       1.0  0.67903  0.67814  0.33255  1.0000
  C   C35       1.0  0.17907  0.67816  0.16745  1.0000
  C   C36       1.0  0.32096  0.32186  0.66744  1.0000
  C   C37       1.0  0.87542  0.22489  0.82651  1.0000
  C   C38       1.0  0.62456  0.77509  0.32651  1.0000
  C   C39       1.0  0.12459  0.77511  0.17350  1.0000
  C   C40       1.0  0.37544  0.22491  0.67348  1.0000
  C   C41       1.0  0.71824  0.14522  0.85990  1.0000
  C   C42       1.0  0.78174  0.85477  0.35990  1.0000
  C   C43       1.0  0.28177  0.85478  0.14011  1.0000
  C   C44       1.0  0.21826  0.14523  0.64009  1.0000
  C   C45       1.0  0.50941  0.16473  0.90286  1.0000
  C   C46       1.0  0.99059  0.83526  0.40286  1.0000
  C   C47       1.0  0.49061  0.83528  0.09715  1.0000
  C   C48       1.0  0.00942  0.16473  0.59714  1.0000
  C   C49       1.0  0.45769  0.26202  0.90988  1.0000
  C   C50       1.0  0.04230  0.73797  0.40988  1.0000
  C   C51       1.0  0.54233  0.73799  0.09013  1.0000
  C   C52       1.0  0.95770  0.26203  0.59011  1.0000
  C   C53       1.0  0.32850  0.08361  0.93853  1.0000
  C   C54       1.0  0.17151  0.91638  0.43853  1.0000
  C   C55       1.0  0.67153  0.91640  0.06147  1.0000
  C   C56       1.0  0.82849  0.08361  0.56146  1.0000
  O   O1        1.0  0.13210  0.74928  0.92625  1.0000
  O   O2        1.0  0.36788  0.25072  0.42625  1.0000
  O   O3        1.0  0.86790  0.25073  0.07376  1.0000
  O   O4        1.0  0.63210  0.74928  0.57375  1.0000
  O   O5        1.0  0.40100  0.80083  0.82487  1.0000
  O   O6        1.0  0.09899  0.19915  0.32487  1.0000
  O   O7        1.0  0.59899  0.19917  0.17513  1.0000
  O   O8        1.0  0.90101  0.80084  0.67513  1.0000
  O   O9        1.0  0.17284  0.10813  0.98960  1.0000
  O   O10       1.0  0.32715  0.89186  0.48961  1.0000
  O   O11       1.0  0.82716  0.89188  0.01040  1.0000
  O   O12       1.0  0.67290  0.10813  0.51038  1.0000
  O   O13       1.0  0.33844  0.99496  0.91264  1.0000
  O   O14       1.0  0.16157  0.00502  0.41263  1.0000
  O   O15       1.0  0.66160  0.00504  0.08739  1.0000
  O   O16       1.0  0.83840  0.99497  0.58739  1.0000
  O   O17       1.0  0.84212  0.89911  0.82156  1.0000
  O   O18       1.0  0.65786  0.10088  0.32155  1.0000
  O   O19       1.0  0.15789  0.10089  0.17844  1.0000
  O   O20       1.0  0.34212  0.89911  0.67844  1.0000
