data_image0
_chemical_formula_structural       Cd4H48C52N24O12
_chemical_formula_sum              "Cd4 H48 C52 N24 O12"
_cell_length_a       7.30672
_cell_length_b       13.1521
_cell_length_c       14.608
_cell_angle_alpha    90
_cell_angle_beta     90
_cell_angle_gamma    91.2655

_space_group_name_H-M_alt    "P 1"
_space_group_IT_number       1

loop_
  _space_group_symop_operation_xyz
  'x, y, z'

loop_
  _atom_site_type_symbol
  _atom_site_label
  _atom_site_symmetry_multiplicity
  _atom_site_fract_x
  _atom_site_fract_y
  _atom_site_fract_z
  _atom_site_occupancy
  Cd  Cd1       1.0  0.24578  0.69130  0.44957  1.0000
  Cd  Cd2       1.0  0.25422  0.80870  0.94958  1.0000
  Cd  Cd3       1.0  0.75422  0.30870  0.55042  1.0000
  Cd  Cd4       1.0  0.74578  0.19130  0.05043  1.0000
  H   H1        1.0  0.03116  0.80112  0.63749  1.0000
  H   H2        1.0  0.46885  0.69889  0.13749  1.0000
  H   H3        1.0  0.96885  0.19888  0.36251  1.0000
  H   H4        1.0  0.53115  0.30111  0.86250  1.0000
  H   H5        1.0  0.93168  0.74419  0.79591  1.0000
  H   H6        1.0  0.56833  0.75581  0.29590  1.0000
  H   H7        1.0  0.06832  0.25581  0.20409  1.0000
  H   H8        1.0  0.43168  0.24418  0.70409  1.0000
  H   H9        1.0  0.96656  0.55809  0.83422  1.0000
  H   H10       1.0  0.53343  0.94191  0.33422  1.0000
  H   H11       1.0  0.03344  0.44191  0.16578  1.0000
  H   H12       1.0  0.46657  0.05808  0.66578  1.0000
  H   H13       1.0  0.46914  0.30786  0.36600  1.0000
  H   H14       1.0  0.03086  0.19215  0.86600  1.0000
  H   H15       1.0  0.53085  0.69214  0.63400  1.0000
  H   H16       1.0  0.96913  0.80785  0.13400  1.0000
  H   H17       1.0  0.60767  0.19114  0.24855  1.0000
  H   H18       1.0  0.89233  0.30886  0.74855  1.0000
  H   H19       1.0  0.39233  0.80886  0.75145  1.0000
  H   H20       1.0  0.10766  0.69114  0.25145  1.0000
  H   H21       1.0  0.56772  0.40999  0.04627  1.0000
  H   H22       1.0  0.93230  0.09001  0.54627  1.0000
  H   H23       1.0  0.43228  0.59001  0.95373  1.0000
  H   H24       1.0  0.06774  0.90999  0.45373  1.0000
  H   H25       1.0  0.42296  0.53364  0.15528  1.0000
  H   H26       1.0  0.07706  0.96636  0.65528  1.0000
  H   H27       1.0  0.57705  0.46636  0.84473  1.0000
  H   H28       1.0  0.92296  0.03364  0.34473  1.0000
  H   H29       1.0  0.65880  0.97672  0.52971  1.0000
  H   H30       1.0  0.84120  0.52328  0.02972  1.0000
  H   H31       1.0  0.34121  0.02328  0.47028  1.0000
  H   H32       1.0  0.15880  0.47672  0.97028  1.0000
  H   H33       1.0  0.78863  0.86402  0.54064  1.0000
  H   H34       1.0  0.71137  0.63598  0.04065  1.0000
  H   H35       1.0  0.21137  0.13597  0.45934  1.0000
  H   H36       1.0  0.28862  0.36402  0.95934  1.0000
  H   H37       1.0  0.65096  0.90739  0.63398  1.0000
  H   H38       1.0  0.84904  0.59261  0.13398  1.0000
  H   H39       1.0  0.34905  0.09261  0.36602  1.0000
  H   H40       1.0  0.15094  0.40739  0.86602  1.0000
  H   H41       1.0  0.28810  0.33895  0.54846  1.0000
  H   H42       1.0  0.21190  0.16106  0.04846  1.0000
  H   H43       1.0  0.71190  0.66106  0.45154  1.0000
  H   H44       1.0  0.78809  0.83894  0.95154  1.0000
  H   H45       1.0  0.18162  0.37476  0.65140  1.0000
  H   H46       1.0  0.31837  0.12524  0.15141  1.0000
  H   H47       1.0  0.81838  0.62524  0.34860  1.0000
  H   H48       1.0  0.68162  0.87476  0.84860  1.0000
  C   C1        1.0  0.03729  0.72193  0.65884  1.0000
  C   C2        1.0  0.46272  0.77807  0.15884  1.0000
  C   C3        1.0  0.96272  0.27807  0.34116  1.0000
  C   C4        1.0  0.53728  0.22193  0.84116  1.0000
  C   C5        1.0  0.98277  0.69062  0.74593  1.0000
  C   C6        1.0  0.51723  0.80939  0.24593  1.0000
  C   C7        1.0  0.01723  0.30939  0.25407  1.0000
  C   C8        1.0  0.48277  0.19061  0.75407  1.0000
  C   C9        1.0  0.00515  0.58843  0.76717  1.0000
  C   C10       1.0  0.49484  0.91157  0.26717  1.0000
  C   C11       1.0  0.99485  0.41157  0.23283  1.0000
  C   C12       1.0  0.50515  0.08843  0.73283  1.0000
  C   C13       1.0  0.12144  0.55922  0.62475  1.0000
  C   C14       1.0  0.37855  0.94078  0.12476  1.0000
  C   C15       1.0  0.87856  0.44078  0.37525  1.0000
  C   C16       1.0  0.62144  0.05922  0.87525  1.0000
  C   C17       1.0  0.19923  0.48673  0.55864  1.0000
  C   C18       1.0  0.30077  0.01328  0.05865  1.0000
  C   C19       1.0  0.80077  0.51328  0.44136  1.0000
  C   C20       1.0  0.69922  0.98672  0.94136  1.0000
  C   C21       1.0  0.36418  0.50232  0.33794  1.0000
  C   C22       1.0  0.13582  0.99769  0.83794  1.0000
  C   C23       1.0  0.63580  0.49768  0.66206  1.0000
  C   C24       1.0  0.86418  0.00232  0.16206  1.0000
  C   C25       1.0  0.43930  0.43014  0.26976  1.0000
  C   C26       1.0  0.06070  0.06986  0.76976  1.0000
  C   C27       1.0  0.56069  0.56986  0.73025  1.0000
  C   C28       1.0  0.93930  0.93014  0.23025  1.0000
  C   C29       1.0  0.48824  0.33156  0.29532  1.0000
  C   C30       1.0  0.01177  0.16845  0.79532  1.0000
  C   C31       1.0  0.51176  0.66844  0.70468  1.0000
  C   C32       1.0  0.98823  0.83155  0.20469  1.0000
  C   C33       1.0  0.56281  0.26730  0.23094  1.0000
  C   C34       1.0  0.93720  0.23270  0.73094  1.0000
  C   C35       1.0  0.43719  0.73270  0.76906  1.0000
  C   C36       1.0  0.06280  0.76730  0.26906  1.0000
  C   C37       1.0  0.54007  0.39009  0.11743  1.0000
  C   C38       1.0  0.95994  0.10992  0.61743  1.0000
  C   C39       1.0  0.45993  0.60992  0.88257  1.0000
  C   C40       1.0  0.04007  0.89008  0.38257  1.0000
  C   C41       1.0  0.46425  0.45876  0.17818  1.0000
  C   C42       1.0  0.03577  0.04124  0.67818  1.0000
  C   C43       1.0  0.53575  0.54124  0.82183  1.0000
  C   C44       1.0  0.96425  0.95876  0.32183  1.0000
  C   C45       1.0  0.49743  0.83856  0.52367  1.0000
  C   C46       1.0  0.00256  0.66145  0.02367  1.0000
  C   C47       1.0  0.50256  0.16144  0.47632  1.0000
  C   C48       1.0  0.99744  0.33855  0.97633  1.0000
  C   C49       1.0  0.66000  0.89978  0.55923  1.0000
  C   C50       1.0  0.84000  0.60021  0.05923  1.0000
  C   C51       1.0  0.34001  0.10021  0.44076  1.0000
  C   C52       1.0  0.15999  0.39978  0.94076  1.0000
  N   N1        1.0  0.10489  0.65675  0.59809  1.0000
  N   N2        1.0  0.39511  0.84326  0.09809  1.0000
  N   N3        1.0  0.89511  0.34325  0.40191  1.0000
  N   N4        1.0  0.60489  0.15674  0.90191  1.0000
  N   N5        1.0  0.07567  0.52238  0.70758  1.0000
  N   N6        1.0  0.42432  0.97763  0.20759  1.0000
  N   N7        1.0  0.92432  0.47763  0.29242  1.0000
  N   N8        1.0  0.57568  0.02237  0.79242  1.0000
  N   N9        1.0  0.20940  0.38880  0.58448  1.0000
  N   N10       1.0  0.29059  0.11121  0.08448  1.0000
  N   N11       1.0  0.79059  0.61120  0.41552  1.0000
  N   N12       1.0  0.70940  0.88879  0.91552  1.0000
  N   N13       1.0  0.24959  0.52341  0.47863  1.0000
  N   N14       1.0  0.25041  0.97659  0.97863  1.0000
  N   N15       1.0  0.75041  0.47659  0.52138  1.0000
  N   N16       1.0  0.74958  0.02341  0.02138  1.0000
  N   N17       1.0  0.31993  0.45728  0.41770  1.0000
  N   N18       1.0  0.18007  0.04273  0.91771  1.0000
  N   N19       1.0  0.68007  0.54272  0.58230  1.0000
  N   N20       1.0  0.81992  0.95727  0.08230  1.0000
  N   N21       1.0  0.58954  0.29624  0.14296  1.0000
  N   N22       1.0  0.91047  0.20376  0.64296  1.0000
  N   N23       1.0  0.41046  0.70376  0.85704  1.0000
  N   N24       1.0  0.08954  0.79624  0.35704  1.0000
  O   O1        1.0  0.34784  0.59592  0.31595  1.0000
  O   O2        1.0  0.15217  0.90409  0.81595  1.0000
  O   O3        1.0  0.65214  0.40408  0.68405  1.0000
  O   O4        1.0  0.84784  0.09591  0.18405  1.0000
  O   O5        1.0  0.53100  0.76124  0.47202  1.0000
  O   O6        1.0  0.96901  0.73875  0.97202  1.0000
  O   O7        1.0  0.46900  0.23875  0.52798  1.0000
  O   O8        1.0  0.03099  0.26124  0.02798  1.0000
  O   O9        1.0  0.33693  0.86349  0.54468  1.0000
  O   O10       1.0  0.16307  0.63651  0.04468  1.0000
  O   O11       1.0  0.66307  0.13651  0.45532  1.0000
  O   O12       1.0  0.83693  0.36349  0.95532  1.0000
