data_image0
_chemical_formula_structural       Na4H28C32S4O32
_chemical_formula_sum              "Na4 H28 C32 S4 O32"
_cell_length_a       7.10669
_cell_length_b       11.1414
_cell_length_c       13.1097
_cell_angle_alpha    95.4635
_cell_angle_beta     90.0003
_cell_angle_gamma    90.0001

_space_group_name_H-M_alt    "P 1"
_space_group_IT_number       1

loop_
  _space_group_symop_operation_xyz
  'x, y, z'

loop_
  _atom_site_type_symbol
  _atom_site_label
  _atom_site_symmetry_multiplicity
  _atom_site_fract_x
  _atom_site_fract_y
  _atom_site_fract_z
  _atom_site_occupancy
  Na  Na1       1.0  0.53005  0.07848  0.90081  1.0000
  Na  Na2       1.0  0.03004  0.42152  0.59919  1.0000
  Na  Na3       1.0  0.46996  0.92152  0.09919  1.0000
  Na  Na4       1.0  0.96995  0.57848  0.40081  1.0000
  H   H1        1.0  0.13962  0.36935  0.84266  1.0000
  H   H2        1.0  0.63963  0.13065  0.65734  1.0000
  H   H3        1.0  0.86037  0.63066  0.15734  1.0000
  H   H4        1.0  0.36038  0.86935  0.34266  1.0000
  H   H5        1.0  0.38230  0.69697  0.98781  1.0000
  H   H6        1.0  0.88230  0.80303  0.51218  1.0000
  H   H7        1.0  0.61770  0.30303  0.01219  1.0000
  H   H8        1.0  0.11771  0.19697  0.48781  1.0000
  H   H9        1.0  0.21990  0.41450  0.17096  1.0000
  H   H10       1.0  0.71990  0.08550  0.32904  1.0000
  H   H11       1.0  0.78010  0.58550  0.82905  1.0000
  H   H12       1.0  0.28010  0.91450  0.67096  1.0000
  H   H13       1.0  0.41332  0.68919  0.71991  1.0000
  H   H14       1.0  0.91332  0.81081  0.78008  1.0000
  H   H15       1.0  0.58668  0.31081  0.28009  1.0000
  H   H16       1.0  0.08669  0.18919  0.21992  1.0000
  H   H17       1.0  0.42257  0.63334  0.32672  1.0000
  H   H18       1.0  0.92256  0.86666  0.17328  1.0000
  H   H19       1.0  0.57744  0.36666  0.67328  1.0000
  H   H20       1.0  0.07743  0.13334  0.82672  1.0000
  H   H21       1.0  0.78383  0.11538  0.08454  1.0000
  H   H22       1.0  0.28382  0.38462  0.41547  1.0000
  H   H23       1.0  0.21618  0.88462  0.91547  1.0000
  H   H24       1.0  0.71618  0.61538  0.58453  1.0000
  H   H25       1.0  0.59085  0.16787  0.11714  1.0000
  H   H26       1.0  0.09085  0.33212  0.38286  1.0000
  H   H27       1.0  0.40915  0.83212  0.88286  1.0000
  H   H28       1.0  0.90915  0.66787  0.61714  1.0000
  C   C1        1.0  0.17477  0.37908  0.00755  1.0000
  C   C2        1.0  0.67478  0.12092  0.49244  1.0000
  C   C3        1.0  0.82522  0.62092  0.99245  1.0000
  C   C4        1.0  0.32523  0.87908  0.50755  1.0000
  C   C5        1.0  0.18594  0.42339  0.91187  1.0000
  C   C6        1.0  0.68595  0.07661  0.58813  1.0000
  C   C7        1.0  0.81405  0.57661  0.08813  1.0000
  C   C8        1.0  0.31406  0.92339  0.41187  1.0000
  C   C9        1.0  0.26141  0.53849  0.90453  1.0000
  C   C10       1.0  0.76141  0.96151  0.59547  1.0000
  C   C11       1.0  0.73859  0.46152  0.09547  1.0000
  C   C12       1.0  0.23859  0.03848  0.40453  1.0000
  C   C13       1.0  0.32175  0.60824  0.99264  1.0000
  C   C14       1.0  0.82176  0.89176  0.50736  1.0000
  C   C15       1.0  0.67824  0.39176  0.00736  1.0000
  C   C16       1.0  0.17824  0.10824  0.49264  1.0000
  C   C17       1.0  0.30373  0.56460  0.08856  1.0000
  C   C18       1.0  0.80373  0.93540  0.41144  1.0000
  C   C19       1.0  0.69627  0.43540  0.91144  1.0000
  C   C20       1.0  0.19628  0.06460  0.58856  1.0000
  C   C21       1.0  0.23079  0.44898  0.09630  1.0000
  C   C22       1.0  0.73079  0.05103  0.40370  1.0000
  C   C23       1.0  0.76921  0.55103  0.90370  1.0000
  C   C24       1.0  0.26921  0.94897  0.59630  1.0000
  C   C25       1.0  0.27587  0.58104  0.80064  1.0000
  C   C26       1.0  0.77587  0.91897  0.69935  1.0000
  C   C27       1.0  0.72413  0.41896  0.19935  1.0000
  C   C28       1.0  0.22414  0.08103  0.30064  1.0000
  C   C29       1.0  0.37117  0.64049  0.18118  1.0000
  C   C30       1.0  0.87116  0.85951  0.31881  1.0000
  C   C31       1.0  0.62883  0.35951  0.81882  1.0000
  C   C32       1.0  0.12883  0.14049  0.68119  1.0000
  S   S1        1.0  0.10881  0.22566  0.01413  1.0000
  S   S2        1.0  0.60881  0.27434  0.48586  1.0000
  S   S3        1.0  0.89119  0.77434  0.98586  1.0000
  S   S4        1.0  0.39119  0.72566  0.51414  1.0000
  O   O1        1.0  0.28558  0.15905  0.00946  1.0000
  O   O2        1.0  0.78558  0.34095  0.49054  1.0000
  O   O3        1.0  0.71442  0.84095  0.99054  1.0000
  O   O4        1.0  0.21442  0.65905  0.50946  1.0000
  O   O5        1.0  0.98233  0.19319  0.92669  1.0000
  O   O6        1.0  0.48234  0.30681  0.57331  1.0000
  O   O7        1.0  0.01767  0.80681  0.07331  1.0000
  O   O8        1.0  0.51766  0.69319  0.42669  1.0000
  O   O9        1.0  0.00675  0.22023  0.11224  1.0000
  O   O10       1.0  0.50674  0.27977  0.38776  1.0000
  O   O11       1.0  0.99326  0.77977  0.88776  1.0000
  O   O12       1.0  0.49326  0.72023  0.61224  1.0000
  O   O13       1.0  0.18906  0.53347  0.72633  1.0000
  O   O14       1.0  0.68906  0.96653  0.77367  1.0000
  O   O15       1.0  0.81094  0.46653  0.27367  1.0000
  O   O16       1.0  0.31095  0.03347  0.22633  1.0000
  O   O17       1.0  0.39485  0.67337  0.79457  1.0000
  O   O18       1.0  0.89485  0.82663  0.70543  1.0000
  O   O19       1.0  0.60515  0.32664  0.20543  1.0000
  O   O20       1.0  0.10515  0.17337  0.29457  1.0000
  O   O21       1.0  0.43398  0.74356  0.17886  1.0000
  O   O22       1.0  0.93397  0.75643  0.32113  1.0000
  O   O23       1.0  0.56601  0.25644  0.82114  1.0000
  O   O24       1.0  0.06603  0.24357  0.67887  1.0000
  O   O25       1.0  0.36107  0.58392  0.26595  1.0000
  O   O26       1.0  0.86107  0.91609  0.23404  1.0000
  O   O27       1.0  0.63893  0.41608  0.73405  1.0000
  O   O28       1.0  0.13892  0.08391  0.76595  1.0000
  O   O29       1.0  0.64866  0.09917  0.07669  1.0000
  O   O30       1.0  0.14866  0.40083  0.42331  1.0000
  O   O31       1.0  0.35134  0.90083  0.92331  1.0000
  O   O32       1.0  0.85134  0.59917  0.57669  1.0000
