data_image0
_chemical_formula_structural       NaH7C8SO8
_chemical_formula_sum              "Na1 H7 C8 S1 O8"
_cell_length_a       5.29408
_cell_length_b       5.55763
_cell_length_c       9.26237
_cell_angle_alpha    104.278
_cell_angle_beta     90.4969
_cell_angle_gamma    105.203

_space_group_name_H-M_alt    "P 1"
_space_group_IT_number       1

loop_
  _space_group_symop_operation_xyz
  'x, y, z'

loop_
  _atom_site_type_symbol
  _atom_site_label
  _atom_site_symmetry_multiplicity
  _atom_site_fract_x
  _atom_site_fract_y
  _atom_site_fract_z
  _atom_site_occupancy
  Na  Na1       1.0  0.28307  0.84753  0.89693  1.0000
  H   H1        1.0  0.10213  0.29413  0.23739  1.0000
  H   H2        1.0  0.78567  0.88459  0.50494  1.0000
  H   H3        1.0  0.56337  0.59657  0.03330  1.0000
  H   H4        1.0  0.43049  0.50323  0.63683  1.0000
  H   H5        1.0  0.37293  0.20240  0.41833  1.0000
  H   H6        1.0  0.58633  0.40282  0.77488  1.0000
  H   H7        1.0  0.76106  0.63077  0.70230  1.0000
  C   C1        1.0  0.83928  0.43434  0.12169  1.0000
  C   C2        1.0  0.97896  0.42619  0.24803  1.0000
  C   C3        1.0  0.95479  0.58612  0.38725  1.0000
  C   C4        1.0  0.79769  0.75586  0.39730  1.0000
  C   C5        1.0  0.65868  0.76155  0.26968  1.0000
  C   C6        1.0  0.67727  0.59741  0.13155  1.0000
  C   C7        1.0  0.09865  0.58501  0.52669  1.0000
  C   C8        1.0  0.49136  0.94051  0.27628  1.0000
  S   S1        1.0  0.88138  0.24561  0.94253  1.0000
  O   O1        1.0  0.10049  0.40856  0.88553  1.0000
  O   O2        1.0  0.92851  0.01045  0.96564  1.0000
  O   O3        1.0  0.62894  0.19073  0.85152  1.0000
  O   O4        1.0  0.04937  0.70928  0.65185  1.0000
  O   O5        1.0  0.27390  0.45863  0.51219  1.0000
  O   O6        1.0  0.37755  0.96340  0.16578  1.0000
  O   O7        1.0  0.47867  0.07603  0.41568  1.0000
  O   O8        1.0  0.57841  0.55543  0.73324  1.0000
