data_image0
_chemical_formula_structural       Cu2H40C52N12O8
_chemical_formula_sum              "Cu2 H40 C52 N12 O8"
_cell_length_a       7.99812
_cell_length_b       11.0659
_cell_length_c       14.08
_cell_angle_alpha    93.6804
_cell_angle_beta     105.686
_cell_angle_gamma    92.7964

_space_group_name_H-M_alt    "P 1"
_space_group_IT_number       1

loop_
  _space_group_symop_operation_xyz
  'x, y, z'

loop_
  _atom_site_type_symbol
  _atom_site_label
  _atom_site_symmetry_multiplicity
  _atom_site_fract_x
  _atom_site_fract_y
  _atom_site_fract_z
  _atom_site_occupancy
  Cu  Cu1       1.0  0.50000  0.00000  0.00000  1.0000
  Cu  Cu2       1.0  0.50000  1.00000  0.50000  1.0000
  H   H1        1.0  0.61077  0.29151  0.05682  1.0000
  H   H2        1.0  0.38922  0.70849  0.94318  1.0000
  H   H3        1.0  0.27361  0.11138  0.79650  1.0000
  H   H4        1.0  0.72640  0.88862  0.20350  1.0000
  H   H5        1.0  0.19010  0.44039  0.80400  1.0000
  H   H6        1.0  0.80990  0.55961  0.19599  1.0000
  H   H7        1.0  0.12253  0.29967  0.73167  1.0000
  H   H8        1.0  0.87747  0.70033  0.26832  1.0000
  H   H9        1.0  0.32639  0.59412  0.73542  1.0000
  H   H10       1.0  0.67362  0.40588  0.26458  1.0000
  H   H11       1.0  0.44722  0.66161  0.60447  1.0000
  H   H12       1.0  0.55278  0.33839  0.39553  1.0000
  H   H13       1.0  0.48526  0.28708  0.50885  1.0000
  H   H14       1.0  0.51475  0.71293  0.49115  1.0000
  H   H15       1.0  0.35872  0.22061  0.63772  1.0000
  H   H16       1.0  0.64129  0.77939  0.36228  1.0000
  H   H17       1.0  0.07235  0.92864  0.44075  1.0000
  H   H18       1.0  0.92765  0.07136  0.55925  1.0000
  H   H19       1.0  0.40203  0.04005  0.26834  1.0000
  H   H20       1.0  0.59797  0.95995  0.73165  1.0000
  H   H21       1.0  0.19756  0.99000  0.10287  1.0000
  H   H22       1.0  0.80244  0.01000  0.89713  1.0000
  H   H23       1.0  0.97171  0.99452  0.09815  1.0000
  H   H24       1.0  0.02829  0.00548  0.90185  1.0000
  H   H25       1.0  0.28677  0.75887  0.19899  1.0000
  H   H26       1.0  0.71323  0.24113  0.80100  1.0000
  H   H27       1.0  0.24642  0.54642  0.13762  1.0000
  H   H28       1.0  0.75358  0.45358  0.86238  1.0000
  H   H29       1.0  0.78343  0.62177  0.91314  1.0000
  H   H30       1.0  0.21657  0.37823  0.08685  1.0000
  H   H31       1.0  0.82708  0.83471  0.97420  1.0000
  H   H32       1.0  0.17292  0.16530  0.02580  1.0000
  H   H33       1.0  0.07326  0.73599  0.49881  1.0000
  H   H34       1.0  0.92674  0.26400  0.50120  1.0000
  H   H35       1.0  0.86315  0.59602  0.54573  1.0000
  H   H36       1.0  0.13685  0.40397  0.45427  1.0000
  H   H37       1.0  0.85334  0.59900  0.72140  1.0000
  H   H38       1.0  0.14667  0.40100  0.27860  1.0000
  H   H39       1.0  0.06506  0.73763  0.85017  1.0000
  H   H40       1.0  0.93494  0.26237  0.14984  1.0000
  C   C1        1.0  0.51776  0.27329  0.98498  1.0000
  C   C2        1.0  0.48223  0.72671  0.01502  1.0000
  C   C3        1.0  0.34907  0.17812  0.85398  1.0000
  C   C4        1.0  0.65093  0.82189  0.14602  1.0000
  C   C5        1.0  0.23559  0.36254  0.76820  1.0000
  C   C6        1.0  0.76441  0.63746  0.23180  1.0000
  C   C7        1.0  0.32984  0.40291  0.69501  1.0000
  C   C8        1.0  0.67017  0.59709  0.30499  1.0000
  C   C9        1.0  0.36117  0.52632  0.68561  1.0000
  C   C10       1.0  0.63884  0.47368  0.31438  1.0000
  C   C11       1.0  0.43029  0.56449  0.61079  1.0000
  C   C12       1.0  0.56971  0.43551  0.38921  1.0000
  C   C13       1.0  0.47072  0.48008  0.54261  1.0000
  C   C14       1.0  0.52928  0.51992  0.45739  1.0000
  C   C15       1.0  0.45034  0.35594  0.55747  1.0000
  C   C16       1.0  0.54967  0.64407  0.44253  1.0000
  C   C17       1.0  0.37975  0.31779  0.63157  1.0000
  C   C18       1.0  0.62026  0.68221  0.36843  1.0000
  C   C19       1.0  0.12371  0.94579  0.37887  1.0000
  C   C20       1.0  0.87628  0.05421  0.62113  1.0000
  C   C21       1.0  0.29455  0.00389  0.29415  1.0000
  C   C22       1.0  0.70544  0.99611  0.70585  1.0000
  C   C23       1.0  0.08989  0.94626  0.12582  1.0000
  C   C24       1.0  0.91011  0.05374  0.87418  1.0000
  C   C25       1.0  0.06167  0.81350  0.09003  1.0000
  C   C26       1.0  0.93833  0.18650  0.90997  1.0000
  C   C27       1.0  0.17613  0.72944  0.13564  1.0000
  C   C28       1.0  0.82386  0.27056  0.86436  1.0000
  C   C29       1.0  0.15190  0.60772  0.10077  1.0000
  C   C30       1.0  0.84810  0.39228  0.89923  1.0000
  C   C31       1.0  0.01219  0.56473  0.01897  1.0000
  C   C32       1.0  0.98781  0.43527  0.98103  1.0000
  C   C33       1.0  0.89644  0.64994  0.97499  1.0000
  C   C34       1.0  0.10356  0.35006  0.02500  1.0000
  C   C35       1.0  0.92084  0.77188  0.00975  1.0000
  C   C36       1.0  0.07916  0.22812  0.99024  1.0000
  C   C37       1.0  0.18689  0.81668  0.64701  1.0000
  C   C38       1.0  0.81310  0.18332  0.35300  1.0000
  C   C39       1.0  0.07051  0.73667  0.57583  1.0000
  C   C40       1.0  0.92949  0.26333  0.42417  1.0000
  C   C41       1.0  0.95217  0.65779  0.60228  1.0000
  C   C42       1.0  0.04783  0.34220  0.39772  1.0000
  C   C43       1.0  0.94741  0.65924  0.70070  1.0000
  C   C44       1.0  0.05259  0.34075  0.29931  1.0000
  C   C45       1.0  0.06484  0.73731  0.77268  1.0000
  C   C46       1.0  0.93516  0.26269  0.22732  1.0000
  C   C47       1.0  0.18679  0.81455  0.74694  1.0000
  C   C48       1.0  0.81320  0.18545  0.25306  1.0000
  C   C49       1.0  0.32632  0.88350  0.82770  1.0000
  C   C50       1.0  0.67368  0.11651  0.17231  1.0000
  C   C51       1.0  0.29895  0.90937  0.61388  1.0000
  C   C52       1.0  0.70105  0.09064  0.38612  1.0000
  N   N1        1.0  0.45995  0.15901  0.94130  1.0000
  N   N2        1.0  0.54005  0.84099  0.05869  1.0000
  N   N3        1.0  0.44908  0.36054  0.93005  1.0000
  N   N4        1.0  0.55092  0.63946  0.06995  1.0000
  N   N5        1.0  0.34266  0.29819  0.84767  1.0000
  N   N6        1.0  0.65734  0.70181  0.15233  1.0000
  N   N7        1.0  0.28891  0.99351  0.38765  1.0000
  N   N8        1.0  0.71108  0.00649  0.61234  1.0000
  N   N9        1.0  0.02917  0.92508  0.28579  1.0000
  N   N10       1.0  0.97083  0.07492  0.71421  1.0000
  N   N11       1.0  0.13994  0.96275  0.23350  1.0000
  N   N12       1.0  0.86006  0.03725  0.76650  1.0000
  O   O1        1.0  0.28057  0.92598  0.90434  1.0000
  O   O2        1.0  0.71943  0.07402  0.09566  1.0000
  O   O3        1.0  0.48064  0.89225  0.82218  1.0000
  O   O4        1.0  0.51936  0.10776  0.17783  1.0000
  O   O5        1.0  0.38750  0.86637  0.55609  1.0000
  O   O6        1.0  0.61250  0.13363  0.44391  1.0000
  O   O7        1.0  0.29542  0.01980  0.63799  1.0000
  O   O8        1.0  0.70459  0.98019  0.36201  1.0000
