data_image0
_chemical_formula_structural       Cd4H24C48N8O16
_chemical_formula_sum              "Cd4 H24 C48 N8 O16"
_cell_length_a       8.247
_cell_length_b       8.24701
_cell_length_c       16.3684
_cell_angle_alpha    90
_cell_angle_beta     90
_cell_angle_gamma    90.0001

_space_group_name_H-M_alt    "P 1"
_space_group_IT_number       1

loop_
  _space_group_symop_operation_xyz
  'x, y, z'

loop_
  _atom_site_type_symbol
  _atom_site_label
  _atom_site_symmetry_multiplicity
  _atom_site_fract_x
  _atom_site_fract_y
  _atom_site_fract_z
  _atom_site_occupancy
  Cd  Cd1       1.0  0.71117  0.78883  0.75000  1.0000
  Cd  Cd2       1.0  0.28883  0.21117  0.75000  1.0000
  Cd  Cd3       1.0  0.78883  0.28883  0.25000  1.0000
  Cd  Cd4       1.0  0.21117  0.71117  0.25000  1.0000
  H   H1        1.0  0.10969  0.81461  0.97371  1.0000
  H   H2        1.0  0.89031  0.18539  0.97371  1.0000
  H   H3        1.0  0.81461  0.89031  0.02629  1.0000
  H   H4        1.0  0.18539  0.10969  0.02629  1.0000
  H   H5        1.0  0.60969  0.68539  0.47371  1.0000
  H   H6        1.0  0.39030  0.31461  0.47371  1.0000
  H   H7        1.0  0.31461  0.60970  0.52629  1.0000
  H   H8        1.0  0.68539  0.39030  0.52629  1.0000
  H   H9        1.0  0.39555  0.81027  0.02792  1.0000
  H   H10       1.0  0.60445  0.18973  0.02792  1.0000
  H   H11       1.0  0.81027  0.60445  0.97208  1.0000
  H   H12       1.0  0.18973  0.39555  0.97208  1.0000
  H   H13       1.0  0.89555  0.68973  0.52792  1.0000
  H   H14       1.0  0.10445  0.31027  0.52792  1.0000
  H   H15       1.0  0.31027  0.89555  0.47208  1.0000
  H   H16       1.0  0.68973  0.10445  0.47208  1.0000
  H   H17       1.0  0.62416  0.80322  0.92551  1.0000
  H   H18       1.0  0.37584  0.19678  0.92551  1.0000
  H   H19       1.0  0.80322  0.37584  0.07449  1.0000
  H   H20       1.0  0.19678  0.62416  0.07449  1.0000
  H   H21       1.0  0.12416  0.69678  0.42551  1.0000
  H   H22       1.0  0.87584  0.30322  0.42551  1.0000
  H   H23       1.0  0.30322  0.12416  0.57449  1.0000
  H   H24       1.0  0.69678  0.87584  0.57449  1.0000
  C   C1        1.0  0.32018  0.80659  0.79570  1.0000
  C   C2        1.0  0.67982  0.19341  0.79570  1.0000
  C   C3        1.0  0.80659  0.67982  0.20430  1.0000
  C   C4        1.0  0.19341  0.32018  0.20430  1.0000
  C   C5        1.0  0.82018  0.69341  0.29570  1.0000
  C   C6        1.0  0.17982  0.30659  0.29570  1.0000
  C   C7        1.0  0.30659  0.82018  0.70430  1.0000
  C   C8        1.0  0.69341  0.17982  0.70430  1.0000
  C   C9        1.0  0.18550  0.80827  0.84840  1.0000
  C   C10       1.0  0.81450  0.19172  0.84840  1.0000
  C   C11       1.0  0.80828  0.81450  0.15160  1.0000
  C   C12       1.0  0.19173  0.18550  0.15160  1.0000
  C   C13       1.0  0.68550  0.69173  0.34840  1.0000
  C   C14       1.0  0.31450  0.30828  0.34840  1.0000
  C   C15       1.0  0.30827  0.68550  0.65160  1.0000
  C   C16       1.0  0.69172  0.31450  0.65160  1.0000
  C   C17       1.0  0.21341  0.80983  0.93257  1.0000
  C   C18       1.0  0.78659  0.19017  0.93257  1.0000
  C   C19       1.0  0.80983  0.78659  0.06743  1.0000
  C   C20       1.0  0.19017  0.21341  0.06743  1.0000
  C   C21       1.0  0.71341  0.69017  0.43257  1.0000
  C   C22       1.0  0.28659  0.30983  0.43257  1.0000
  C   C23       1.0  0.30983  0.71341  0.56743  1.0000
  C   C24       1.0  0.69017  0.28659  0.56743  1.0000
  C   C25       1.0  0.37133  0.80693  0.96250  1.0000
  C   C26       1.0  0.62867  0.19307  0.96250  1.0000
  C   C27       1.0  0.80693  0.62867  0.03750  1.0000
  C   C28       1.0  0.19307  0.37133  0.03750  1.0000
  C   C29       1.0  0.87133  0.69307  0.46250  1.0000
  C   C30       1.0  0.12867  0.30693  0.46250  1.0000
  C   C31       1.0  0.30693  0.87133  0.53750  1.0000
  C   C32       1.0  0.69307  0.12867  0.53750  1.0000
  C   C33       1.0  0.49773  0.80389  0.90651  1.0000
  C   C34       1.0  0.50227  0.19611  0.90651  1.0000
  C   C35       1.0  0.80389  0.50227  0.09349  1.0000
  C   C36       1.0  0.19611  0.49773  0.09349  1.0000
  C   C37       1.0  0.99773  0.69611  0.40651  1.0000
  C   C38       1.0  0.00227  0.30389  0.40651  1.0000
  C   C39       1.0  0.30389  0.99773  0.59349  1.0000
  C   C40       1.0  0.69611  0.00227  0.59349  1.0000
  C   C41       1.0  0.01520  0.80476  0.81625  1.0000
  C   C42       1.0  0.98480  0.19524  0.81625  1.0000
  C   C43       1.0  0.80476  0.98480  0.18375  1.0000
  C   C44       1.0  0.19524  0.01519  0.18375  1.0000
  C   C45       1.0  0.51520  0.69524  0.31625  1.0000
  C   C46       1.0  0.48480  0.30476  0.31625  1.0000
  C   C47       1.0  0.30476  0.51520  0.68375  1.0000
  C   C48       1.0  0.69524  0.48480  0.68375  1.0000
  N   N1        1.0  0.47296  0.80607  0.82528  1.0000
  N   N2        1.0  0.52704  0.19392  0.82528  1.0000
  N   N3        1.0  0.80608  0.52704  0.17472  1.0000
  N   N4        1.0  0.19392  0.47296  0.17472  1.0000
  N   N5        1.0  0.97296  0.69393  0.32528  1.0000
  N   N6        1.0  0.02704  0.30608  0.32527  1.0000
  N   N7        1.0  0.30608  0.97296  0.67472  1.0000
  N   N8        1.0  0.69392  0.02704  0.67473  1.0000
  O   O1        1.0  0.89779  0.81046  0.86694  1.0000
  O   O2        1.0  0.10221  0.18954  0.86694  1.0000
  O   O3        1.0  0.81046  0.10221  0.13306  1.0000
  O   O4        1.0  0.18954  0.89779  0.13306  1.0000
  O   O5        1.0  0.39779  0.68954  0.36694  1.0000
  O   O6        1.0  0.60221  0.31046  0.36694  1.0000
  O   O7        1.0  0.31046  0.39779  0.63306  1.0000
  O   O8        1.0  0.68954  0.60221  0.63306  1.0000
  O   O9        1.0  0.99546  0.79617  0.73927  1.0000
  O   O10       1.0  0.00454  0.20383  0.73927  1.0000
  O   O11       1.0  0.79617  0.00454  0.26073  1.0000
  O   O12       1.0  0.20383  0.99546  0.26073  1.0000
  O   O13       1.0  0.49546  0.70383  0.23927  1.0000
  O   O14       1.0  0.50454  0.29617  0.23927  1.0000
  O   O15       1.0  0.29617  0.49546  0.76073  1.0000
  O   O16       1.0  0.70383  0.50454  0.76073  1.0000
