data_image0
_chemical_formula_structural       Nd4H24C28S4O32
_chemical_formula_sum              "Nd4 H24 C28 S4 O32"
_cell_length_a       8.17544
_cell_length_b       8.30849
_cell_length_c       18.2875
_cell_angle_alpha    90
_cell_angle_beta     89.9998
_cell_angle_gamma    110.321

_space_group_name_H-M_alt    "P 1"
_space_group_IT_number       1

loop_
  _space_group_symop_operation_xyz
  'x, y, z'

loop_
  _atom_site_type_symbol
  _atom_site_label
  _atom_site_symmetry_multiplicity
  _atom_site_fract_x
  _atom_site_fract_y
  _atom_site_fract_z
  _atom_site_occupancy
  Nd  Nd1       1.0  0.74129  0.21845  0.52008  1.0000
  Nd  Nd2       1.0  0.75872  0.78156  0.02007  1.0000
  Nd  Nd3       1.0  0.25871  0.78155  0.47993  1.0000
  Nd  Nd4       1.0  0.24128  0.21845  0.97993  1.0000
  H   H1        1.0  0.50075  0.24383  0.65120  1.0000
  H   H2        1.0  0.99925  0.75615  0.15120  1.0000
  H   H3        1.0  0.49925  0.75616  0.34880  1.0000
  H   H4        1.0  0.00075  0.24383  0.84880  1.0000
  H   H5        1.0  0.37495  0.16727  0.58262  1.0000
  H   H6        1.0  0.12505  0.83273  0.08262  1.0000
  H   H7        1.0  0.62505  0.83273  0.41738  1.0000
  H   H8        1.0  0.87495  0.16727  0.91738  1.0000
  H   H9        1.0  0.77721  0.60563  0.48745  1.0000
  H   H10       1.0  0.72279  0.39438  0.98745  1.0000
  H   H11       1.0  0.22279  0.39437  0.51255  1.0000
  H   H12       1.0  0.27720  0.60562  0.01255  1.0000
  H   H13       1.0  0.61287  0.51546  0.53924  1.0000
  H   H14       1.0  0.88712  0.48454  0.03924  1.0000
  H   H15       1.0  0.38712  0.48454  0.46076  1.0000
  H   H16       1.0  0.11287  0.51546  0.96076  1.0000
  H   H17       1.0  0.36594  0.55058  0.61701  1.0000
  H   H18       1.0  0.13405  0.44941  0.11701  1.0000
  H   H19       1.0  0.63405  0.44941  0.38299  1.0000
  H   H20       1.0  0.86596  0.55059  0.88299  1.0000
  H   H21       1.0  0.31207  0.38157  0.74366  1.0000
  H   H22       1.0  0.18793  0.61842  0.24366  1.0000
  H   H23       1.0  0.68793  0.61842  0.25634  1.0000
  H   H24       1.0  0.81207  0.38158  0.75634  1.0000
  C   C1        1.0  0.55229  0.76561  0.67425  1.0000
  C   C2        1.0  0.94772  0.23439  0.17425  1.0000
  C   C3        1.0  0.44771  0.23438  0.32575  1.0000
  C   C4        1.0  0.05230  0.76562  0.82575  1.0000
  C   C5        1.0  0.43093  0.60095  0.66812  1.0000
  C   C6        1.0  0.06908  0.39905  0.16812  1.0000
  C   C7        1.0  0.56907  0.39904  0.33188  1.0000
  C   C8        1.0  0.93094  0.60096  0.83188  1.0000
  C   C9        1.0  0.40298  0.51147  0.73487  1.0000
  C   C10       1.0  0.09701  0.48853  0.23487  1.0000
  C   C11       1.0  0.59701  0.48853  0.26513  1.0000
  C   C12       1.0  0.90300  0.51147  0.76513  1.0000
  C   C13       1.0  0.50286  0.60879  0.79128  1.0000
  C   C14       1.0  0.99716  0.39121  0.29129  1.0000
  C   C15       1.0  0.49715  0.39121  0.20871  1.0000
  C   C16       1.0  0.00285  0.60879  0.70871  1.0000
  C   C17       1.0  0.60560  0.90022  0.61779  1.0000
  C   C18       1.0  0.89440  0.09978  0.11779  1.0000
  C   C19       1.0  0.39439  0.09978  0.38221  1.0000
  C   C20       1.0  0.10561  0.90022  0.88221  1.0000
  C   C21       1.0  0.49845  0.55555  0.86862  1.0000
  C   C22       1.0  0.00157  0.44446  0.36862  1.0000
  C   C23       1.0  0.50156  0.44446  0.13138  1.0000
  C   C24       1.0  0.99844  0.55555  0.63138  1.0000
  C   C25       1.0  0.07315  0.07090  0.52057  1.0000
  C   C26       1.0  0.42684  0.92910  0.02058  1.0000
  C   C27       1.0  0.92684  0.92910  0.47942  1.0000
  C   C28       1.0  0.57315  0.07091  0.97943  1.0000
  S   S1        1.0  0.63390  0.80848  0.76187  1.0000
  S   S2        1.0  0.86611  0.19152  0.26187  1.0000
  S   S3        1.0  0.36611  0.19152  0.23813  1.0000
  S   S4        1.0  0.13390  0.80848  0.73813  1.0000
  O   O1        1.0  0.51163  0.88449  0.55979  1.0000
  O   O2        1.0  0.98837  0.11551  0.05979  1.0000
  O   O3        1.0  0.48837  0.11551  0.44021  1.0000
  O   O4        1.0  0.01163  0.88449  0.94021  1.0000
  O   O5        1.0  0.74157  0.03134  0.62780  1.0000
  O   O6        1.0  0.75842  0.96866  0.12780  1.0000
  O   O7        1.0  0.25842  0.96866  0.37220  1.0000
  O   O8        1.0  0.24158  0.03134  0.87219  1.0000
  O   O9        1.0  0.38409  0.41261  0.88554  1.0000
  O   O10       1.0  0.11593  0.58740  0.38553  1.0000
  O   O11       1.0  0.61592  0.58740  0.11447  1.0000
  O   O12       1.0  0.88407  0.41261  0.61447  1.0000
  O   O13       1.0  0.60747  0.65486  0.91287  1.0000
  O   O14       1.0  0.89256  0.34516  0.41287  1.0000
  O   O15       1.0  0.39255  0.34516  0.08713  1.0000
  O   O16       1.0  0.10745  0.65485  0.58713  1.0000
  O   O17       1.0  0.05136  0.21249  0.53098  1.0000
  O   O18       1.0  0.44863  0.78750  0.03098  1.0000
  O   O19       1.0  0.94863  0.78751  0.46902  1.0000
  O   O20       1.0  0.55136  0.21249  0.96902  1.0000
  O   O21       1.0  0.20431  0.03328  0.54000  1.0000
  O   O22       1.0  0.29567  0.96673  0.04001  1.0000
  O   O23       1.0  0.79568  0.96673  0.45999  1.0000
  O   O24       1.0  0.70432  0.03328  0.96000  1.0000
  O   O25       1.0  0.49480  0.24346  0.59816  1.0000
  O   O26       1.0  0.00520  0.75654  0.09816  1.0000
  O   O27       1.0  0.50520  0.75654  0.40184  1.0000
  O   O28       1.0  0.99480  0.24346  0.90184  1.0000
  O   O29       1.0  0.68138  0.49561  0.49883  1.0000
  O   O30       1.0  0.81862  0.50439  0.99883  1.0000
  O   O31       1.0  0.31862  0.50438  0.50117  1.0000
  O   O32       1.0  0.18138  0.49561  0.00116  1.0000
