data_image0
_chemical_formula_structural       Gd4H24C28S4O32
_chemical_formula_sum              "Gd4 H24 C28 S4 O32"
_cell_length_a       7.99243
_cell_length_b       8.25859
_cell_length_c       18.1596
_cell_angle_alpha    90.0005
_cell_angle_beta     89.9995
_cell_angle_gamma    108.883

_space_group_name_H-M_alt    "P 1"
_space_group_IT_number       1

loop_
  _space_group_symop_operation_xyz
  'x, y, z'

loop_
  _atom_site_type_symbol
  _atom_site_label
  _atom_site_symmetry_multiplicity
  _atom_site_fract_x
  _atom_site_fract_y
  _atom_site_fract_z
  _atom_site_occupancy
  Gd  Gd1       1.0  0.25004  0.22829  0.48001  1.0000
  Gd  Gd2       1.0  0.24996  0.77171  0.98001  1.0000
  Gd  Gd3       1.0  0.74995  0.77171  0.51999  1.0000
  Gd  Gd4       1.0  0.75005  0.22828  0.01999  1.0000
  H   H1        1.0  0.00996  0.22795  0.35221  1.0000
  H   H2        1.0  0.49003  0.77205  0.85221  1.0000
  H   H3        1.0  0.99002  0.77205  0.64779  1.0000
  H   H4        1.0  0.50997  0.22795  0.14779  1.0000
  H   H5        1.0  0.88181  0.16068  0.42138  1.0000
  H   H6        1.0  0.61819  0.83932  0.92137  1.0000
  H   H7        1.0  0.11818  0.83931  0.57863  1.0000
  H   H8        1.0  0.38181  0.16068  0.07862  1.0000
  H   H9        1.0  0.28045  0.60926  0.51229  1.0000
  H   H10       1.0  0.21955  0.39074  0.01229  1.0000
  H   H11       1.0  0.71955  0.39074  0.48771  1.0000
  H   H12       1.0  0.78045  0.60926  0.98771  1.0000
  H   H13       1.0  0.11546  0.52096  0.45964  1.0000
  H   H14       1.0  0.38455  0.47905  0.95965  1.0000
  H   H15       1.0  0.88454  0.47904  0.54035  1.0000
  H   H16       1.0  0.61546  0.52095  0.04035  1.0000
  H   H17       1.0  0.86794  0.54232  0.38406  1.0000
  H   H18       1.0  0.63207  0.45768  0.88406  1.0000
  H   H19       1.0  0.13206  0.45769  0.61594  1.0000
  H   H20       1.0  0.36793  0.54232  0.11594  1.0000
  H   H21       1.0  0.81850  0.37610  0.25604  1.0000
  H   H22       1.0  0.68150  0.62390  0.75604  1.0000
  H   H23       1.0  0.18150  0.62391  0.74396  1.0000
  H   H24       1.0  0.31850  0.37610  0.24396  1.0000
  C   C1        1.0  0.04786  0.76006  0.32678  1.0000
  C   C2        1.0  0.45214  0.23993  0.82678  1.0000
  C   C3        1.0  0.95215  0.23994  0.67323  1.0000
  C   C4        1.0  0.54785  0.76007  0.17323  1.0000
  C   C5        1.0  0.93148  0.59419  0.33250  1.0000
  C   C6        1.0  0.56853  0.40580  0.83249  1.0000
  C   C7        1.0  0.06852  0.40581  0.66750  1.0000
  C   C8        1.0  0.43147  0.59420  0.16751  1.0000
  C   C9        1.0  0.90561  0.50643  0.26501  1.0000
  C   C10       1.0  0.59439  0.49357  0.76501  1.0000
  C   C11       1.0  0.09438  0.49358  0.73499  1.0000
  C   C12       1.0  0.40561  0.50643  0.23499  1.0000
  C   C13       1.0  0.00145  0.60617  0.20811  1.0000
  C   C14       1.0  0.49855  0.39383  0.70811  1.0000
  C   C15       1.0  0.99856  0.39384  0.79190  1.0000
  C   C16       1.0  0.50145  0.60617  0.29189  1.0000
  C   C17       1.0  0.09192  0.88997  0.38588  1.0000
  C   C18       1.0  0.40808  0.11003  0.88588  1.0000
  C   C19       1.0  0.90808  0.11004  0.61412  1.0000
  C   C20       1.0  0.59192  0.88997  0.11412  1.0000
  C   C21       1.0  0.99611  0.55272  0.13031  1.0000
  C   C22       1.0  0.50388  0.44728  0.63031  1.0000
  C   C23       1.0  0.00389  0.44728  0.86969  1.0000
  C   C24       1.0  0.49611  0.55272  0.36969  1.0000
  C   C25       1.0  0.57449  0.06747  0.47886  1.0000
  C   C26       1.0  0.92552  0.93251  0.97886  1.0000
  C   C27       1.0  0.42550  0.93252  0.52114  1.0000
  C   C28       1.0  0.07448  0.06748  0.02114  1.0000
  S   S1        1.0  0.12688  0.80632  0.23826  1.0000
  S   S2        1.0  0.37312  0.19367  0.73827  1.0000
  S   S3        1.0  0.87312  0.19368  0.76174  1.0000
  S   S4        1.0  0.62688  0.80632  0.26174  1.0000
  O   O1        1.0  0.22361  0.02581  0.37858  1.0000
  O   O2        1.0  0.27639  0.97419  0.87858  1.0000
  O   O3        1.0  0.77639  0.97420  0.62142  1.0000
  O   O4        1.0  0.72360  0.02580  0.12142  1.0000
  O   O5        1.0  0.99219  0.86114  0.44292  1.0000
  O   O6        1.0  0.50782  0.13886  0.94292  1.0000
  O   O7        1.0  0.00781  0.13887  0.55708  1.0000
  O   O8        1.0  0.49219  0.86114  0.05708  1.0000
  O   O9        1.0  0.88696  0.40679  0.11473  1.0000
  O   O10       1.0  0.61304  0.59320  0.61473  1.0000
  O   O11       1.0  0.11304  0.59321  0.88527  1.0000
  O   O12       1.0  0.38696  0.40679  0.38527  1.0000
  O   O13       1.0  0.09803  0.65352  0.08424  1.0000
  O   O14       1.0  0.40196  0.34648  0.58424  1.0000
  O   O15       1.0  0.90196  0.34648  0.91576  1.0000
  O   O16       1.0  0.59804  0.65351  0.41576  1.0000
  O   O17       1.0  0.55245  0.20958  0.46587  1.0000
  O   O18       1.0  0.94755  0.79042  0.96586  1.0000
  O   O19       1.0  0.44754  0.79041  0.53414  1.0000
  O   O20       1.0  0.05246  0.20957  0.03413  1.0000
  O   O21       1.0  0.70764  0.02453  0.46117  1.0000
  O   O22       1.0  0.79235  0.97547  0.96116  1.0000
  O   O23       1.0  0.29235  0.97546  0.53883  1.0000
  O   O24       1.0  0.20766  0.02454  0.03884  1.0000
  O   O25       1.0  0.99944  0.24165  0.40497  1.0000
  O   O26       1.0  0.50057  0.75835  0.90497  1.0000
  O   O27       1.0  0.00055  0.75834  0.59503  1.0000
  O   O28       1.0  0.49944  0.24166  0.09503  1.0000
  O   O29       1.0  0.18764  0.49939  0.49933  1.0000
  O   O30       1.0  0.31237  0.50061  0.99933  1.0000
  O   O31       1.0  0.81237  0.50061  0.50067  1.0000
  O   O32       1.0  0.68763  0.49939  0.00067  1.0000
