data_image0
_chemical_formula_structural       Dy4H24C28S4O32
_chemical_formula_sum              "Dy4 H24 C28 S4 O32"
_cell_length_a       9.69036
_cell_length_b       10.857
_cell_length_c       12.4122
_cell_angle_alpha    105.193
_cell_angle_beta     90.0017
_cell_angle_gamma    116.503

_space_group_name_H-M_alt    "P 1"
_space_group_IT_number       1

loop_
  _space_group_symop_operation_xyz
  'x, y, z'

loop_
  _atom_site_type_symbol
  _atom_site_label
  _atom_site_symmetry_multiplicity
  _atom_site_fract_x
  _atom_site_fract_y
  _atom_site_fract_z
  _atom_site_occupancy
  Dy  Dy1       1.0  0.97961  0.99999  0.25000  1.0000
  Dy  Dy2       1.0  0.02040  0.00001  0.75001  1.0000
  Dy  Dy3       1.0  0.48191  0.99996  0.25002  1.0000
  Dy  Dy4       1.0  0.51809  0.00005  0.74998  1.0000
  H   H1        1.0  0.51866  0.28165  0.40219  1.0000
  H   H2        1.0  0.23690  0.71819  0.09776  1.0000
  H   H3        1.0  0.48134  0.71834  0.59781  1.0000
  H   H4        1.0  0.76310  0.28181  0.90224  1.0000
  H   H5        1.0  0.34998  0.16689  0.41697  1.0000
  H   H6        1.0  0.18301  0.83296  0.08297  1.0000
  H   H7        1.0  0.65002  0.83310  0.58303  1.0000
  H   H8        1.0  0.81700  0.16704  0.91704  1.0000
  H   H9        1.0  0.67479  0.95157  0.40590  1.0000
  H   H10       1.0  0.72316  0.04834  0.09411  1.0000
  H   H11       1.0  0.32521  0.04843  0.59410  1.0000
  H   H12       1.0  0.27684  0.95166  0.90589  1.0000
  H   H13       1.0  0.62570  0.05400  0.49265  1.0000
  H   H14       1.0  0.57163  0.94596  0.00735  1.0000
  H   H15       1.0  0.37431  0.94600  0.50735  1.0000
  H   H16       1.0  0.42838  0.05404  0.99265  1.0000
  H   H17       1.0  0.76326  0.58223  0.09538  1.0000
  H   H18       1.0  0.18104  0.41773  0.40463  1.0000
  H   H19       1.0  0.23674  0.41777  0.90461  1.0000
  H   H20       1.0  0.81896  0.58227  0.59537  1.0000
  H   H21       1.0  0.62870  0.30742  0.09652  1.0000
  H   H22       1.0  0.32119  0.69259  0.40356  1.0000
  H   H23       1.0  0.37129  0.69258  0.90348  1.0000
  H   H24       1.0  0.67881  0.30741  0.59644  1.0000
  C   C1        1.0  0.55741  0.59219  0.15577  1.0000
  C   C2        1.0  0.96518  0.40778  0.34430  1.0000
  C   C3        1.0  0.44260  0.40782  0.84423  1.0000
  C   C4        1.0  0.03482  0.59222  0.65570  1.0000
  C   C5        1.0  0.64824  0.52479  0.11823  1.0000
  C   C6        1.0  0.12341  0.47516  0.38184  1.0000
  C   C7        1.0  0.35176  0.47521  0.88177  1.0000
  C   C8        1.0  0.87660  0.52484  0.61816  1.0000
  C   C9        1.0  0.57712  0.38005  0.11895  1.0000
  C   C10       1.0  0.19700  0.61992  0.38116  1.0000
  C   C11       1.0  0.42288  0.61996  0.88105  1.0000
  C   C12       1.0  0.80301  0.38008  0.61884  1.0000
  C   C13       1.0  0.43332  0.33957  0.15784  1.0000
  C   C14       1.0  0.09364  0.66041  0.34231  1.0000
  C   C15       1.0  0.56668  0.66043  0.84216  1.0000
  C   C16       1.0  0.90636  0.33959  0.65769  1.0000
  C   C17       1.0  0.59904  0.74545  0.17657  1.0000
  C   C18       1.0  0.85361  0.25452  0.32350  1.0000
  C   C19       1.0  0.40097  0.25455  0.82343  1.0000
  C   C20       1.0  0.14640  0.74548  0.67650  1.0000
  C   C21       1.0  0.33585  0.20275  0.18197  1.0000
  C   C22       1.0  0.13309  0.79721  0.31811  1.0000
  C   C23       1.0  0.66415  0.79725  0.81803  1.0000
  C   C24       1.0  0.86691  0.20278  0.68189  1.0000
  C   C25       1.0  0.91114  0.94765  0.49154  1.0000
  C   C26       1.0  0.96349  0.05234  0.00845  1.0000
  C   C27       1.0  0.08886  0.05234  0.50846  1.0000
  C   C28       1.0  0.03650  0.94766  0.99154  1.0000
  S   S1        1.0  0.38451  0.47796  0.19056  1.0000
  S   S2        1.0  0.90645  0.52197  0.30950  1.0000
  S   S3        1.0  0.61549  0.52204  0.80944  1.0000
  S   S4        1.0  0.09355  0.47802  0.69050  1.0000
  O   O1        1.0  0.73730  0.83032  0.16681  1.0000
  O   O2        1.0  0.90706  0.16968  0.33325  1.0000
  O   O3        1.0  0.26270  0.16968  0.83319  1.0000
  O   O4        1.0  0.09295  0.83032  0.66675  1.0000
  O   O5        1.0  0.49444  0.78372  0.20574  1.0000
  O   O6        1.0  0.71072  0.21622  0.29442  1.0000
  O   O7        1.0  0.50557  0.21629  0.79427  1.0000
  O   O8        1.0  0.28928  0.78378  0.70558  1.0000
  O   O9        1.0  0.38293  0.10687  0.15660  1.0000
  O   O10       1.0  0.27608  0.89304  0.34348  1.0000
  O   O11       1.0  0.61706  0.89313  0.84340  1.0000
  O   O12       1.0  0.72392  0.10696  0.65652  1.0000
  O   O13       1.0  0.21440  0.18789  0.22780  1.0000
  O   O14       1.0  0.02660  0.81213  0.27219  1.0000
  O   O15       1.0  0.78561  0.81211  0.77220  1.0000
  O   O16       1.0  0.97340  0.18786  0.72781  1.0000
  O   O17       1.0  0.83518  0.91871  0.39786  1.0000
  O   O18       1.0  0.91648  0.08127  0.10214  1.0000
  O   O19       1.0  0.16481  0.08128  0.60214  1.0000
  O   O20       1.0  0.08351  0.91873  0.89787  1.0000
  O   O21       1.0  0.85544  0.90035  0.57314  1.0000
  O   O22       1.0  0.95509  0.09965  0.92687  1.0000
  O   O23       1.0  0.14455  0.09964  0.42686  1.0000
  O   O24       1.0  0.04491  0.90035  0.07313  1.0000
  O   O25       1.0  0.45709  0.18291  0.40354  1.0000
  O   O26       1.0  0.27410  0.81691  0.09636  1.0000
  O   O27       1.0  0.54291  0.81709  0.59646  1.0000
  O   O28       1.0  0.72590  0.18309  0.90364  1.0000
  O   O29       1.0  0.60023  0.99178  0.41468  1.0000
  O   O30       1.0  0.60839  0.00812  0.08533  1.0000
  O   O31       1.0  0.39977  0.00822  0.58532  1.0000
  O   O32       1.0  0.39161  0.99188  0.91466  1.0000
