data_image0
_chemical_formula_structural       Er4H24C28S4O32
_chemical_formula_sum              "Er4 H24 C28 S4 O32"
_cell_length_a       9.76019
_cell_length_b       10.8323
_cell_length_c       12.2327
_cell_angle_alpha    103.397
_cell_angle_beta     89.9965
_cell_angle_gamma    116.724

_space_group_name_H-M_alt    "P 1"
_space_group_IT_number       1

loop_
  _space_group_symop_operation_xyz
  'x, y, z'

loop_
  _atom_site_type_symbol
  _atom_site_label
  _atom_site_symmetry_multiplicity
  _atom_site_fract_x
  _atom_site_fract_y
  _atom_site_fract_z
  _atom_site_occupancy
  Er  Er1       1.0  0.48640  0.99991  0.24999  1.0000
  Er  Er2       1.0  0.51360  0.00007  0.75000  1.0000
  Er  Er3       1.0  0.98085  0.00016  0.25011  1.0000
  Er  Er4       1.0  0.01914  0.99985  0.74990  1.0000
  H   H1        1.0  0.08871  0.94086  0.00239  1.0000
  H   H2        1.0  0.14783  0.05919  0.49781  1.0000
  H   H3        1.0  0.91130  0.05913  0.99761  1.0000
  H   H4        1.0  0.85218  0.94082  0.50220  1.0000
  H   H5        1.0  0.22692  0.04317  0.09718  1.0000
  H   H6        1.0  0.18397  0.95710  0.40280  1.0000
  H   H7        1.0  0.77309  0.95682  0.90282  1.0000
  H   H8        1.0  0.81606  0.04292  0.59721  1.0000
  H   H9        1.0  0.82217  0.85102  0.02308  1.0000
  H   H10       1.0  0.97094  0.14901  0.47720  1.0000
  H   H11       1.0  0.17784  0.14899  0.97692  1.0000
  H   H12       1.0  0.02907  0.85100  0.52280  1.0000
  H   H13       1.0  0.68947  0.83861  0.09371  1.0000
  H   H14       1.0  0.85064  0.16151  0.40663  1.0000
  H   H15       1.0  0.31052  0.16137  0.90629  1.0000
  H   H16       1.0  0.14935  0.83849  0.59337  1.0000
  H   H17       1.0  0.67275  0.40718  0.41081  1.0000
  H   H18       1.0  0.26541  0.59199  0.08941  1.0000
  H   H19       1.0  0.32722  0.59281  0.58921  1.0000
  H   H20       1.0  0.73459  0.40804  0.91058  1.0000
  H   H21       1.0  0.81222  0.68019  0.40755  1.0000
  H   H22       1.0  0.13136  0.31902  0.09294  1.0000
  H   H23       1.0  0.18778  0.31981  0.59248  1.0000
  H   H24       1.0  0.86865  0.68099  0.90704  1.0000
  C   C1        1.0  0.46103  0.39644  0.34222  1.0000
  C   C2        1.0  0.06460  0.60345  0.15769  1.0000
  C   C3        1.0  0.53895  0.60357  0.65779  1.0000
  C   C4        1.0  0.93539  0.39655  0.84230  1.0000
  C   C5        1.0  0.61632  0.46393  0.38431  1.0000
  C   C6        1.0  0.15219  0.53552  0.11581  1.0000
  C   C7        1.0  0.38366  0.53607  0.61572  1.0000
  C   C8        1.0  0.84781  0.46449  0.88418  1.0000
  C   C9        1.0  0.68962  0.60872  0.38298  1.0000
  C   C10       1.0  0.08042  0.39078  0.11728  1.0000
  C   C11       1.0  0.31037  0.39128  0.61705  1.0000
  C   C12       1.0  0.91958  0.60923  0.88270  1.0000
  C   C13       1.0  0.58971  0.65003  0.33981  1.0000
  C   C14       1.0  0.93916  0.34990  0.16028  1.0000
  C   C15       1.0  0.41030  0.34999  0.66022  1.0000
  C   C16       1.0  0.06084  0.65009  0.83969  1.0000
  C   C17       1.0  0.35461  0.24246  0.32039  1.0000
  C   C18       1.0  0.11249  0.75757  0.17957  1.0000
  C   C19       1.0  0.64539  0.75756  0.67960  1.0000
  C   C20       1.0  0.88750  0.24244  0.82044  1.0000
  C   C21       1.0  0.63305  0.78853  0.31485  1.0000
  C   C22       1.0  0.84385  0.21154  0.18529  1.0000
  C   C23       1.0  0.36696  0.21148  0.68517  1.0000
  C   C24       1.0  0.15615  0.78845  0.81469  1.0000
  C   C25       1.0  0.46376  0.05192  0.00780  1.0000
  C   C26       1.0  0.41196  0.94800  0.49219  1.0000
  C   C27       1.0  0.53623  0.94806  0.99220  1.0000
  C   C28       1.0  0.58805  0.05202  0.50780  1.0000
  S   S1        1.0  0.40469  0.51142  0.30381  1.0000
  S   S2        1.0  0.89309  0.48888  0.19598  1.0000
  S   S3        1.0  0.59530  0.48858  0.69620  1.0000
  S   S4        1.0  0.10690  0.51111  0.80401  1.0000
  O   O1        1.0  0.41114  0.16187  0.33673  1.0000
  O   O2        1.0  0.24958  0.83778  0.16323  1.0000
  O   O3        1.0  0.58885  0.83813  0.66325  1.0000
  O   O4        1.0  0.75041  0.16222  0.83677  1.0000
  O   O5        1.0  0.21369  0.19790  0.28441  1.0000
  O   O6        1.0  0.01636  0.80251  0.21560  1.0000
  O   O7        1.0  0.78631  0.80210  0.71559  1.0000
  O   O8        1.0  0.98364  0.19750  0.78442  1.0000
  O   O9        1.0  0.77707  0.88105  0.33928  1.0000
  O   O10       1.0  0.89532  0.11884  0.16111  1.0000
  O   O11       1.0  0.22295  0.11896  0.66073  1.0000
  O   O12       1.0  0.10470  0.88115  0.83888  1.0000
  O   O13       1.0  0.53141  0.81051  0.27067  1.0000
  O   O14       1.0  0.72013  0.18966  0.22923  1.0000
  O   O15       1.0  0.46860  0.18949  0.72932  1.0000
  O   O16       1.0  0.27986  0.81031  0.77074  1.0000
  O   O17       1.0  0.42506  0.08635  0.10427  1.0000
  O   O18       1.0  0.33888  0.91339  0.39569  1.0000
  O   O19       1.0  0.57493  0.91362  0.89573  1.0000
  O   O20       1.0  0.66114  0.08663  0.60430  1.0000
  O   O21       1.0  0.44693  0.09290  0.92227  1.0000
  O   O22       1.0  0.35422  0.90701  0.57772  1.0000
  O   O23       1.0  0.55304  0.90707  0.07772  1.0000
  O   O24       1.0  0.64577  0.09299  0.42228  1.0000
  O   O25       1.0  0.11629  0.01366  0.07539  1.0000
  O   O26       1.0  0.10284  0.98662  0.42467  1.0000
  O   O27       1.0  0.88372  0.98633  0.92461  1.0000
  O   O28       1.0  0.89718  0.01339  0.57534  1.0000
  O   O29       1.0  0.78411  0.82580  0.09328  1.0000
  O   O30       1.0  0.95807  0.17435  0.40706  1.0000
  O   O31       1.0  0.21591  0.17420  0.90672  1.0000
  O   O32       1.0  0.04193  0.82565  0.59294  1.0000
