data_image0
_chemical_formula_structural       ZnH50C28N4O4
_chemical_formula_sum              "Zn1 H50 C28 N4 O4"
_cell_length_a       8.86072
_cell_length_b       10.1111
_cell_length_c       10.3044
_cell_angle_alpha    63.873
_cell_angle_beta     88.0687
_cell_angle_gamma    66.6287

_space_group_name_H-M_alt    "P 1"
_space_group_IT_number       1

loop_
  _space_group_symop_operation_xyz
  'x, y, z'

loop_
  _atom_site_type_symbol
  _atom_site_label
  _atom_site_symmetry_multiplicity
  _atom_site_fract_x
  _atom_site_fract_y
  _atom_site_fract_z
  _atom_site_occupancy
  Zn  Zn1       1.0  0.50000  0.50000  0.50000  1.0000
  H   H1        1.0  0.23035  0.48890  0.48150  1.0000
  H   H2        1.0  0.76965  0.51110  0.51850  1.0000
  H   H3        1.0  0.47629  0.58606  0.69869  1.0000
  H   H4        1.0  0.52371  0.41394  0.30132  1.0000
  H   H5        1.0  0.32293  0.40731  0.78663  1.0000
  H   H6        1.0  0.67707  0.59269  0.21337  1.0000
  H   H7        1.0  0.98214  0.56021  0.59617  1.0000
  H   H8        1.0  0.01786  0.43979  0.40383  1.0000
  H   H9        1.0  0.07263  0.36306  0.74781  1.0000
  H   H10       1.0  0.92737  0.63694  0.25219  1.0000
  H   H11       1.0  0.86648  0.55611  0.82323  1.0000
  H   H12       1.0  0.13352  0.44389  0.17676  1.0000
  H   H13       1.0  0.06985  0.48068  0.91520  1.0000
  H   H14       1.0  0.93015  0.51933  0.08480  1.0000
  H   H15       1.0  0.92648  0.78137  0.82262  1.0000
  H   H16       1.0  0.07352  0.21863  0.17737  1.0000
  H   H17       1.0  0.88991  0.81061  0.64251  1.0000
  H   H18       1.0  0.11009  0.18939  0.35749  1.0000
  H   H19       1.0  0.23365  0.65917  0.83071  1.0000
  H   H20       1.0  0.76635  0.34083  0.16929  1.0000
  H   H21       1.0  0.13803  0.85547  0.67816  1.0000
  H   H22       1.0  0.86197  0.14453  0.32183  1.0000
  H   H23       1.0  0.14733  0.73380  0.51226  1.0000
  H   H24       1.0  0.85267  0.26620  0.48774  1.0000
  H   H25       1.0  0.34716  0.88797  0.57206  1.0000
  H   H26       1.0  0.65285  0.11203  0.42794  1.0000
  H   H27       1.0  0.31574  0.87661  0.40902  1.0000
  H   H28       1.0  0.68426  0.12339  0.59098  1.0000
  H   H29       1.0  0.65967  0.71005  0.60125  1.0000
  H   H30       1.0  0.34033  0.28995  0.39875  1.0000
  H   H31       1.0  0.57512  0.91596  0.46819  1.0000
  H   H32       1.0  0.42488  0.08404  0.53181  1.0000
  H   H33       1.0  0.77046  0.76835  0.37022  1.0000
  H   H34       1.0  0.22954  0.23165  0.62978  1.0000
  H   H35       1.0  0.51067  0.99691  0.20015  1.0000
  H   H36       1.0  0.48934  0.00309  0.79985  1.0000
  H   H37       1.0  0.42824  0.85491  0.21967  1.0000
  H   H38       1.0  0.57176  0.14510  0.78033  1.0000
  H   H39       1.0  0.60821  0.85180  0.13688  1.0000
  H   H40       1.0  0.39179  0.14820  0.86312  1.0000
  H   H41       1.0  0.03926  0.77488  0.04523  1.0000
  H   H42       1.0  0.96074  0.22512  0.95477  1.0000
  H   H43       1.0  0.23565  0.97770  0.99330  1.0000
  H   H44       1.0  0.76435  0.02229  0.00671  1.0000
  H   H45       1.0  0.24217  0.86098  0.90425  1.0000
  H   H46       1.0  0.75783  0.13902  0.09575  1.0000
  H   H47       1.0  0.93744  0.03440  0.79879  1.0000
  H   H48       1.0  0.06257  0.96560  0.20121  1.0000
  H   H49       1.0  0.04643  0.15661  0.74807  1.0000
  H   H50       1.0  0.95357  0.84339  0.25194  1.0000
  C   C1        1.0  0.23650  0.48462  0.68096  1.0000
  C   C2        1.0  0.76350  0.51538  0.31904  1.0000
  C   C3        1.0  0.06425  0.48683  0.70446  1.0000
  C   C4        1.0  0.93575  0.51317  0.29554  1.0000
  C   C5        1.0  0.98886  0.55854  0.80684  1.0000
  C   C6        1.0  0.01114  0.44146  0.19315  1.0000
  C   C7        1.0  0.97767  0.73029  0.74765  1.0000
  C   C8        1.0  0.02232  0.26972  0.25235  1.0000
  C   C9        1.0  0.14904  0.73044  0.72412  1.0000
  C   C10       1.0  0.85096  0.26956  0.27587  1.0000
  C   C11       1.0  0.22699  0.65789  0.62181  1.0000
  C   C12       1.0  0.77301  0.34211  0.37819  1.0000
  C   C13       1.0  0.39798  0.81259  0.51559  1.0000
  C   C14       1.0  0.60202  0.18741  0.48441  1.0000
  C   C15       1.0  0.57537  0.79789  0.49517  1.0000
  C   C16       1.0  0.42463  0.20211  0.50483  1.0000
  C   C17       1.0  0.65216  0.75447  0.37511  1.0000
  C   C18       1.0  0.34784  0.24553  0.62489  1.0000
  C   C19       1.0  0.54312  0.87075  0.22404  1.0000
  C   C20       1.0  0.45688  0.12925  0.77596  1.0000
  C   C21       1.0  0.26204  0.67672  0.19358  1.0000
  C   C22       1.0  0.73796  0.32328  0.80642  1.0000
  C   C23       1.0  0.10719  0.82321  0.08677  1.0000
  C   C24       1.0  0.89281  0.17679  0.91323  1.0000
  C   C25       1.0  0.16074  0.93331  0.95419  1.0000
  C   C26       1.0  0.83926  0.06668  0.04581  1.0000
  C   C27       1.0  0.00844  0.07774  0.84326  1.0000
  C   C28       1.0  0.99156  0.92226  0.15674  1.0000
  N   N1        1.0  0.31016  0.41774  0.58021  1.0000
  N   N2        1.0  0.68984  0.58226  0.41979  1.0000
  N   N3        1.0  0.39427  0.65291  0.59873  1.0000
  N   N4        1.0  0.60573  0.34709  0.40127  1.0000
  O   O1        1.0  0.30143  0.68183  0.30971  1.0000
  O   O2        1.0  0.69857  0.31817  0.69028  1.0000
  O   O3        1.0  0.34080  0.56420  0.16034  1.0000
  O   O4        1.0  0.65919  0.43579  0.83966  1.0000
