data_image0
_chemical_formula_structural       Er2H58C52N4O16
_chemical_formula_sum              "Er2 H58 C52 N4 O16"
_cell_length_a       10.8029
_cell_length_b       11.4465
_cell_length_c       12.608
_cell_angle_alpha    110.739
_cell_angle_beta     100.655
_cell_angle_gamma    109.971

_space_group_name_H-M_alt    "P 1"
_space_group_IT_number       1

loop_
  _space_group_symop_operation_xyz
  'x, y, z'

loop_
  _atom_site_type_symbol
  _atom_site_label
  _atom_site_symmetry_multiplicity
  _atom_site_fract_x
  _atom_site_fract_y
  _atom_site_fract_z
  _atom_site_occupancy
  Er  Er1       1.0  0.90276  0.61360  0.56859  1.0000
  Er  Er2       1.0  0.09725  0.38640  0.43141  1.0000
  H   H1        1.0  0.49665  0.45760  0.77552  1.0000
  H   H2        1.0  0.50334  0.54240  0.22448  1.0000
  H   H3        1.0  0.53441  0.73685  0.61692  1.0000
  H   H4        1.0  0.46560  0.26315  0.38309  1.0000
  H   H5        1.0  0.47196  0.61601  0.46525  1.0000
  H   H6        1.0  0.52805  0.38399  0.53476  1.0000
  H   H7        1.0  0.48006  0.83216  0.46448  1.0000
  H   H8        1.0  0.51994  0.16784  0.53553  1.0000
  H   H9        1.0  0.61652  0.80637  0.41751  1.0000
  H   H10       1.0  0.38348  0.19363  0.58250  1.0000
  H   H11       1.0  0.78233  0.96620  0.63915  1.0000
  H   H12       1.0  0.21767  0.03380  0.36086  1.0000
  H   H13       1.0  0.64542  0.00961  0.66707  1.0000
  H   H14       1.0  0.35458  0.99039  0.33293  1.0000
  H   H15       1.0  0.64329  0.08202  0.49498  1.0000
  H   H16       1.0  0.35670  0.91798  0.50502  1.0000
  H   H17       1.0  0.79077  0.05167  0.48734  1.0000
  H   H18       1.0  0.20923  0.94832  0.51265  1.0000
  H   H19       1.0  0.77478  0.26954  0.70563  1.0000
  H   H20       1.0  0.22522  0.73046  0.29436  1.0000
  H   H21       1.0  0.92138  0.22989  0.70789  1.0000
  H   H22       1.0  0.07861  0.77010  0.29211  1.0000
  H   H23       1.0  0.43590  0.76273  0.82257  1.0000
  H   H24       1.0  0.56409  0.23727  0.17743  1.0000
  H   H25       1.0  0.29033  0.79163  0.85130  1.0000
  H   H26       1.0  0.70966  0.20837  0.14870  1.0000
  H   H27       1.0  0.44091  0.87951  0.68881  1.0000
  H   H28       1.0  0.55909  0.12050  0.31119  1.0000
  H   H29       1.0  0.28883  0.89616  0.70523  1.0000
  H   H30       1.0  0.71117  0.10385  0.29477  1.0000
  H   H31       1.0  0.57400  0.04342  0.91043  1.0000
  H   H32       1.0  0.42600  0.95658  0.08958  1.0000
  H   H33       1.0  0.41930  0.05391  0.92779  1.0000
  H   H34       1.0  0.58070  0.94609  0.07221  1.0000
  H   H35       1.0  0.57420  0.15107  0.77126  1.0000
  H   H36       1.0  0.42581  0.84892  0.22874  1.0000
  H   H37       1.0  0.40527  0.13703  0.76297  1.0000
  H   H38       1.0  0.59473  0.86297  0.23703  1.0000
  H   H39       1.0  0.66999  0.32784  0.99216  1.0000
  H   H40       1.0  0.33001  0.67217  0.00783  1.0000
  H   H41       1.0  0.49740  0.30478  0.98380  1.0000
  H   H42       1.0  0.50261  0.69523  0.01620  1.0000
  H   H43       1.0  0.99998  0.90559  0.54029  1.0000
  H   H44       1.0  0.00003  0.09441  0.45972  1.0000
  H   H45       1.0  0.13346  0.16851  0.65050  1.0000
  H   H46       1.0  0.86656  0.83149  0.34950  1.0000
  H   H47       1.0  0.23525  0.28356  0.87732  1.0000
  H   H48       1.0  0.76476  0.71644  0.12268  1.0000
  H   H49       1.0  0.27464  0.25967  0.06822  1.0000
  H   H50       1.0  0.72536  0.74033  0.93178  1.0000
  H   H51       1.0  0.24513  0.10896  0.17128  1.0000
  H   H52       1.0  0.75486  0.89105  0.82872  1.0000
  H   H53       1.0  0.14467  0.86941  0.15797  1.0000
  H   H54       1.0  0.85532  0.13059  0.84203  1.0000
  H   H55       1.0  0.99149  0.61270  0.02867  1.0000
  H   H56       1.0  0.00850  0.38730  0.97133  1.0000
  H   H57       1.0  0.89313  0.52231  0.80379  1.0000
  H   H58       1.0  0.10688  0.47769  0.19621  1.0000
  C   C1        1.0  0.68911  0.68892  0.55290  1.0000
  C   C2        1.0  0.31090  0.31109  0.44711  1.0000
  C   C3        1.0  0.56091  0.71537  0.53419  1.0000
  C   C4        1.0  0.43910  0.28463  0.46582  1.0000
  C   C5        1.0  0.58131  0.83071  0.49552  1.0000
  C   C6        1.0  0.41869  0.16928  0.50449  1.0000
  C   C7        1.0  0.68919  0.97457  0.59600  1.0000
  C   C8        1.0  0.31081  0.02543  0.40400  1.0000
  C   C9        1.0  0.73595  0.08262  0.54946  1.0000
  C   C10       1.0  0.26405  0.91737  0.45053  1.0000
  C   C11       1.0  0.83258  0.23107  0.64979  1.0000
  C   C12       1.0  0.16743  0.76893  0.35021  1.0000
  C   C13       1.0  0.89258  0.33012  0.59761  1.0000
  C   C14       1.0  0.10743  0.66987  0.40238  1.0000
  C   C15       1.0  0.24275  0.64133  0.67066  1.0000
  C   C16       1.0  0.75725  0.35867  0.32933  1.0000
  C   C17       1.0  0.34296  0.77379  0.78442  1.0000
  C   C18       1.0  0.65704  0.22621  0.21557  1.0000
  C   C19       1.0  0.38507  0.89656  0.75331  1.0000
  C   C20       1.0  0.61493  0.10344  0.24669  1.0000
  C   C21       1.0  0.47476  0.03884  0.86264  1.0000
  C   C22       1.0  0.52523  0.96117  0.13737  1.0000
  C   C23       1.0  0.50393  0.15525  0.82424  1.0000
  C   C24       1.0  0.49607  0.84475  0.17577  1.0000
  C   C25       1.0  0.56752  0.30103  0.93042  1.0000
  C   C26       1.0  0.43248  0.69896  0.06958  1.0000
  C   C27       1.0  0.58738  0.41563  0.89290  1.0000
  C   C28       1.0  0.41260  0.58435  0.10709  1.0000
  C   C29       1.0  0.04770  0.96078  0.63845  1.0000
  C   C30       1.0  0.95231  0.03922  0.36155  1.0000
  C   C31       1.0  0.12097  0.10703  0.70051  1.0000
  C   C32       1.0  0.87903  0.89297  0.29949  1.0000
  C   C33       1.0  0.17858  0.17054  0.82533  1.0000
  C   C34       1.0  0.82143  0.82946  0.17467  1.0000
  C   C35       1.0  0.16340  0.08770  0.88712  1.0000
  C   C36       1.0  0.83661  0.91231  0.11289  1.0000
  C   C37       1.0  0.22048  0.14650  0.01626  1.0000
  C   C38       1.0  0.77952  0.85351  0.98375  1.0000
  C   C39       1.0  0.20318  0.06291  0.07271  1.0000
  C   C40       1.0  0.79680  0.93709  0.92729  1.0000
  C   C41       1.0  0.12556  0.91457  0.00445  1.0000
  C   C42       1.0  0.87443  0.08543  0.99555  1.0000
  C   C43       1.0  0.10074  0.82519  0.05983  1.0000
  C   C44       1.0  0.89925  0.17481  0.94017  1.0000
  C   C45       1.0  0.01765  0.68414  0.98882  1.0000
  C   C46       1.0  0.98234  0.31586  0.01118  1.0000
  C   C47       1.0  0.96145  0.63264  0.86259  1.0000
  C   C48       1.0  0.03855  0.36736  0.13741  1.0000
  C   C49       1.0  0.06594  0.85238  0.87600  1.0000
  C   C50       1.0  0.93406  0.14762  0.12400  1.0000
  C   C51       1.0  0.08746  0.94057  0.81637  1.0000
  C   C52       1.0  0.91254  0.05943  0.18363  1.0000
  N   N1        1.0  0.03164  0.87924  0.69370  1.0000
  N   N2        1.0  0.96836  0.12076  0.30629  1.0000
  N   N3        1.0  0.98611  0.71293  0.80674  1.0000
  N   N4        1.0  0.01389  0.28708  0.19326  1.0000
  O   O1        1.0  0.71348  0.63633  0.62465  1.0000
  O   O2        1.0  0.28653  0.36367  0.37536  1.0000
  O   O3        1.0  0.77185  0.71731  0.49581  1.0000
  O   O4        1.0  0.22816  0.28270  0.50421  1.0000
  O   O5        1.0  0.98529  0.31484  0.55240  1.0000
  O   O6        1.0  0.01472  0.68515  0.44760  1.0000
  O   O7        1.0  0.84503  0.41867  0.60141  1.0000
  O   O8        1.0  0.15498  0.58132  0.39858  1.0000
  O   O9        1.0  0.11528  0.62002  0.63006  1.0000
  O   O10       1.0  0.88472  0.37997  0.36993  1.0000
  O   O11       1.0  0.28712  0.55800  0.61472  1.0000
  O   O12       1.0  0.71289  0.44201  0.38527  1.0000
  O   O13       1.0  0.47573  0.38165  0.79881  1.0000
  O   O14       1.0  0.52424  0.61834  0.20118  1.0000
  O   O15       1.0  0.69137  0.52871  0.94142  1.0000
  O   O16       1.0  0.30862  0.47130  0.05857  1.0000
