data_image0
_chemical_formula_structural       Nd2H58C52N4O16
_chemical_formula_sum              "Nd2 H58 C52 N4 O16"
_cell_length_a       10.9609
_cell_length_b       11.5694
_cell_length_c       12.562
_cell_angle_alpha    110.732
_cell_angle_beta     99.3944
_cell_angle_gamma    111.222

_space_group_name_H-M_alt    "P 1"
_space_group_IT_number       1

loop_
  _space_group_symop_operation_xyz
  'x, y, z'

loop_
  _atom_site_type_symbol
  _atom_site_label
  _atom_site_symmetry_multiplicity
  _atom_site_fract_x
  _atom_site_fract_y
  _atom_site_fract_z
  _atom_site_occupancy
  Nd  Nd1       1.0  0.90370  0.61231  0.56744  1.0000
  Nd  Nd2       1.0  0.09630  0.38768  0.43256  1.0000
  H   H1        1.0  0.49818  0.46454  0.78677  1.0000
  H   H2        1.0  0.50182  0.53547  0.21323  1.0000
  H   H3        1.0  0.47368  0.60204  0.45522  1.0000
  H   H4        1.0  0.52632  0.39796  0.54478  1.0000
  H   H5        1.0  0.52048  0.71867  0.60586  1.0000
  H   H6        1.0  0.47952  0.28133  0.39414  1.0000
  H   H7        1.0  0.47128  0.81501  0.45662  1.0000
  H   H8        1.0  0.52872  0.18499  0.54339  1.0000
  H   H9        1.0  0.61144  0.79898  0.41196  1.0000
  H   H10       1.0  0.38856  0.20102  0.58804  1.0000
  H   H11       1.0  0.62902  0.99224  0.66141  1.0000
  H   H12       1.0  0.37099  0.00777  0.33859  1.0000
  H   H13       1.0  0.76787  0.95667  0.63375  1.0000
  H   H14       1.0  0.23214  0.04333  0.36625  1.0000
  H   H15       1.0  0.63123  0.07383  0.49589  1.0000
  H   H16       1.0  0.36877  0.92618  0.50412  1.0000
  H   H17       1.0  0.77729  0.04652  0.48452  1.0000
  H   H18       1.0  0.22271  0.95349  0.51548  1.0000
  H   H19       1.0  0.76091  0.25595  0.70791  1.0000
  H   H20       1.0  0.23909  0.74405  0.29209  1.0000
  H   H21       1.0  0.90342  0.21500  0.70684  1.0000
  H   H22       1.0  0.09658  0.78501  0.29316  1.0000
  H   H23       1.0  0.43293  0.77164  0.83020  1.0000
  H   H24       1.0  0.56708  0.22836  0.16980  1.0000
  H   H25       1.0  0.28125  0.78904  0.84913  1.0000
  H   H26       1.0  0.71876  0.21096  0.15087  1.0000
  H   H27       1.0  0.43868  0.88059  0.68954  1.0000
  H   H28       1.0  0.56132  0.11942  0.31046  1.0000
  H   H29       1.0  0.28594  0.89233  0.70349  1.0000
  H   H30       1.0  0.71407  0.10767  0.29652  1.0000
  H   H31       1.0  0.56476  0.04545  0.91014  1.0000
  H   H32       1.0  0.43525  0.95456  0.08986  1.0000
  H   H33       1.0  0.41001  0.05154  0.92626  1.0000
  H   H34       1.0  0.59000  0.94847  0.07374  1.0000
  H   H35       1.0  0.56459  0.14962  0.76764  1.0000
  H   H36       1.0  0.43541  0.85038  0.23236  1.0000
  H   H37       1.0  0.39943  0.13775  0.76520  1.0000
  H   H38       1.0  0.60057  0.86225  0.23479  1.0000
  H   H39       1.0  0.49402  0.30412  0.98435  1.0000
  H   H40       1.0  0.50599  0.69589  0.01565  1.0000
  H   H41       1.0  0.66332  0.32222  0.99011  1.0000
  H   H42       1.0  0.33668  0.67779  0.00989  1.0000
  H   H43       1.0  0.00842  0.91500  0.54421  1.0000
  H   H44       1.0  0.99157  0.08499  0.45579  1.0000
  H   H45       1.0  0.13192  0.17706  0.65224  1.0000
  H   H46       1.0  0.86806  0.82293  0.34776  1.0000
  H   H47       1.0  0.22869  0.29375  0.87908  1.0000
  H   H48       1.0  0.77130  0.70625  0.12092  1.0000
  H   H49       1.0  0.26855  0.27224  0.07046  1.0000
  H   H50       1.0  0.73145  0.72776  0.92954  1.0000
  H   H51       1.0  0.24763  0.12488  0.17548  1.0000
  H   H52       1.0  0.75237  0.87511  0.82452  1.0000
  H   H53       1.0  0.15883  0.88693  0.16477  1.0000
  H   H54       1.0  0.84117  0.11306  0.83523  1.0000
  H   H55       1.0  0.01618  0.62915  0.03868  1.0000
  H   H56       1.0  0.98382  0.37085  0.96132  1.0000
  H   H57       1.0  0.91578  0.53535  0.81434  1.0000
  H   H58       1.0  0.08421  0.46464  0.18566  1.0000
  C   C1        1.0  0.68695  0.68989  0.55296  1.0000
  C   C2        1.0  0.31305  0.31011  0.44705  1.0000
  C   C3        1.0  0.55485  0.70381  0.52676  1.0000
  C   C4        1.0  0.44516  0.29619  0.47324  1.0000
  C   C5        1.0  0.57268  0.81851  0.48866  1.0000
  C   C6        1.0  0.42732  0.18149  0.51134  1.0000
  C   C7        1.0  0.67521  0.96211  0.59082  1.0000
  C   C8        1.0  0.32480  0.03789  0.40918  1.0000
  C   C9        1.0  0.72217  0.07335  0.54772  1.0000
  C   C10       1.0  0.27784  0.92665  0.45228  1.0000
  C   C11       1.0  0.81798  0.21907  0.65090  1.0000
  C   C12       1.0  0.18202  0.78093  0.34910  1.0000
  C   C13       1.0  0.88202  0.32087  0.60198  1.0000
  C   C14       1.0  0.11798  0.67913  0.39802  1.0000
  C   C15       1.0  0.25098  0.64010  0.67309  1.0000
  C   C16       1.0  0.74902  0.35990  0.32691  1.0000
  C   C17       1.0  0.33991  0.77526  0.78643  1.0000
  C   C18       1.0  0.66009  0.22474  0.21357  1.0000
  C   C19       1.0  0.38096  0.89606  0.75298  1.0000
  C   C20       1.0  0.61904  0.10394  0.24702  1.0000
  C   C21       1.0  0.46691  0.03842  0.86169  1.0000
  C   C22       1.0  0.53310  0.96159  0.13831  1.0000
  C   C23       1.0  0.49685  0.15439  0.82328  1.0000
  C   C24       1.0  0.50315  0.84562  0.17671  1.0000
  C   C25       1.0  0.56376  0.29932  0.93056  1.0000
  C   C26       1.0  0.43625  0.70069  0.06944  1.0000
  C   C27       1.0  0.59058  0.41321  0.89209  1.0000
  C   C28       1.0  0.40942  0.58679  0.10790  1.0000
  C   C29       1.0  0.05319  0.97071  0.64229  1.0000
  C   C30       1.0  0.94681  0.02929  0.35771  1.0000
  C   C31       1.0  0.12104  0.11669  0.70313  1.0000
  C   C32       1.0  0.87896  0.88331  0.29687  1.0000
  C   C33       1.0  0.17572  0.18098  0.82781  1.0000
  C   C34       1.0  0.82427  0.81901  0.17219  1.0000
  C   C35       1.0  0.16333  0.09933  0.89048  1.0000
  C   C36       1.0  0.83666  0.90065  0.10952  1.0000
  C   C37       1.0  0.21905  0.15944  0.01942  1.0000
  C   C38       1.0  0.78095  0.84055  0.98058  1.0000
  C   C39       1.0  0.20626  0.07746  0.07703  1.0000
  C   C40       1.0  0.79374  0.92254  0.92297  1.0000
  C   C41       1.0  0.13415  0.92926  0.01006  1.0000
  C   C42       1.0  0.86586  0.07074  0.98994  1.0000
  C   C43       1.0  0.11470  0.84131  0.06680  1.0000
  C   C44       1.0  0.88531  0.15869  0.93320  1.0000
  C   C45       1.0  0.03725  0.69975  0.99762  1.0000
  C   C46       1.0  0.96275  0.30024  0.00238  1.0000
  C   C47       1.0  0.98051  0.64630  0.87161  1.0000
  C   C48       1.0  0.01948  0.35370  0.12839  1.0000
  C   C49       1.0  0.07483  0.86543  0.88181  1.0000
  C   C50       1.0  0.92517  0.13456  0.11819  1.0000
  C   C51       1.0  0.09249  0.95237  0.82093  1.0000
  C   C52       1.0  0.90750  0.04763  0.17908  1.0000
  N   N1        1.0  0.03922  0.89045  0.69844  1.0000
  N   N2        1.0  0.96078  0.10954  0.30156  1.0000
  N   N3        1.0  0.99969  0.72548  0.81449  1.0000
  N   N4        1.0  0.00030  0.27452  0.18551  1.0000
  O   O1        1.0  0.71093  0.64292  0.62864  1.0000
  O   O2        1.0  0.28907  0.35708  0.37136  1.0000
  O   O3        1.0  0.77201  0.72287  0.49794  1.0000
  O   O4        1.0  0.22799  0.27712  0.50206  1.0000
  O   O5        1.0  0.97201  0.30458  0.55396  1.0000
  O   O6        1.0  0.02798  0.69542  0.44604  1.0000
  O   O7        1.0  0.84047  0.41231  0.61033  1.0000
  O   O8        1.0  0.15952  0.58768  0.38966  1.0000
  O   O9        1.0  0.12343  0.60903  0.62410  1.0000
  O   O10       1.0  0.87657  0.39097  0.37591  1.0000
  O   O11       1.0  0.30346  0.56324  0.62468  1.0000
  O   O12       1.0  0.69654  0.43677  0.37532  1.0000
  O   O13       1.0  0.47365  0.39359  0.81584  1.0000
  O   O14       1.0  0.52635  0.60641  0.18415  1.0000
  O   O15       1.0  0.70349  0.51299  0.92410  1.0000
  O   O16       1.0  0.29651  0.48702  0.07590  1.0000
