data_image0
_chemical_formula_structural       Pr4H32C24N4O28
_chemical_formula_sum              "Pr4 H32 C24 N4 O28"
_cell_length_a       6.99854
_cell_length_b       10.1775
_cell_length_c       12.1116
_cell_angle_alpha    90
_cell_angle_beta     90
_cell_angle_gamma    90

_space_group_name_H-M_alt    "P 1"
_space_group_IT_number       1

loop_
  _space_group_symop_operation_xyz
  'x, y, z'

loop_
  _atom_site_type_symbol
  _atom_site_label
  _atom_site_symmetry_multiplicity
  _atom_site_fract_x
  _atom_site_fract_y
  _atom_site_fract_z
  _atom_site_occupancy
  Pr  Pr1       1.0  0.13515  0.14873  0.39793  1.0000
  Pr  Pr2       1.0  0.36485  0.85127  0.89792  1.0000
  Pr  Pr3       1.0  0.86485  0.64873  0.10207  1.0000
  Pr  Pr4       1.0  0.63515  0.35127  0.60207  1.0000
  H   H1        1.0  0.26967  0.72570  0.42830  1.0000
  H   H2        1.0  0.23034  0.27430  0.92830  1.0000
  H   H3        1.0  0.73034  0.22570  0.07170  1.0000
  H   H4        1.0  0.76967  0.77430  0.57170  1.0000
  H   H5        1.0  0.40418  0.77766  0.31492  1.0000
  H   H6        1.0  0.09582  0.22233  0.81492  1.0000
  H   H7        1.0  0.59582  0.27766  0.18508  1.0000
  H   H8        1.0  0.90418  0.72234  0.68508  1.0000
  H   H9        1.0  0.48545  0.95055  0.59610  1.0000
  H   H10       1.0  0.01455  0.04945  0.09610  1.0000
  H   H11       1.0  0.51455  0.45055  0.90390  1.0000
  H   H12       1.0  0.98545  0.54946  0.40390  1.0000
  H   H13       1.0  0.38528  0.79418  0.57472  1.0000
  H   H14       1.0  0.11472  0.20582  0.07472  1.0000
  H   H15       1.0  0.61472  0.29418  0.92528  1.0000
  H   H16       1.0  0.88528  0.70582  0.42528  1.0000
  H   H17       1.0  0.55598  0.96218  0.30997  1.0000
  H   H18       1.0  0.94402  0.03782  0.80997  1.0000
  H   H19       1.0  0.44402  0.46219  0.19003  1.0000
  H   H20       1.0  0.05598  0.53782  0.69003  1.0000
  H   H21       1.0  0.66721  0.89144  0.42719  1.0000
  H   H22       1.0  0.83279  0.10855  0.92719  1.0000
  H   H23       1.0  0.33279  0.39144  0.07281  1.0000
  H   H24       1.0  0.16721  0.60856  0.57281  1.0000
  H   H25       1.0  0.36574  0.42005  0.36225  1.0000
  H   H26       1.0  0.13426  0.57995  0.86225  1.0000
  H   H27       1.0  0.63426  0.92005  0.13775  1.0000
  H   H28       1.0  0.86574  0.07995  0.63775  1.0000
  H   H29       1.0  0.17700  0.41626  0.27895  1.0000
  H   H30       1.0  0.32300  0.58374  0.77895  1.0000
  H   H31       1.0  0.82300  0.91626  0.22105  1.0000
  H   H32       1.0  0.67700  0.08374  0.72105  1.0000
  C   C1        1.0  0.11317  0.83114  0.30790  1.0000
  C   C2        1.0  0.38683  0.16885  0.80790  1.0000
  C   C3        1.0  0.88683  0.33115  0.19210  1.0000
  C   C4        1.0  0.61318  0.66885  0.69210  1.0000
  C   C5        1.0  0.29502  0.81095  0.37408  1.0000
  C   C6        1.0  0.20498  0.18905  0.87408  1.0000
  C   C7        1.0  0.70498  0.31095  0.12592  1.0000
  C   C8        1.0  0.79502  0.68905  0.62591  1.0000
  C   C9        1.0  0.36425  0.89926  0.55770  1.0000
  C   C10       1.0  0.13575  0.10074  0.05770  1.0000
  C   C11       1.0  0.63575  0.39926  0.94230  1.0000
  C   C12       1.0  0.86425  0.60074  0.44230  1.0000
  C   C13       1.0  0.18911  0.94418  0.62261  1.0000
  C   C14       1.0  0.31088  0.05582  0.12261  1.0000
  C   C15       1.0  0.81088  0.44418  0.87739  1.0000
  C   C16       1.0  0.68912  0.55582  0.37739  1.0000
  C   C17       1.0  0.55611  0.96146  0.40039  1.0000
  C   C18       1.0  0.94388  0.03854  0.90039  1.0000
  C   C19       1.0  0.44388  0.46146  0.09961  1.0000
  C   C20       1.0  0.05612  0.53854  0.59961  1.0000
  C   C21       1.0  0.61304  0.09834  0.43564  1.0000
  C   C22       1.0  0.88696  0.90165  0.93564  1.0000
  C   C23       1.0  0.38696  0.59834  0.06436  1.0000
  C   C24       1.0  0.11304  0.40166  0.56436  1.0000
  N   N1        1.0  0.36359  0.92488  0.43781  1.0000
  N   N2        1.0  0.13641  0.07512  0.93781  1.0000
  N   N3        1.0  0.63641  0.42488  0.06219  1.0000
  N   N4        1.0  0.86359  0.57512  0.56219  1.0000
  O   O1        1.0  0.02248  0.93997  0.31306  1.0000
  O   O2        1.0  0.47752  0.06003  0.81306  1.0000
  O   O3        1.0  0.97752  0.43997  0.18694  1.0000
  O   O4        1.0  0.52248  0.56003  0.68693  1.0000
  O   O5        1.0  0.06229  0.73309  0.25173  1.0000
  O   O6        1.0  0.43771  0.26691  0.75173  1.0000
  O   O7        1.0  0.93771  0.23309  0.24827  1.0000
  O   O8        1.0  0.56229  0.76691  0.74827  1.0000
  O   O9        1.0  0.07373  0.02399  0.57538  1.0000
  O   O10       1.0  0.42627  0.97601  0.07538  1.0000
  O   O11       1.0  0.92627  0.52399  0.92462  1.0000
  O   O12       1.0  0.57373  0.47601  0.42462  1.0000
  O   O13       1.0  0.17081  0.90240  0.72024  1.0000
  O   O14       1.0  0.32919  0.09760  0.22024  1.0000
  O   O15       1.0  0.82918  0.40241  0.77976  1.0000
  O   O16       1.0  0.67081  0.59760  0.27976  1.0000
  O   O17       1.0  0.47934  0.17670  0.46762  1.0000
  O   O18       1.0  0.02066  0.82330  0.96762  1.0000
  O   O19       1.0  0.52066  0.67670  0.03238  1.0000
  O   O20       1.0  0.97934  0.32330  0.53238  1.0000
  O   O21       1.0  0.78479  0.13138  0.43229  1.0000
  O   O22       1.0  0.71521  0.86862  0.93229  1.0000
  O   O23       1.0  0.21521  0.63138  0.06771  1.0000
  O   O24       1.0  0.28479  0.36862  0.56772  1.0000
  O   O25       1.0  0.25199  0.36998  0.33628  1.0000
  O   O26       1.0  0.24801  0.63002  0.83628  1.0000
  O   O27       1.0  0.74801  0.86998  0.16372  1.0000
  O   O28       1.0  0.75199  0.13002  0.66372  1.0000
