data_image0
_chemical_formula_structural       Nd4H32C24N4O28
_chemical_formula_sum              "Nd4 H32 C24 N4 O28"
_cell_length_a       6.72298
_cell_length_b       6.91955
_cell_length_c       19.7664
_cell_angle_alpha    93.3309
_cell_angle_beta     90
_cell_angle_gamma    89.9996

_space_group_name_H-M_alt    "P 1"
_space_group_IT_number       1

loop_
  _space_group_symop_operation_xyz
  'x, y, z'

loop_
  _atom_site_type_symbol
  _atom_site_label
  _atom_site_symmetry_multiplicity
  _atom_site_fract_x
  _atom_site_fract_y
  _atom_site_fract_z
  _atom_site_occupancy
  Nd  Nd1       1.0  0.74042  0.77320  0.89928  1.0000
  Nd  Nd2       1.0  0.24043  0.72680  0.60072  1.0000
  Nd  Nd3       1.0  0.25958  0.22680  0.10072  1.0000
  Nd  Nd4       1.0  0.75957  0.27321  0.39928  1.0000
  H   H1        1.0  0.28936  0.42954  0.86323  1.0000
  H   H2        1.0  0.78936  0.07045  0.63678  1.0000
  H   H3        1.0  0.71064  0.57046  0.13677  1.0000
  H   H4        1.0  0.21064  0.92955  0.36322  1.0000
  H   H5        1.0  0.12027  0.41087  0.93133  1.0000
  H   H6        1.0  0.62028  0.08914  0.56867  1.0000
  H   H7        1.0  0.87973  0.58913  0.06867  1.0000
  H   H8        1.0  0.37973  0.91087  0.43133  1.0000
  H   H9        1.0  0.94750  0.49356  0.73588  1.0000
  H   H10       1.0  0.44749  0.00642  0.76411  1.0000
  H   H11       1.0  0.05250  0.50644  0.26412  1.0000
  H   H12       1.0  0.55250  0.99357  0.23588  1.0000
  H   H13       1.0  0.19981  0.50603  0.76106  1.0000
  H   H14       1.0  0.69981  0.99396  0.73894  1.0000
  H   H15       1.0  0.80019  0.49397  0.23894  1.0000
  H   H16       1.0  0.30019  0.00603  0.26106  1.0000
  H   H17       1.0  0.98119  0.19146  0.83137  1.0000
  H   H18       1.0  0.48119  0.30853  0.66863  1.0000
  H   H19       1.0  0.01881  0.80854  0.16862  1.0000
  H   H20       1.0  0.51881  0.69146  0.33137  1.0000
  H   H21       1.0  0.78555  0.31369  0.79223  1.0000
  H   H22       1.0  0.28555  0.18630  0.70776  1.0000
  H   H23       1.0  0.21445  0.68631  0.20777  1.0000
  H   H24       1.0  0.71445  0.81370  0.29224  1.0000
  H   H25       1.0  0.77452  0.97531  0.03672  1.0000
  H   H26       1.0  0.27452  0.52469  0.46328  1.0000
  H   H27       1.0  0.22548  0.02469  0.96328  1.0000
  H   H28       1.0  0.72548  0.47532  0.53672  1.0000
  H   H29       1.0  0.57250  0.85882  0.04443  1.0000
  H   H30       1.0  0.07250  0.64118  0.45557  1.0000
  H   H31       1.0  0.42750  0.14118  0.95557  1.0000
  H   H32       1.0  0.92750  0.35882  0.54443  1.0000
  C   C1        1.0  0.21425  0.69920  0.91857  1.0000
  C   C2        1.0  0.71426  0.80080  0.58143  1.0000
  C   C3        1.0  0.78575  0.30080  0.08143  1.0000
  C   C4        1.0  0.28574  0.19920  0.41857  1.0000
  C   C5        1.0  0.15917  0.49809  0.88855  1.0000
  C   C6        1.0  0.65918  0.00191  0.61145  1.0000
  C   C7        1.0  0.84083  0.50191  0.11145  1.0000
  C   C8        1.0  0.34082  0.99809  0.38855  1.0000
  C   C9        1.0  0.04223  0.77688  0.76568  1.0000
  C   C10       1.0  0.54223  0.72311  0.73432  1.0000
  C   C11       1.0  0.95777  0.22313  0.23432  1.0000
  C   C12       1.0  0.45777  0.27688  0.26568  1.0000
  C   C13       1.0  0.04914  0.55908  0.77427  1.0000
  C   C14       1.0  0.54914  0.94091  0.72573  1.0000
  C   C15       1.0  0.95086  0.44092  0.22573  1.0000
  C   C16       1.0  0.45086  0.05908  0.27427  1.0000
  C   C17       1.0  0.73935  0.29368  0.89673  1.0000
  C   C18       1.0  0.23935  0.20633  0.60327  1.0000
  C   C19       1.0  0.26065  0.70632  0.10327  1.0000
  C   C20       1.0  0.76064  0.79368  0.39673  1.0000
  C   C21       1.0  0.88117  0.31694  0.83753  1.0000
  C   C22       1.0  0.38117  0.18305  0.66247  1.0000
  C   C23       1.0  0.11883  0.68306  0.16247  1.0000
  C   C24       1.0  0.61883  0.81695  0.33753  1.0000
  N   N1        1.0  0.98693  0.50382  0.84196  1.0000
  N   N2        1.0  0.48693  0.99618  0.65804  1.0000
  N   N3        1.0  0.01307  0.49618  0.15804  1.0000
  N   N4        1.0  0.51307  0.00382  0.34196  1.0000
  O   O1        1.0  0.07515  0.80052  0.94719  1.0000
  O   O2        1.0  0.57517  0.69948  0.55281  1.0000
  O   O3        1.0  0.92484  0.19948  0.05281  1.0000
  O   O4        1.0  0.42483  0.30052  0.44719  1.0000
  O   O5        1.0  0.39044  0.75872  0.91492  1.0000
  O   O6        1.0  0.89045  0.74127  0.58508  1.0000
  O   O7        1.0  0.60956  0.24128  0.08508  1.0000
  O   O8        1.0  0.10956  0.25873  0.41492  1.0000
  O   O9        1.0  0.96949  0.88606  0.81309  1.0000
  O   O10       1.0  0.46949  0.61393  0.68690  1.0000
  O   O11       1.0  0.03052  0.11394  0.18691  1.0000
  O   O12       1.0  0.53051  0.38606  0.31309  1.0000
  O   O13       1.0  0.10526  0.83637  0.71013  1.0000
  O   O14       1.0  0.60524  0.66362  0.78986  1.0000
  O   O15       1.0  0.89476  0.16364  0.28987  1.0000
  O   O16       1.0  0.39475  0.33637  0.21013  1.0000
  O   O17       1.0  0.69403  0.44258  0.93369  1.0000
  O   O18       1.0  0.19403  0.05742  0.56631  1.0000
  O   O19       1.0  0.30597  0.55742  0.06632  1.0000
  O   O20       1.0  0.80597  0.94259  0.43369  1.0000
  O   O21       1.0  0.66495  0.12573  0.90372  1.0000
  O   O22       1.0  0.16495  0.37427  0.59628  1.0000
  O   O23       1.0  0.33505  0.87427  0.09628  1.0000
  O   O24       1.0  0.83504  0.62574  0.40372  1.0000
  O   O25       1.0  0.70499  0.85324  0.02239  1.0000
  O   O26       1.0  0.20499  0.64676  0.47761  1.0000
  O   O27       1.0  0.29502  0.14676  0.97761  1.0000
  O   O28       1.0  0.79501  0.35324  0.52239  1.0000
