data_image0
_chemical_formula_structural       Nd4H32C24N4O28
_chemical_formula_sum              "Nd4 H32 C24 N4 O28"
_cell_length_a       6.71374
_cell_length_b       6.91309
_cell_length_c       19.7627
_cell_angle_alpha    93.5634
_cell_angle_beta     90.0001
_cell_angle_gamma    89.9999

_space_group_name_H-M_alt    "P 1"
_space_group_IT_number       1

loop_
  _space_group_symop_operation_xyz
  'x, y, z'

loop_
  _atom_site_type_symbol
  _atom_site_label
  _atom_site_symmetry_multiplicity
  _atom_site_fract_x
  _atom_site_fract_y
  _atom_site_fract_z
  _atom_site_occupancy
  Nd  Nd1       1.0  0.76272  0.26889  0.89968  1.0000
  Nd  Nd2       1.0  0.26271  0.23110  0.60032  1.0000
  Nd  Nd3       1.0  0.23729  0.73110  0.10032  1.0000
  Nd  Nd4       1.0  0.73728  0.76890  0.39968  1.0000
  H   H1        1.0  0.92538  0.36628  0.04527  1.0000
  H   H2        1.0  0.42534  0.13371  0.45473  1.0000
  H   H3        1.0  0.07466  0.63371  0.95473  1.0000
  H   H4        1.0  0.57464  0.86629  0.54527  1.0000
  H   H5        1.0  0.72337  0.48241  0.03579  1.0000
  H   H6        1.0  0.22333  0.01759  0.46422  1.0000
  H   H7        1.0  0.27667  0.51758  0.96421  1.0000
  H   H8        1.0  0.77664  0.98241  0.53579  1.0000
  H   H9        1.0  0.72468  0.81576  0.79127  1.0000
  H   H10       1.0  0.22468  0.68425  0.70873  1.0000
  H   H11       1.0  0.27533  0.18425  0.20873  1.0000
  H   H12       1.0  0.77532  0.31575  0.29127  1.0000
  H   H13       1.0  0.52973  0.68582  0.82812  1.0000
  H   H14       1.0  0.02973  0.81418  0.67187  1.0000
  H   H15       1.0  0.47027  0.31418  0.17188  1.0000
  H   H16       1.0  0.97027  0.18582  0.32812  1.0000
  H   H17       1.0  0.39065  0.90273  0.93167  1.0000
  H   H18       1.0  0.89064  0.59725  0.56833  1.0000
  H   H19       1.0  0.60936  0.09727  0.06833  1.0000
  H   H20       1.0  0.10935  0.40274  0.43167  1.0000
  H   H21       1.0  0.21735  0.91760  0.86450  1.0000
  H   H22       1.0  0.71734  0.58239  0.63550  1.0000
  H   H23       1.0  0.78266  0.08240  0.13550  1.0000
  H   H24       1.0  0.28265  0.41761  0.36450  1.0000
  H   H25       1.0  0.29787  0.00462  0.76295  1.0000
  H   H26       1.0  0.79787  0.49540  0.73705  1.0000
  H   H27       1.0  0.70211  0.99539  0.23705  1.0000
  H   H28       1.0  0.20212  0.50460  0.26295  1.0000
  H   H29       1.0  0.54752  0.98696  0.73513  1.0000
  H   H30       1.0  0.04752  0.51305  0.76488  1.0000
  H   H31       1.0  0.45247  0.01303  0.26487  1.0000
  H   H32       1.0  0.95247  0.48696  0.23512  1.0000
  C   C1        1.0  0.62684  0.81338  0.83594  1.0000
  C   C2        1.0  0.12682  0.68662  0.66406  1.0000
  C   C3        1.0  0.37317  0.18662  0.16406  1.0000
  C   C4        1.0  0.87316  0.31338  0.33594  1.0000
  C   C5        1.0  0.76698  0.78891  0.89552  1.0000
  C   C6        1.0  0.26697  0.71107  0.60447  1.0000
  C   C7        1.0  0.23302  0.21108  0.10448  1.0000
  C   C8        1.0  0.73302  0.28892  0.39552  1.0000
  C   C9        1.0  0.34742  0.98899  0.88919  1.0000
  C   C10       1.0  0.84742  0.51100  0.61081  1.0000
  C   C11       1.0  0.65259  0.01101  0.11082  1.0000
  C   C12       1.0  0.15258  0.48899  0.38919  1.0000
  C   C13       1.0  0.28945  0.18976  0.91959  1.0000
  C   C14       1.0  0.78944  0.31023  0.58041  1.0000
  C   C15       1.0  0.71057  0.81025  0.08041  1.0000
  C   C16       1.0  0.21056  0.68976  0.41959  1.0000
  C   C17       1.0  0.45075  0.05473  0.77466  1.0000
  C   C18       1.0  0.95076  0.44529  0.72534  1.0000
  C   C19       1.0  0.54925  0.94527  0.22534  1.0000
  C   C20       1.0  0.04925  0.55473  0.27466  1.0000
  C   C21       1.0  0.45981  0.27264  0.76633  1.0000
  C   C22       1.0  0.95980  0.22737  0.73368  1.0000
  C   C23       1.0  0.54019  0.72737  0.23367  1.0000
  C   C24       1.0  0.04020  0.77263  0.26633  1.0000
  N   N1        1.0  0.51737  0.99846  0.84172  1.0000
  N   N2        1.0  0.01736  0.50153  0.65828  1.0000
  N   N3        1.0  0.48263  0.00154  0.15828  1.0000
  N   N4        1.0  0.98263  0.49847  0.34172  1.0000
  O   O1        1.0  0.84225  0.62077  0.90192  1.0000
  O   O2        1.0  0.34225  0.87922  0.59807  1.0000
  O   O3        1.0  0.15775  0.37923  0.09808  1.0000
  O   O4        1.0  0.65775  0.12078  0.40192  1.0000
  O   O5        1.0  0.81024  0.93725  0.93336  1.0000
  O   O6        1.0  0.31022  0.56274  0.56664  1.0000
  O   O7        1.0  0.18976  0.06275  0.06664  1.0000
  O   O8        1.0  0.68975  0.43725  0.43336  1.0000
  O   O9        1.0  0.11246  0.24749  0.91595  1.0000
  O   O10       1.0  0.61245  0.25251  0.58405  1.0000
  O   O11       1.0  0.88755  0.75251  0.08405  1.0000
  O   O12       1.0  0.38754  0.74749  0.41595  1.0000
  O   O13       1.0  0.42795  0.29268  0.94825  1.0000
  O   O14       1.0  0.92793  0.20730  0.55176  1.0000
  O   O15       1.0  0.57207  0.70732  0.05175  1.0000
  O   O16       1.0  0.07206  0.79269  0.44824  1.0000
  O   O17       1.0  0.39916  0.33269  0.71061  1.0000
  O   O18       1.0  0.89915  0.16733  0.78938  1.0000
  O   O19       1.0  0.60084  0.66732  0.28938  1.0000
  O   O20       1.0  0.10086  0.83268  0.21062  1.0000
  O   O21       1.0  0.53116  0.38162  0.81425  1.0000
  O   O22       1.0  0.03116  0.11839  0.68576  1.0000
  O   O23       1.0  0.46884  0.61838  0.18575  1.0000
  O   O24       1.0  0.96884  0.88162  0.31424  1.0000
  O   O25       1.0  0.79410  0.36012  0.02216  1.0000
  O   O26       1.0  0.29407  0.13988  0.47784  1.0000
  O   O27       1.0  0.20592  0.63987  0.97784  1.0000
  O   O28       1.0  0.70591  0.86012  0.52216  1.0000
