data_image0
_chemical_formula_structural       ZnH8C10Se2N6
_chemical_formula_sum              "Zn1 H8 C10 Se2 N6"
_cell_length_a       7.04386
_cell_length_b       7.25943
_cell_length_c       7.25944
_cell_angle_alpha    91.004
_cell_angle_beta     108.328
_cell_angle_gamma    108.326

_space_group_name_H-M_alt    "P 1"
_space_group_IT_number       1

loop_
  _space_group_symop_operation_xyz
  'x, y, z'

loop_
  _atom_site_type_symbol
  _atom_site_label
  _atom_site_symmetry_multiplicity
  _atom_site_fract_x
  _atom_site_fract_y
  _atom_site_fract_z
  _atom_site_occupancy
  Zn  Zn1       1.0  0.99999  0.50000  0.50000  1.0000
  H   H1        1.0  0.69123  0.28577  0.06382  1.0000
  H   H2        1.0  0.30876  0.93617  0.71425  1.0000
  H   H3        1.0  0.30878  0.71424  0.93618  1.0000
  H   H4        1.0  0.69123  0.06383  0.28575  1.0000
  H   H5        1.0  0.71010  0.28844  0.72377  1.0000
  H   H6        1.0  0.28989  0.27622  0.71157  1.0000
  H   H7        1.0  0.28990  0.71156  0.27624  1.0000
  H   H8        1.0  0.71010  0.72377  0.28843  1.0000
  C   C1        1.0  0.50458  0.29744  0.29743  1.0000
  C   C2        1.0  0.49542  0.70256  0.70257  1.0000
  C   C3        1.0  0.83053  0.38193  0.03651  1.0000
  C   C4        1.0  0.16948  0.96348  0.61810  1.0000
  C   C5        1.0  0.16945  0.61807  0.96349  1.0000
  C   C6        1.0  0.83054  0.03651  0.38191  1.0000
  C   C7        1.0  0.83993  0.38306  0.84778  1.0000
  C   C8        1.0  0.16007  0.15223  0.61696  1.0000
  C   C9        1.0  0.16006  0.61694  0.15222  1.0000
  C   C10       1.0  0.83995  0.84781  0.38306  1.0000
  Se  Se1       1.0  0.26343  0.13118  0.13118  1.0000
  Se  Se2       1.0  0.73654  0.86880  0.86880  1.0000
  N   N1        1.0  0.67048  0.40451  0.40451  1.0000
  N   N2        1.0  0.32954  0.59550  0.59551  1.0000
  N   N3        1.0  0.99074  0.49853  0.18907  1.0000
  N   N4        1.0  0.00924  0.81092  0.50146  1.0000
  N   N5        1.0  0.00926  0.50147  0.81094  1.0000
  N   N6        1.0  0.99075  0.18907  0.49853  1.0000
