data_image0
_chemical_formula_structural       CdH8C10S2N6
_chemical_formula_sum              "Cd1 H8 C10 S2 N6"
_cell_length_a       6.88969
_cell_length_b       7.56652
_cell_length_c       7.56648
_cell_angle_alpha    89.1114
_cell_angle_beta     70.6059
_cell_angle_gamma    70.6064

_space_group_name_H-M_alt    "P 1"
_space_group_IT_number       1

loop_
  _space_group_symop_operation_xyz
  'x, y, z'

loop_
  _atom_site_type_symbol
  _atom_site_label
  _atom_site_symmetry_multiplicity
  _atom_site_fract_x
  _atom_site_fract_y
  _atom_site_fract_z
  _atom_site_occupancy
  Cd  Cd1       1.0  0.99999  0.50001  0.50001  1.0000
  H   H1        1.0  0.32491  0.29994  0.06096  1.0000
  H   H2        1.0  0.67509  0.93905  0.70005  1.0000
  H   H3        1.0  0.67508  0.70004  0.93906  1.0000
  H   H4        1.0  0.32491  0.06096  0.29994  1.0000
  H   H5        1.0  0.69540  0.69686  0.26797  1.0000
  H   H6        1.0  0.30461  0.73204  0.30311  1.0000
  H   H7        1.0  0.30460  0.30311  0.73204  1.0000
  H   H8        1.0  0.69540  0.26797  0.69687  1.0000
  C   C1        1.0  0.52992  0.28181  0.28181  1.0000
  C   C2        1.0  0.47010  0.71820  0.71820  1.0000
  C   C3        1.0  0.17914  0.38942  0.03379  1.0000
  C   C4        1.0  0.82086  0.96622  0.61057  1.0000
  C   C5        1.0  0.82086  0.61058  0.96622  1.0000
  C   C6        1.0  0.17914  0.03378  0.38942  1.0000
  C   C7        1.0  0.83119  0.60967  0.14693  1.0000
  C   C8        1.0  0.16882  0.85308  0.39032  1.0000
  C   C9        1.0  0.16881  0.39033  0.85308  1.0000
  C   C10       1.0  0.83119  0.14692  0.60966  1.0000
  S   S1        1.0  0.74104  0.12825  0.12824  1.0000
  S   S2        1.0  0.25894  0.87176  0.87176  1.0000
  N   N1        1.0  0.37232  0.39431  0.39432  1.0000
  N   N2        1.0  0.62769  0.60569  0.60569  1.0000
  N   N3        1.0  0.01013  0.49900  0.17970  1.0000
  N   N4        1.0  0.98986  0.82032  0.50099  1.0000
  N   N5        1.0  0.98985  0.50099  0.82032  1.0000
  N   N6        1.0  0.01015  0.17968  0.49900  1.0000
