data_image0
_chemical_formula_structural       Ti4V8H32C40N8O28
_chemical_formula_sum              "Ti4 V8 H32 C40 N8 O28"
_cell_length_a       9.58199
_cell_length_b       9.56658
_cell_length_c       14.927
_cell_angle_alpha    99.6222
_cell_angle_beta     90
_cell_angle_gamma    90

_space_group_name_H-M_alt    "P 1"
_space_group_IT_number       1

loop_
  _space_group_symop_operation_xyz
  'x, y, z'

loop_
  _atom_site_type_symbol
  _atom_site_label
  _atom_site_symmetry_multiplicity
  _atom_site_fract_x
  _atom_site_fract_y
  _atom_site_fract_z
  _atom_site_occupancy
  Ti  Ti1       1.0  0.12375  0.22019  0.98104  1.0000
  Ti  Ti2       1.0  0.87625  0.22019  0.48104  1.0000
  Ti  Ti3       1.0  0.87626  0.77980  0.01896  1.0000
  Ti  Ti4       1.0  0.12374  0.77980  0.51896  1.0000
  V   V1        1.0  0.20380  0.32324  0.77116  1.0000
  V   V2        1.0  0.79620  0.32324  0.27116  1.0000
  V   V3        1.0  0.79620  0.67676  0.22884  1.0000
  V   V4        1.0  0.20380  0.67676  0.72884  1.0000
  V   V5        1.0  0.97929  0.07604  0.65905  1.0000
  V   V6        1.0  0.02071  0.07604  0.15905  1.0000
  V   V7        1.0  0.02071  0.92396  0.34095  1.0000
  V   V8        1.0  0.97929  0.92396  0.84095  1.0000
  H   H1        1.0  0.35732  0.00844  0.86496  1.0000
  H   H2        1.0  0.64268  0.00844  0.36496  1.0000
  H   H3        1.0  0.64268  0.99156  0.13504  1.0000
  H   H4        1.0  0.35732  0.99156  0.63504  1.0000
  H   H5        1.0  0.61719  0.97881  0.85466  1.0000
  H   H6        1.0  0.38281  0.97881  0.35466  1.0000
  H   H7        1.0  0.38281  0.02119  0.14534  1.0000
  H   H8        1.0  0.61719  0.02119  0.64534  1.0000
  H   H9        1.0  0.76798  0.14799  0.96278  1.0000
  H   H10       1.0  0.23202  0.14800  0.46278  1.0000
  H   H11       1.0  0.23202  0.85201  0.03722  1.0000
  H   H12       1.0  0.76798  0.85201  0.53722  1.0000
  H   H13       1.0  0.65662  0.33894  0.06776  1.0000
  H   H14       1.0  0.34338  0.33894  0.56776  1.0000
  H   H15       1.0  0.34339  0.66106  0.93224  1.0000
  H   H16       1.0  0.65662  0.66106  0.43224  1.0000
  H   H17       1.0  0.55090  0.50606  0.14109  1.0000
  H   H18       1.0  0.44910  0.50606  0.64109  1.0000
  H   H19       1.0  0.44910  0.49394  0.85891  1.0000
  H   H20       1.0  0.55090  0.49394  0.35891  1.0000
  H   H21       1.0  0.41395  0.70575  0.22269  1.0000
  H   H22       1.0  0.58606  0.70575  0.72269  1.0000
  H   H23       1.0  0.58606  0.29425  0.77731  1.0000
  H   H24       1.0  0.41395  0.29425  0.27731  1.0000
  H   H25       1.0  0.15015  0.70251  0.20328  1.0000
  H   H26       1.0  0.84985  0.70251  0.70328  1.0000
  H   H27       1.0  0.84985  0.29749  0.79672  1.0000
  H   H28       1.0  0.15015  0.29749  0.29672  1.0000
  H   H29       1.0  0.04137  0.49467  0.10417  1.0000
  H   H30       1.0  0.95863  0.49467  0.60417  1.0000
  H   H31       1.0  0.95863  0.50533  0.89583  1.0000
  H   H32       1.0  0.04137  0.50533  0.39583  1.0000
  C   C1        1.0  0.42696  0.07994  0.90862  1.0000
  C   C2        1.0  0.57304  0.07994  0.40862  1.0000
  C   C3        1.0  0.57304  0.92006  0.09138  1.0000
  C   C4        1.0  0.42696  0.92006  0.59138  1.0000
  C   C5        1.0  0.57141  0.06373  0.90337  1.0000
  C   C6        1.0  0.42859  0.06373  0.40337  1.0000
  C   C7        1.0  0.42859  0.93627  0.09663  1.0000
  C   C8        1.0  0.57141  0.93627  0.59663  1.0000
  C   C9        1.0  0.65470  0.15631  0.96260  1.0000
  C   C10       1.0  0.34530  0.15631  0.46260  1.0000
  C   C11       1.0  0.34531  0.84369  0.03740  1.0000
  C   C12       1.0  0.65469  0.84369  0.53740  1.0000
  C   C13       1.0  0.59168  0.26467  0.02284  1.0000
  C   C14       1.0  0.40832  0.26468  0.52284  1.0000
  C   C15       1.0  0.40833  0.73533  0.97716  1.0000
  C   C16       1.0  0.59167  0.73533  0.47715  1.0000
  C   C17       1.0  0.44637  0.27685  0.02273  1.0000
  C   C18       1.0  0.55363  0.27685  0.52273  1.0000
  C   C19       1.0  0.55363  0.72315  0.97727  1.0000
  C   C20       1.0  0.44636  0.72315  0.47727  1.0000
  C   C21       1.0  0.37054  0.39479  0.07845  1.0000
  C   C22       1.0  0.62946  0.39479  0.57845  1.0000
  C   C23       1.0  0.62946  0.60521  0.92155  1.0000
  C   C24       1.0  0.37054  0.60521  0.42155  1.0000
  C   C25       1.0  0.43803  0.50636  0.13400  1.0000
  C   C26       1.0  0.56197  0.50636  0.63400  1.0000
  C   C27       1.0  0.56197  0.49364  0.86600  1.0000
  C   C28       1.0  0.43802  0.49364  0.36600  1.0000
  C   C29       1.0  0.36010  0.61850  0.18029  1.0000
  C   C30       1.0  0.63991  0.61849  0.68029  1.0000
  C   C31       1.0  0.63990  0.38150  0.81971  1.0000
  C   C32       1.0  0.36009  0.38151  0.31971  1.0000
  C   C33       1.0  0.21578  0.61663  0.17015  1.0000
  C   C34       1.0  0.78422  0.61663  0.67015  1.0000
  C   C35       1.0  0.78422  0.38337  0.82985  1.0000
  C   C36       1.0  0.21578  0.38337  0.32985  1.0000
  C   C37       1.0  0.15375  0.50173  0.11497  1.0000
  C   C38       1.0  0.84625  0.50172  0.61497  1.0000
  C   C39       1.0  0.84625  0.49827  0.88503  1.0000
  C   C40       1.0  0.15375  0.49827  0.38503  1.0000
  N   N1        1.0  0.36603  0.18303  0.96754  1.0000
  N   N2        1.0  0.63397  0.18303  0.46754  1.0000
  N   N3        1.0  0.63397  0.81697  0.03246  1.0000
  N   N4        1.0  0.36603  0.81698  0.53246  1.0000
  N   N5        1.0  0.22910  0.39344  0.07040  1.0000
  N   N6        1.0  0.77090  0.39344  0.57040  1.0000
  N   N7        1.0  0.77090  0.60656  0.92960  1.0000
  N   N8        1.0  0.22910  0.60656  0.42960  1.0000
  O   O1        1.0  0.96183  0.27542  0.00764  1.0000
  O   O2        1.0  0.03817  0.27542  0.50764  1.0000
  O   O3        1.0  0.03818  0.72458  0.99236  1.0000
  O   O4        1.0  0.96182  0.72458  0.49236  1.0000
  O   O5        1.0  0.09877  0.03899  0.89263  1.0000
  O   O6        1.0  0.90123  0.03899  0.39263  1.0000
  O   O7        1.0  0.90123  0.96101  0.10737  1.0000
  O   O8        1.0  0.09877  0.96101  0.60737  1.0000
  O   O9        1.0  0.34481  0.23177  0.74575  1.0000
  O   O10       1.0  0.65519  0.23177  0.24575  1.0000
  O   O11       1.0  0.65519  0.76823  0.25425  1.0000
  O   O12       1.0  0.34481  0.76823  0.75425  1.0000
  O   O13       1.0  0.05817  0.23600  0.70723  1.0000
  O   O14       1.0  0.94183  0.23600  0.20723  1.0000
  O   O15       1.0  0.94183  0.76400  0.29277  1.0000
  O   O16       1.0  0.05817  0.76400  0.79277  1.0000
  O   O17       1.0  0.22826  0.50000  0.75000  1.0000
  O   O18       1.0  0.77174  0.50000  0.25000  1.0000
  O   O19       1.0  0.16245  0.33042  0.88217  1.0000
  O   O20       1.0  0.83754  0.33042  0.38216  1.0000
  O   O21       1.0  0.83755  0.66958  0.11783  1.0000
  O   O22       1.0  0.16245  0.66958  0.61784  1.0000
  O   O23       1.0  0.90277  0.00000  0.75000  1.0000
  O   O24       1.0  0.09723  1.00000  0.25000  1.0000
  O   O25       1.0  0.14648  0.10799  0.08719  1.0000
  O   O26       1.0  0.85352  0.10799  0.58719  1.0000
  O   O27       1.0  0.85352  0.89201  0.91281  1.0000
  O   O28       1.0  0.14648  0.89201  0.41281  1.0000
