data_image0
_chemical_formula_structural       Cd10H48C44S8N16Cl20
_chemical_formula_sum              "Cd10 H48 C44 S8 N16 Cl20"
_cell_length_a       11.8529
_cell_length_b       12.1339
_cell_length_c       14.0287
_cell_angle_alpha    90
_cell_angle_beta     99.6944
_cell_angle_gamma    90

_space_group_name_H-M_alt    "P 1"
_space_group_IT_number       1

loop_
  _space_group_symop_operation_xyz
  'x, y, z'

loop_
  _atom_site_type_symbol
  _atom_site_label
  _atom_site_symmetry_multiplicity
  _atom_site_fract_x
  _atom_site_fract_y
  _atom_site_fract_z
  _atom_site_occupancy
  Cd  Cd1       1.0  0.31636  0.11793  0.16748  1.0000
  Cd  Cd2       1.0  0.81637  0.38207  0.66748  1.0000
  Cd  Cd3       1.0  0.68364  0.88207  0.83252  1.0000
  Cd  Cd4       1.0  0.18364  0.61793  0.33252  1.0000
  Cd  Cd5       1.0  0.50000  1.00000  1.00000  1.0000
  Cd  Cd6       1.0  0.00000  0.50000  0.50000  1.0000
  Cd  Cd7       1.0  0.67347  0.19540  0.84778  1.0000
  Cd  Cd8       1.0  0.17347  0.30460  0.34778  1.0000
  Cd  Cd9       1.0  0.32653  0.80460  0.15221  1.0000
  Cd  Cd10      1.0  0.82653  0.69540  0.65221  1.0000
  H   H1        1.0  0.14595  0.48969  0.85809  1.0000
  H   H2        1.0  0.64595  0.01031  0.35809  1.0000
  H   H3        1.0  0.85405  0.51031  0.14191  1.0000
  H   H4        1.0  0.35405  0.98969  0.64191  1.0000
  H   H5        1.0  0.14831  0.56143  0.97043  1.0000
  H   H6        1.0  0.64831  0.93857  0.47043  1.0000
  H   H7        1.0  0.85169  0.43857  0.02957  1.0000
  H   H8        1.0  0.35169  0.06143  0.52957  1.0000
  H   H9        1.0  0.31984  0.39176  0.91815  1.0000
  H   H10       1.0  0.81984  0.10824  0.41815  1.0000
  H   H11       1.0  0.68017  0.60824  0.08185  1.0000
  H   H12       1.0  0.18016  0.89176  0.58185  1.0000
  H   H13       1.0  0.34677  0.51480  0.98781  1.0000
  H   H14       1.0  0.84676  0.98520  0.48781  1.0000
  H   H15       1.0  0.65324  0.48520  0.01220  1.0000
  H   H16       1.0  0.15323  0.01480  0.51219  1.0000
  H   H17       1.0  0.57222  0.21521  0.24992  1.0000
  H   H18       1.0  0.07222  0.28479  0.74992  1.0000
  H   H19       1.0  0.42778  0.78479  0.75008  1.0000
  H   H20       1.0  0.92778  0.71521  0.25008  1.0000
  H   H21       1.0  0.50134  0.30863  0.31764  1.0000
  H   H22       1.0  0.00134  0.19137  0.81764  1.0000
  H   H23       1.0  0.49866  0.69137  0.68236  1.0000
  H   H24       1.0  0.99866  0.80863  0.18236  1.0000
  H   H25       1.0  0.90746  0.24269  0.31904  1.0000
  H   H26       1.0  0.40746  0.25732  0.81904  1.0000
  H   H27       1.0  0.09254  0.75732  0.68096  1.0000
  H   H28       1.0  0.59254  0.74268  0.18096  1.0000
  H   H29       1.0  0.01409  0.14643  0.00455  1.0000
  H   H30       1.0  0.51410  0.35357  0.50455  1.0000
  H   H31       1.0  0.98591  0.85357  0.99545  1.0000
  H   H32       1.0  0.48590  0.64643  0.49545  1.0000
  H   H33       1.0  0.76266  0.14305  0.19426  1.0000
  H   H34       1.0  0.26266  0.35695  0.69426  1.0000
  H   H35       1.0  0.23734  0.85695  0.80574  1.0000
  H   H36       1.0  0.73733  0.64304  0.30574  1.0000
  H   H37       1.0  0.82193  0.08915  0.03789  1.0000
  H   H38       1.0  0.32193  0.41085  0.53788  1.0000
  H   H39       1.0  0.17807  0.91085  0.96211  1.0000
  H   H40       1.0  0.67807  0.58915  0.46211  1.0000
  H   H41       1.0  0.65359  0.35965  0.16705  1.0000
  H   H42       1.0  0.15360  0.14035  0.66705  1.0000
  H   H43       1.0  0.34641  0.64035  0.83295  1.0000
  H   H44       1.0  0.84640  0.85965  0.33295  1.0000
  H   H45       1.0  0.63885  0.43515  0.27444  1.0000
  H   H46       1.0  0.13885  0.06484  0.77444  1.0000
  H   H47       1.0  0.36115  0.56484  0.72556  1.0000
  H   H48       1.0  0.86115  0.93516  0.22556  1.0000
  C   C1        1.0  0.05969  0.22639  0.14367  1.0000
  C   C2        1.0  0.55969  0.27361  0.64367  1.0000
  C   C3        1.0  0.94031  0.77361  0.85632  1.0000
  C   C4        1.0  0.44030  0.72639  0.35632  1.0000
  C   C5        1.0  0.39027  0.36587  0.12540  1.0000
  C   C6        1.0  0.89027  0.13413  0.62540  1.0000
  C   C7        1.0  0.60973  0.63413  0.87460  1.0000
  C   C8        1.0  0.10972  0.86587  0.37460  1.0000
  C   C9        1.0  0.18496  0.33114  0.06723  1.0000
  C   C10       1.0  0.68496  0.16887  0.56724  1.0000
  C   C11       1.0  0.81504  0.66886  0.93277  1.0000
  C   C12       1.0  0.31504  0.83114  0.43277  1.0000
  C   C13       1.0  0.16659  0.48322  0.93707  1.0000
  C   C14       1.0  0.66659  0.01679  0.43707  1.0000
  C   C15       1.0  0.83341  0.51679  0.06293  1.0000
  C   C16       1.0  0.33341  0.98321  0.56293  1.0000
  C   C17       1.0  0.28843  0.44456  0.97187  1.0000
  C   C18       1.0  0.78843  0.05544  0.47187  1.0000
  C   C19       1.0  0.71157  0.55544  0.02813  1.0000
  C   C20       1.0  0.21156  0.94456  0.52813  1.0000
  C   C21       1.0  0.52386  0.29271  0.24593  1.0000
  C   C22       1.0  0.02386  0.20729  0.74593  1.0000
  C   C23       1.0  0.47614  0.70729  0.75407  1.0000
  C   C24       1.0  0.97614  0.79271  0.25407  1.0000
  C   C25       1.0  0.92589  0.21922  0.24803  1.0000
  C   C26       1.0  0.42588  0.28078  0.74803  1.0000
  C   C27       1.0  0.07412  0.78078  0.75197  1.0000
  C   C28       1.0  0.57411  0.71922  0.25197  1.0000
  C   C29       1.0  0.98640  0.16808  0.07234  1.0000
  C   C30       1.0  0.48640  0.33192  0.57234  1.0000
  C   C31       1.0  0.01360  0.83192  0.92766  1.0000
  C   C32       1.0  0.51360  0.66808  0.42766  1.0000
  C   C33       1.0  0.84724  0.16477  0.17947  1.0000
  C   C34       1.0  0.34724  0.33523  0.67947  1.0000
  C   C35       1.0  0.15276  0.83523  0.82052  1.0000
  C   C36       1.0  0.65276  0.66477  0.32052  1.0000
  C   C37       1.0  0.87953  0.13654  0.09121  1.0000
  C   C38       1.0  0.37953  0.36346  0.59121  1.0000
  C   C39       1.0  0.12047  0.86346  0.90879  1.0000
  C   C40       1.0  0.62046  0.63654  0.40879  1.0000
  C   C41       1.0  0.59315  0.38834  0.21304  1.0000
  C   C42       1.0  0.09316  0.11166  0.71304  1.0000
  C   C43       1.0  0.40685  0.61166  0.78696  1.0000
  C   C44       1.0  0.90684  0.88834  0.28696  1.0000
  S   S1        1.0  0.48746  0.47674  0.14115  1.0000
  S   S2        1.0  0.98746  0.02326  0.64115  1.0000
  S   S3        1.0  0.51254  0.52326  0.85885  1.0000
  S   S4        1.0  0.01254  0.97674  0.35885  1.0000
  S   S5        1.0  0.07611  0.37751  0.97620  1.0000
  S   S6        1.0  0.57611  0.12249  0.47621  1.0000
  S   S7        1.0  0.92389  0.62249  0.02380  1.0000
  S   S8        1.0  0.42389  0.87751  0.52380  1.0000
  N   N1        1.0  0.17005  0.26147  0.13474  1.0000
  N   N2        1.0  0.67004  0.23853  0.63474  1.0000
  N   N3        1.0  0.82996  0.73853  0.86526  1.0000
  N   N4        1.0  0.32996  0.76147  0.36526  1.0000
  N   N5        1.0  0.41785  0.27922  0.17701  1.0000
  N   N6        1.0  0.91785  0.22078  0.67701  1.0000
  N   N7        1.0  0.58215  0.72078  0.82299  1.0000
  N   N8        1.0  0.08215  0.77921  0.32299  1.0000
  N   N9        1.0  0.28896  0.37901  0.06038  1.0000
  N   N10       1.0  0.78896  0.12099  0.56038  1.0000
  N   N11       1.0  0.71104  0.62099  0.93962  1.0000
  N   N12       1.0  0.21103  0.87901  0.43962  1.0000
  N   N13       1.0  0.03046  0.24707  0.23070  1.0000
  N   N14       1.0  0.53046  0.25294  0.73070  1.0000
  N   N15       1.0  0.96954  0.75293  0.76930  1.0000
  N   N16       1.0  0.46954  0.74707  0.26930  1.0000
  Cl  Cl1       1.0  0.29974  0.13298  0.35273  1.0000
  Cl  Cl2       1.0  0.79974  0.36703  0.85272  1.0000
  Cl  Cl3       1.0  0.70026  0.86703  0.64728  1.0000
  Cl  Cl4       1.0  0.20026  0.63298  0.14728  1.0000
  Cl  Cl5       1.0  0.50315  0.99982  0.18983  1.0000
  Cl  Cl6       1.0  0.00316  0.50018  0.68983  1.0000
  Cl  Cl7       1.0  0.49684  0.00018  0.81017  1.0000
  Cl  Cl8       1.0  0.99685  0.49981  0.31017  1.0000
  Cl  Cl9       1.0  0.59456  0.20724  0.00200  1.0000
  Cl  Cl10      1.0  0.09456  0.29276  0.50200  1.0000
  Cl  Cl11      1.0  0.40545  0.79275  0.99800  1.0000
  Cl  Cl12      1.0  0.90544  0.70724  0.49800  1.0000
  Cl  Cl13      1.0  0.17840  0.95007  0.15508  1.0000
  Cl  Cl14      1.0  0.67840  0.54994  0.65508  1.0000
  Cl  Cl15      1.0  0.82160  0.04994  0.84492  1.0000
  Cl  Cl16      1.0  0.32160  0.45006  0.34492  1.0000
  Cl  Cl17      1.0  0.30355  0.10290  0.97464  1.0000
  Cl  Cl18      1.0  0.80355  0.39710  0.47464  1.0000
  Cl  Cl19      1.0  0.69645  0.89711  0.02537  1.0000
  Cl  Cl20      1.0  0.19645  0.60290  0.52537  1.0000
