data_image0
_chemical_formula_structural       CuH12PdC14N8
_chemical_formula_sum              "Cu1 H12 Pd1 C14 N8"
_cell_length_a       6.59869
_cell_length_b       7.72224
_cell_length_c       8.74507
_cell_angle_alpha    113.073
_cell_angle_beta     94.97
_cell_angle_gamma    91.808

_space_group_name_H-M_alt    "P 1"
_space_group_IT_number       1

loop_
  _space_group_symop_operation_xyz
  'x, y, z'

loop_
  _atom_site_type_symbol
  _atom_site_label
  _atom_site_symmetry_multiplicity
  _atom_site_fract_x
  _atom_site_fract_y
  _atom_site_fract_z
  _atom_site_occupancy
  Cu  Cu1       1.0  0.50000  0.50000  0.50000  1.0000
  H   H1        1.0  0.91419  0.43816  0.39028  1.0000
  H   H2        1.0  0.08582  0.56185  0.60972  1.0000
  H   H3        1.0  0.07708  0.29635  0.12387  1.0000
  H   H4        1.0  0.92293  0.70364  0.87613  1.0000
  H   H5        1.0  0.83484  0.15114  0.85304  1.0000
  H   H6        1.0  0.16516  0.84885  0.14696  1.0000
  H   H7        1.0  0.26234  0.13932  0.86855  1.0000
  H   H8        1.0  0.73767  0.86068  0.13145  1.0000
  H   H9        1.0  0.45397  0.00949  0.74670  1.0000
  H   H10       1.0  0.54603  0.99051  0.25330  1.0000
  H   H11       1.0  0.42236  0.24276  0.76761  1.0000
  H   H12       1.0  0.57764  0.75725  0.23240  1.0000
  Pd  Pd1       1.0  0.00000  1.00000  0.50000  1.0000
  C   C1        1.0  0.19660  0.16841  0.45690  1.0000
  C   C2        1.0  0.80340  0.83158  0.54309  1.0000
  C   C3        1.0  0.82979  0.21771  0.58337  1.0000
  C   C4        1.0  0.17020  0.78228  0.41662  1.0000
  C   C5        1.0  0.82301  0.37307  0.27029  1.0000
  C   C6        1.0  0.17699  0.62694  0.72971  1.0000
  C   C7        1.0  0.91116  0.29314  0.12080  1.0000
  C   C8        1.0  0.08885  0.70686  0.87920  1.0000
  C   C9        1.0  0.77975  0.21549  0.97535  1.0000
  C   C10       1.0  0.22025  0.78451  0.02465  1.0000
  C   C11       1.0  0.56810  0.22266  0.98677  1.0000
  C   C12       1.0  0.43190  0.77734  0.01323  1.0000
  C   C13       1.0  0.41701  0.14850  0.83454  1.0000
  C   C14       1.0  0.58299  0.85151  0.16546  1.0000
  N   N1        1.0  0.30953  0.28073  0.44440  1.0000
  N   N2        1.0  0.69047  0.71926  0.55560  1.0000
  N   N3        1.0  0.73310  0.35007  0.62806  1.0000
  N   N4        1.0  0.26689  0.64994  0.37195  1.0000
  N   N5        1.0  0.62124  0.37367  0.27323  1.0000
  N   N6        1.0  0.37876  0.62633  0.72677  1.0000
  N   N7        1.0  0.49305  0.29978  0.13504  1.0000
  N   N8        1.0  0.50695  0.70022  0.86497  1.0000
