data_image0
_chemical_formula_structural       Zn2H48C58O12
_chemical_formula_sum              "Zn2 H48 C58 O12"
_cell_length_a       5.38754
_cell_length_b       8.19877
_cell_length_c       26.2612
_cell_angle_alpha    93.8596
_cell_angle_beta     97.5999
_cell_angle_gamma    90.2025

_space_group_name_H-M_alt    "P 1"
_space_group_IT_number       1

loop_
  _space_group_symop_operation_xyz
  'x, y, z'

loop_
  _atom_site_type_symbol
  _atom_site_label
  _atom_site_symmetry_multiplicity
  _atom_site_fract_x
  _atom_site_fract_y
  _atom_site_fract_z
  _atom_site_occupancy
  Zn  Zn1       1.0  0.00427  0.64731  0.08506  1.0000
  Zn  Zn2       1.0  0.09222  0.14767  0.08654  1.0000
  H   H1        1.0  0.57789  0.64161  0.11058  1.0000
  H   H2        1.0  0.55250  0.14687  0.10896  1.0000
  H   H3        1.0  0.66421  0.83087  0.11201  1.0000
  H   H4        1.0  0.46635  0.33497  0.11329  1.0000
  H   H5        1.0  0.54681  0.95019  0.01784  1.0000
  H   H6        1.0  0.45666  0.43457  0.01540  1.0000
  H   H7        1.0  0.27585  0.04716  0.99015  1.0000
  H   H8        1.0  0.69046  0.54295  0.99036  1.0000
  H   H9        1.0  0.55279  0.88813  0.92799  1.0000
  H   H10       1.0  0.35755  0.37991  0.92428  1.0000
  H   H11       1.0  0.43149  0.70870  0.94862  1.0000
  H   H12       1.0  0.50425  0.20133  0.94555  1.0000
  H   H13       1.0  0.51629  0.64398  0.86614  1.0000
  H   H14       1.0  0.34169  0.13364  0.86131  1.0000
  H   H15       1.0  0.48838  0.50809  0.78044  1.0000
  H   H16       1.0  0.29185  0.99774  0.77548  1.0000
  H   H17       1.0  0.76610  0.72701  0.73972  1.0000
  H   H18       1.0  0.96688  0.23830  0.74431  1.0000
  H   H19       1.0  0.79805  0.86228  0.82654  1.0000
  H   H20       1.0  0.01380  0.37324  0.83126  1.0000
  H   H21       1.0  0.45102  0.38818  0.71239  1.0000
  H   H22       1.0  0.26662  0.87965  0.70723  1.0000
  H   H23       1.0  0.41537  0.25564  0.62562  1.0000
  H   H24       1.0  0.22568  0.74548  0.62067  1.0000
  H   H25       1.0  0.05015  0.31126  0.55998  1.0000
  H   H26       1.0  0.52854  0.80845  0.55996  1.0000
  H   H27       1.0  0.72300  0.50621  0.58425  1.0000
  H   H28       1.0  0.87551  0.01080  0.58931  1.0000
  H   H29       1.0  0.75482  0.63764  0.67076  1.0000
  H   H30       1.0  0.92064  0.14332  0.67570  1.0000
  H   H31       1.0  0.03426  0.66371  0.24706  1.0000
  H   H32       1.0  0.24037  0.16080  0.25225  1.0000
  H   H33       1.0  0.08066  0.60270  0.33795  1.0000
  H   H34       1.0  0.26691  0.10104  0.34303  1.0000
  H   H35       1.0  0.74684  0.32566  0.31643  1.0000
  H   H36       1.0  0.56920  0.82704  0.30848  1.0000
  H   H37       1.0  0.69635  0.39086  0.22593  1.0000
  H   H38       1.0  0.54610  0.89175  0.21821  1.0000
  H   H39       1.0  0.12264  0.55810  0.40958  1.0000
  H   H40       1.0  0.28314  0.05745  0.41431  1.0000
  H   H41       1.0  0.16027  0.48643  0.49861  1.0000
  H   H42       1.0  0.31782  0.98782  0.50352  1.0000
  H   H43       1.0  0.49953  0.30066  0.53366  1.0000
  H   H44       1.0  0.99910  0.80525  0.53270  1.0000
  H   H45       1.0  0.80494  0.19231  0.47606  1.0000
  H   H46       1.0  0.63700  0.69995  0.46913  1.0000
  H   H47       1.0  0.77090  0.26507  0.38701  1.0000
  H   H48       1.0  0.59887  0.77055  0.37975  1.0000
  C   C1        1.0  0.21099  0.83575  0.02874  1.0000
  C   C2        1.0  0.81305  0.33198  0.02846  1.0000
  C   C3        1.0  0.36139  0.92697  0.99535  1.0000
  C   C4        1.0  0.61898  0.41952  0.99420  1.0000
  C   C5        1.0  0.39029  0.83844  0.94378  1.0000
  C   C6        1.0  0.53826  0.33198  0.94170  1.0000
  C   C7        1.0  0.15931  0.84893  0.90468  1.0000
  C   C8        1.0  0.73038  0.34823  0.90520  1.0000
  C   C9        1.0  0.15608  0.76228  0.85275  1.0000
  C   C10       1.0  0.68531  0.26213  0.85286  1.0000
  C   C11       1.0  0.34986  0.66197  0.83874  1.0000
  C   C12       1.0  0.48126  0.15640  0.83603  1.0000
  C   C13       1.0  0.33373  0.58500  0.78946  1.0000
  C   C14       1.0  0.45253  0.07934  0.78665  1.0000
  C   C15       1.0  0.12457  0.60515  0.75221  1.0000
  C   C16       1.0  0.62543  0.10505  0.75203  1.0000
  C   C17       1.0  0.93202  0.70687  0.76685  1.0000
  C   C18       1.0  0.82812  0.21295  0.76937  1.0000
  C   C19       1.0  0.94771  0.78350  0.81585  1.0000
  C   C20       1.0  0.85714  0.28946  0.81851  1.0000
  C   C21       1.0  0.10543  0.52408  0.69954  1.0000
  C   C22       1.0  0.59767  0.02326  0.69940  1.0000
  C   C23       1.0  0.28965  0.41557  0.68489  1.0000
  C   C24       1.0  0.40219  0.91020  0.68198  1.0000
  C   C25       1.0  0.27009  0.33995  0.63530  1.0000
  C   C26       1.0  0.37751  0.83390  0.63244  1.0000
  C   C27       1.0  0.06642  0.37113  0.59867  1.0000
  C   C28       1.0  0.54665  0.86912  0.59856  1.0000
  C   C29       1.0  0.88285  0.47930  0.61232  1.0000
  C   C30       1.0  0.74114  0.98125  0.61503  1.0000
  C   C31       1.0  0.90177  0.55390  0.66194  1.0000
  C   C32       1.0  0.76669  0.05640  0.66465  1.0000
  C   C33       1.0  0.32807  0.56544  0.17508  1.0000
  C   C34       1.0  0.87933  0.06485  0.17401  1.0000
  C   C35       1.0  0.36103  0.53043  0.23046  1.0000
  C   C36       1.0  0.89271  0.02932  0.22915  1.0000
  C   C37       1.0  0.19011  0.59002  0.26282  1.0000
  C   C38       1.0  0.09381  0.08814  0.26508  1.0000
  C   C39       1.0  0.21848  0.55465  0.31426  1.0000
  C   C40       1.0  0.10691  0.05344  0.31644  1.0000
  C   C41       1.0  0.41745  0.45806  0.33535  1.0000
  C   C42       1.0  0.92066  0.95828  0.33397  1.0000
  C   C43       1.0  0.58914  0.40050  0.30234  1.0000
  C   C44       1.0  0.71876  0.90094  0.29731  1.0000
  C   C45       1.0  0.56181  0.43611  0.25087  1.0000
  C   C46       1.0  0.70436  0.93612  0.24594  1.0000
  C   C47       1.0  0.44267  0.41706  0.39005  1.0000
  C   C48       1.0  0.93895  0.91883  0.38875  1.0000
  C   C49       1.0  0.27371  0.47751  0.42322  1.0000
  C   C50       1.0  0.13920  0.97860  0.42532  1.0000
  C   C51       1.0  0.29500  0.43707  0.47429  1.0000
  C   C52       1.0  0.15979  0.93913  0.47647  1.0000
  C   C53       1.0  0.48527  0.33436  0.49392  1.0000
  C   C54       1.0  0.98108  0.83801  0.49282  1.0000
  C   C55       1.0  0.65573  0.27379  0.46183  1.0000
  C   C56       1.0  0.77941  0.77893  0.45738  1.0000
  C   C57       1.0  0.63485  0.31496  0.41081  1.0000
  C   C58       1.0  0.75850  0.81913  0.40625  1.0000
  O   O1        1.0  0.15965  0.68447  0.01951  1.0000
  O   O2        1.0  0.85319  0.18053  0.02026  1.0000
  O   O3        1.0  0.14108  0.90831  0.06956  1.0000
  O   O4        1.0  0.93443  0.40726  0.06902  1.0000
  O   O5        1.0  0.97694  0.93011  0.91470  1.0000
  O   O6        1.0  0.92078  0.43375  0.91783  1.0000
  O   O7        1.0  0.14220  0.65367  0.15904  1.0000
  O   O8        1.0  0.05487  0.15219  0.16095  1.0000
  O   O9        1.0  0.48626  0.50872  0.14655  1.0000
  O   O10       1.0  0.69318  0.00954  0.14229  1.0000
  O   O11       1.0  0.65759  0.72435  0.09078  1.0000
  O   O12       1.0  0.44353  0.23076  0.09085  1.0000
