data_image0
_chemical_formula_structural       Ag8H24C28S4O16
_chemical_formula_sum              "Ag8 H24 C28 S4 O16"
_cell_length_a       6.068
_cell_length_b       11.7347
_cell_length_c       11.8851
_cell_angle_alpha    90.0005
_cell_angle_beta     90.0004
_cell_angle_gamma    92.6043

_space_group_name_H-M_alt    "P 1"
_space_group_IT_number       1

loop_
  _space_group_symop_operation_xyz
  'x, y, z'

loop_
  _atom_site_type_symbol
  _atom_site_label
  _atom_site_symmetry_multiplicity
  _atom_site_fract_x
  _atom_site_fract_y
  _atom_site_fract_z
  _atom_site_occupancy
  Ag  Ag1       1.0  0.11973  0.64215  0.35024  1.0000
  Ag  Ag2       1.0  0.38027  0.35786  0.85024  1.0000
  Ag  Ag3       1.0  0.88026  0.35785  0.64975  1.0000
  Ag  Ag4       1.0  0.61973  0.64214  0.14976  1.0000
  Ag  Ag5       1.0  0.28441  0.53432  0.63963  1.0000
  Ag  Ag6       1.0  0.21560  0.46569  0.13963  1.0000
  Ag  Ag7       1.0  0.71558  0.46568  0.36037  1.0000
  Ag  Ag8       1.0  0.78441  0.53432  0.86037  1.0000
  H   H1        1.0  0.55944  0.19239  0.73555  1.0000
  H   H2        1.0  0.94055  0.80762  0.23555  1.0000
  H   H3        1.0  0.44055  0.80762  0.26445  1.0000
  H   H4        1.0  0.05945  0.19238  0.76445  1.0000
  H   H5        1.0  0.78652  0.06788  0.61939  1.0000
  H   H6        1.0  0.71348  0.93213  0.11939  1.0000
  H   H7        1.0  0.21346  0.93212  0.38061  1.0000
  H   H8        1.0  0.28653  0.06788  0.88061  1.0000
  H   H9        1.0  0.48038  0.19373  0.32082  1.0000
  H   H10       1.0  0.01963  0.80626  0.82082  1.0000
  H   H11       1.0  0.51962  0.80626  0.67918  1.0000
  H   H12       1.0  0.98038  0.19374  0.17918  1.0000
  H   H13       1.0  0.74089  0.04481  0.30266  1.0000
  H   H14       1.0  0.75913  0.95519  0.80266  1.0000
  H   H15       1.0  0.25913  0.95518  0.69735  1.0000
  H   H16       1.0  0.24089  0.04482  0.19734  1.0000
  H   H17       1.0  0.81533  0.96592  0.42366  1.0000
  H   H18       1.0  0.68468  0.03408  0.92366  1.0000
  H   H19       1.0  0.18467  0.03408  0.57635  1.0000
  H   H20       1.0  0.31533  0.96592  0.07634  1.0000
  H   H21       1.0  0.96877  0.09307  0.38579  1.0000
  H   H22       1.0  0.53123  0.90693  0.88578  1.0000
  H   H23       1.0  0.03123  0.90693  0.61422  1.0000
  H   H24       1.0  0.46878  0.09307  0.11421  1.0000
  C   C1        1.0  0.37440  0.26452  0.47684  1.0000
  C   C2        1.0  0.12560  0.73549  0.97684  1.0000
  C   C3        1.0  0.62561  0.73548  0.52316  1.0000
  C   C4        1.0  0.87439  0.26451  0.02316  1.0000
  C   C5        1.0  0.39673  0.27019  0.59587  1.0000
  C   C6        1.0  0.10326  0.72982  0.09587  1.0000
  C   C7        1.0  0.60326  0.72981  0.40413  1.0000
  C   C8        1.0  0.89674  0.27019  0.90414  1.0000
  C   C9        1.0  0.54832  0.19528  0.64386  1.0000
  C   C10       1.0  0.95167  0.80473  0.14387  1.0000
  C   C11       1.0  0.45166  0.80472  0.35614  1.0000
  C   C12       1.0  0.04833  0.19527  0.85614  1.0000
  C   C13       1.0  0.67284  0.12387  0.57793  1.0000
  C   C14       1.0  0.82716  0.87614  0.07792  1.0000
  C   C15       1.0  0.32715  0.87613  0.42207  1.0000
  C   C16       1.0  0.17284  0.12387  0.92207  1.0000
  C   C17       1.0  0.65399  0.12204  0.46030  1.0000
  C   C18       1.0  0.84602  0.87797  0.96030  1.0000
  C   C19       1.0  0.34601  0.87796  0.53970  1.0000
  C   C20       1.0  0.15399  0.12203  0.03969  1.0000
  C   C21       1.0  0.49977  0.19158  0.41181  1.0000
  C   C22       1.0  0.00022  0.80842  0.91180  1.0000
  C   C23       1.0  0.50023  0.80842  0.58819  1.0000
  C   C24       1.0  0.99977  0.19158  0.08819  1.0000
  C   C25       1.0  0.80182  0.05220  0.38931  1.0000
  C   C26       1.0  0.69818  0.94780  0.88931  1.0000
  C   C27       1.0  0.19818  0.94779  0.61070  1.0000
  C   C28       1.0  0.30182  0.05221  0.11069  1.0000
  S   S1        1.0  0.20353  0.35786  0.40416  1.0000
  S   S2        1.0  0.29645  0.64213  0.90415  1.0000
  S   S3        1.0  0.79647  0.64214  0.59586  1.0000
  S   S4        1.0  0.70356  0.35787  0.09586  1.0000
  O   O1        1.0  0.30662  0.47486  0.42125  1.0000
  O   O2        1.0  0.19337  0.52514  0.92125  1.0000
  O   O3        1.0  0.69338  0.52515  0.57875  1.0000
  O   O4        1.0  0.80662  0.47486  0.07875  1.0000
  O   O5        1.0  0.97941  0.34748  0.45428  1.0000
  O   O6        1.0  0.52059  0.65251  0.95429  1.0000
  O   O7        1.0  0.02060  0.65252  0.54570  1.0000
  O   O8        1.0  0.47941  0.34749  0.04571  1.0000
  O   O9        1.0  0.20494  0.32433  0.28534  1.0000
  O   O10       1.0  0.29508  0.67567  0.78534  1.0000
  O   O11       1.0  0.79506  0.67566  0.71466  1.0000
  O   O12       1.0  0.70494  0.32433  0.21466  1.0000
  O   O13       1.0  0.28407  0.33871  0.66126  1.0000
  O   O14       1.0  0.21592  0.66129  0.16126  1.0000
  O   O15       1.0  0.71594  0.66129  0.33874  1.0000
  O   O16       1.0  0.78407  0.33871  0.83875  1.0000
