data_image0
_chemical_formula_structural       Ag8H32C48S8Br8O32
_chemical_formula_sum              "Ag8 H32 C48 S8 Br8 O32"
_cell_length_a       5.43078
_cell_length_b       15.6992
_cell_length_c       19.6641
_cell_angle_alpha    92.7945
_cell_angle_beta     90.0003
_cell_angle_gamma    89.9998

_space_group_name_H-M_alt    "P 1"
_space_group_IT_number       1

loop_
  _space_group_symop_operation_xyz
  'x, y, z'

loop_
  _atom_site_type_symbol
  _atom_site_label
  _atom_site_symmetry_multiplicity
  _atom_site_fract_x
  _atom_site_fract_y
  _atom_site_fract_z
  _atom_site_occupancy
  Ag  Ag1       1.0  0.45451  0.52898  0.27157  1.0000
  Ag  Ag2       1.0  0.95451  0.47102  0.22843  1.0000
  Ag  Ag3       1.0  0.54549  0.47102  0.72843  1.0000
  Ag  Ag4       1.0  0.04549  0.52897  0.77157  1.0000
  Ag  Ag5       1.0  0.29762  0.51477  0.45040  1.0000
  Ag  Ag6       1.0  0.79761  0.48523  0.04960  1.0000
  Ag  Ag7       1.0  0.70240  0.48523  0.54960  1.0000
  Ag  Ag8       1.0  0.20239  0.51477  0.95040  1.0000
  H   H1        1.0  0.28426  0.34489  0.52716  1.0000
  H   H2        1.0  0.78426  0.65511  0.97284  1.0000
  H   H3        1.0  0.71574  0.65511  0.47284  1.0000
  H   H4        1.0  0.21575  0.34489  0.02716  1.0000
  H   H5        1.0  0.78930  0.69131  0.23036  1.0000
  H   H6        1.0  0.28929  0.30869  0.26965  1.0000
  H   H7        1.0  0.21072  0.30869  0.76964  1.0000
  H   H8        1.0  0.71071  0.69132  0.73036  1.0000
  H   H9        1.0  0.03955  0.25006  0.36533  1.0000
  H   H10       1.0  0.53955  0.74994  0.13467  1.0000
  H   H11       1.0  0.96045  0.74995  0.63467  1.0000
  H   H12       1.0  0.46045  0.25006  0.86533  1.0000
  H   H13       1.0  0.65065  0.08595  0.49889  1.0000
  H   H14       1.0  0.15064  0.91405  0.00111  1.0000
  H   H15       1.0  0.34935  0.91405  0.50112  1.0000
  H   H16       1.0  0.84935  0.08595  0.99888  1.0000
  H   H17       1.0  0.35808  0.20282  0.52830  1.0000
  H   H18       1.0  0.85807  0.79718  0.97170  1.0000
  H   H19       1.0  0.64191  0.79718  0.47169  1.0000
  H   H20       1.0  0.14191  0.20282  0.02830  1.0000
  H   H21       1.0  0.39126  0.76549  0.38534  1.0000
  H   H22       1.0  0.89122  0.23452  0.11466  1.0000
  H   H23       1.0  0.60877  0.23451  0.61467  1.0000
  H   H24       1.0  0.10876  0.76548  0.88533  1.0000
  H   H25       1.0  0.35394  0.96677  0.24376  1.0000
  H   H26       1.0  0.85393  0.03324  0.25624  1.0000
  H   H27       1.0  0.64607  0.03323  0.75624  1.0000
  H   H28       1.0  0.14605  0.96677  0.74376  1.0000
  H   H29       1.0  0.01670  0.88945  0.18212  1.0000
  H   H30       1.0  0.51670  0.11056  0.31789  1.0000
  H   H31       1.0  0.98331  0.11055  0.81788  1.0000
  H   H32       1.0  0.48330  0.88945  0.68212  1.0000
  C   C1        1.0  0.54066  0.29425  0.46783  1.0000
  C   C2        1.0  0.04066  0.70574  0.03217  1.0000
  C   C3        1.0  0.45932  0.70574  0.53217  1.0000
  C   C4        1.0  0.95933  0.29425  0.96783  1.0000
  C   C5        1.0  0.72945  0.30609  0.41994  1.0000
  C   C6        1.0  0.22945  0.69391  0.08006  1.0000
  C   C7        1.0  0.27055  0.69391  0.58006  1.0000
  C   C8        1.0  0.77056  0.30609  0.91994  1.0000
  C   C9        1.0  0.89403  0.24010  0.40218  1.0000
  C   C10       1.0  0.39402  0.75990  0.09782  1.0000
  C   C11       1.0  0.10598  0.75991  0.59782  1.0000
  C   C12       1.0  0.60597  0.24010  0.90218  1.0000
  C   C13       1.0  0.86773  0.16198  0.43213  1.0000
  C   C14       1.0  0.36773  0.83802  0.06787  1.0000
  C   C15       1.0  0.13227  0.83801  0.56787  1.0000
  C   C16       1.0  0.63227  0.16198  0.93213  1.0000
  C   C17       1.0  0.67493  0.14776  0.47693  1.0000
  C   C18       1.0  0.17493  0.85224  0.02307  1.0000
  C   C19       1.0  0.32506  0.85224  0.52307  1.0000
  C   C20       1.0  0.82505  0.14775  0.97692  1.0000
  C   C21       1.0  0.51119  0.21360  0.49390  1.0000
  C   C22       1.0  0.01119  0.78640  0.00610  1.0000
  C   C23       1.0  0.48879  0.78640  0.50610  1.0000
  C   C24       1.0  0.98880  0.21360  0.99390  1.0000
  C   C25       1.0  0.00779  0.78544  0.24901  1.0000
  C   C26       1.0  0.50779  0.21456  0.25100  1.0000
  C   C27       1.0  0.99222  0.21455  0.75100  1.0000
  C   C28       1.0  0.49221  0.78545  0.74900  1.0000
  C   C29       1.0  0.11511  0.75169  0.30723  1.0000
  C   C30       1.0  0.61509  0.24831  0.19277  1.0000
  C   C31       1.0  0.88491  0.24831  0.69277  1.0000
  C   C32       1.0  0.38490  0.75169  0.80723  1.0000
  C   C33       1.0  0.30928  0.79397  0.34145  1.0000
  C   C34       1.0  0.80925  0.20602  0.15855  1.0000
  C   C35       1.0  0.69074  0.20602  0.65855  1.0000
  C   C36       1.0  0.19073  0.79397  0.84145  1.0000
  C   C37       1.0  0.39186  0.87114  0.31904  1.0000
  C   C38       1.0  0.89185  0.12886  0.18096  1.0000
  C   C39       1.0  0.60815  0.12885  0.68096  1.0000
  C   C40       1.0  0.10813  0.87114  0.81903  1.0000
  C   C41       1.0  0.28722  0.90644  0.26182  1.0000
  C   C42       1.0  0.78721  0.09356  0.23818  1.0000
  C   C43       1.0  0.71279  0.09355  0.73818  1.0000
  C   C44       1.0  0.21277  0.90644  0.76181  1.0000
  C   C45       1.0  0.09862  0.86340  0.22722  1.0000
  C   C46       1.0  0.59861  0.13661  0.27279  1.0000
  C   C47       1.0  0.90140  0.13660  0.77279  1.0000
  C   C48       1.0  0.40137  0.86340  0.72722  1.0000
  S   S1        1.0  0.76838  0.40599  0.38282  1.0000
  S   S2        1.0  0.26838  0.59401  0.11718  1.0000
  S   S3        1.0  0.23162  0.59401  0.61718  1.0000
  S   S4        1.0  0.73161  0.40599  0.88282  1.0000
  S   S5        1.0  0.00511  0.65905  0.34464  1.0000
  S   S6        1.0  0.50509  0.34095  0.15535  1.0000
  S   S7        1.0  0.99491  0.34095  0.65536  1.0000
  S   S8        1.0  0.49490  0.65905  0.84464  1.0000
  Br  Br1       1.0  0.09634  0.07236  0.41053  1.0000
  Br  Br2       1.0  0.59634  0.92763  0.08947  1.0000
  Br  Br3       1.0  0.90365  0.92762  0.58947  1.0000
  Br  Br4       1.0  0.40367  0.07237  0.91053  1.0000
  Br  Br5       1.0  0.65106  0.93062  0.36671  1.0000
  Br  Br6       1.0  0.15105  0.06938  0.13329  1.0000
  Br  Br7       1.0  0.34893  0.06938  0.63329  1.0000
  Br  Br8       1.0  0.84894  0.93062  0.86671  1.0000
  O   O1        1.0  0.52141  0.43288  0.35938  1.0000
  O   O2        1.0  0.02141  0.56712  0.14062  1.0000
  O   O3        1.0  0.47861  0.56712  0.64062  1.0000
  O   O4        1.0  0.97859  0.43289  0.85938  1.0000
  O   O5        1.0  0.94492  0.39238  0.32675  1.0000
  O   O6        1.0  0.44493  0.60762  0.17325  1.0000
  O   O7        1.0  0.05509  0.60761  0.67325  1.0000
  O   O8        1.0  0.55507  0.39238  0.82675  1.0000
  O   O9        1.0  0.86216  0.46652  0.43723  1.0000
  O   O10       1.0  0.36216  0.53348  0.06277  1.0000
  O   O11       1.0  0.13785  0.53348  0.56277  1.0000
  O   O12       1.0  0.63783  0.46652  0.93723  1.0000
  O   O13       1.0  0.39269  0.36073  0.48852  1.0000
  O   O14       1.0  0.89267  0.63926  0.01148  1.0000
  O   O15       1.0  0.60731  0.63926  0.51147  1.0000
  O   O16       1.0  0.10731  0.36074  0.98852  1.0000
  O   O17       1.0  0.22582  0.60702  0.35915  1.0000
  O   O18       1.0  0.72580  0.39298  0.14085  1.0000
  O   O19       1.0  0.77420  0.39298  0.64085  1.0000
  O   O20       1.0  0.27419  0.60702  0.85915  1.0000
  O   O21       1.0  0.84390  0.61593  0.29245  1.0000
  O   O22       1.0  0.34390  0.38407  0.20755  1.0000
  O   O23       1.0  0.15610  0.38407  0.70755  1.0000
  O   O24       1.0  0.65609  0.61593  0.79244  1.0000
  O   O25       1.0  0.87464  0.68654  0.40705  1.0000
  O   O26       1.0  0.37463  0.31346  0.09295  1.0000
  O   O27       1.0  0.12538  0.31346  0.59295  1.0000
  O   O28       1.0  0.62539  0.68653  0.90705  1.0000
  O   O29       1.0  0.82351  0.74794  0.21242  1.0000
  O   O30       1.0  0.32350  0.25206  0.28758  1.0000
  O   O31       1.0  0.17651  0.25206  0.78758  1.0000
  O   O32       1.0  0.67650  0.74795  0.71242  1.0000
