data_image0
_chemical_formula_structural       Ag4H18C12S4Br2O20
_chemical_formula_sum              "Ag4 H18 C12 S4 Br2 O20"
_cell_length_a       7.44376
_cell_length_b       8.6748
_cell_length_c       11.0304
_cell_angle_alpha    102.408
_cell_angle_beta     104.278
_cell_angle_gamma    92.0826

_space_group_name_H-M_alt    "P 1"
_space_group_IT_number       1

loop_
  _space_group_symop_operation_xyz
  'x, y, z'

loop_
  _atom_site_type_symbol
  _atom_site_label
  _atom_site_symmetry_multiplicity
  _atom_site_fract_x
  _atom_site_fract_y
  _atom_site_fract_z
  _atom_site_occupancy
  Ag  Ag1       1.0  0.79929  0.89946  0.95654  1.0000
  Ag  Ag2       1.0  0.20071  0.10054  0.04347  1.0000
  Ag  Ag3       1.0  0.50177  0.20877  0.78840  1.0000
  Ag  Ag4       1.0  0.49823  0.79123  0.21160  1.0000
  H   H1        1.0  0.63971  0.18663  0.05653  1.0000
  H   H2        1.0  0.36029  0.81337  0.94347  1.0000
  H   H3        1.0  0.82147  0.24679  0.02641  1.0000
  H   H4        1.0  0.17853  0.75320  0.97359  1.0000
  H   H5        1.0  0.94873  0.01176  0.22143  1.0000
  H   H6        1.0  0.05127  0.98824  0.77858  1.0000
  H   H7        1.0  0.06579  0.86508  0.19410  1.0000
  H   H8        1.0  0.93421  0.13491  0.80591  1.0000
  H   H9        1.0  0.19124  0.33604  0.89254  1.0000
  H   H10       1.0  0.80876  0.66396  0.10745  1.0000
  H   H11       1.0  0.35125  0.39024  0.01815  1.0000
  H   H12       1.0  0.64875  0.60976  0.98184  1.0000
  H   H13       1.0  0.39842  0.86093  0.48756  1.0000
  H   H14       1.0  0.60158  0.13908  0.51244  1.0000
  H   H15       1.0  0.11747  0.25987  0.32408  1.0000
  H   H16       1.0  0.88252  0.74014  0.67592  1.0000
  H   H17       1.0  0.31808  0.50846  0.72291  1.0000
  H   H18       1.0  0.68192  0.49154  0.27709  1.0000
  C   C1        1.0  0.31969  0.64621  0.58238  1.0000
  C   C2        1.0  0.68031  0.35379  0.41763  1.0000
  C   C3        1.0  0.28661  0.64858  0.45115  1.0000
  C   C4        1.0  0.71338  0.35143  0.54885  1.0000
  C   C5        1.0  0.20824  0.50740  0.35953  1.0000
  C   C6        1.0  0.79175  0.49260  0.64047  1.0000
  C   C7        1.0  0.17522  0.36764  0.39692  1.0000
  C   C8        1.0  0.82477  0.63236  0.60308  1.0000
  C   C9        1.0  0.21824  0.36845  0.52735  1.0000
  C   C10       1.0  0.78175  0.63155  0.47265  1.0000
  C   C11       1.0  0.28725  0.50703  0.62085  1.0000
  C   C12       1.0  0.71274  0.49297  0.37915  1.0000
  S   S1        1.0  0.38230  0.82740  0.69974  1.0000
  S   S2        1.0  0.61769  0.17260  0.30026  1.0000
  S   S3        1.0  0.14675  0.50717  0.19304  1.0000
  S   S4        1.0  0.85325  0.49283  0.80696  1.0000
  Br  Br1       1.0  0.18346  0.17561  0.57847  1.0000
  Br  Br2       1.0  0.81653  0.82439  0.42152  1.0000
  O   O1        1.0  0.70855  0.17175  0.98899  1.0000
  O   O2        1.0  0.29146  0.82824  0.01101  1.0000
  O   O3        1.0  0.47342  0.78947  0.82292  1.0000
  O   O4        1.0  0.52658  0.21054  0.17708  1.0000
  O   O5        1.0  0.20658  0.89829  0.70092  1.0000
  O   O6        1.0  0.79341  0.10171  0.29909  1.0000
  O   O7        1.0  0.03596  0.96667  0.17199  1.0000
  O   O8        1.0  0.96405  0.03333  0.82802  1.0000
  O   O9        1.0  0.50920  0.92135  0.65262  1.0000
  O   O10       1.0  0.49080  0.07866  0.34738  1.0000
  O   O11       1.0  0.31378  0.30752  0.93720  1.0000
  O   O12       1.0  0.68622  0.69247  0.06280  1.0000
  O   O13       1.0  0.03342  0.64100  0.18082  1.0000
  O   O14       1.0  0.96658  0.35900  0.81917  1.0000
  O   O15       1.0  0.04367  0.35212  0.12650  1.0000
  O   O16       1.0  0.95633  0.64788  0.87350  1.0000
  O   O17       1.0  0.32378  0.52938  0.15813  1.0000
  O   O18       1.0  0.67623  0.47062  0.84187  1.0000
  O   O19       1.0  0.32576  0.77943  0.41105  1.0000
  O   O20       1.0  0.67424  0.22057  0.58895  1.0000
