data_image0
_chemical_formula_structural       Ag4H24C14S4O20
_chemical_formula_sum              "Ag4 H24 C14 S4 O20"
_cell_length_a       7.51294
_cell_length_b       8.42012
_cell_length_c       11.0868
_cell_angle_alpha    104.654
_cell_angle_beta     101.133
_cell_angle_gamma    90.4619

_space_group_name_H-M_alt    "P 1"
_space_group_IT_number       1

loop_
  _space_group_symop_operation_xyz
  'x, y, z'

loop_
  _atom_site_type_symbol
  _atom_site_label
  _atom_site_symmetry_multiplicity
  _atom_site_fract_x
  _atom_site_fract_y
  _atom_site_fract_z
  _atom_site_occupancy
  Ag  Ag1       1.0  0.45962  0.30704  0.20111  1.0000
  Ag  Ag2       1.0  0.54038  0.69296  0.79889  1.0000
  Ag  Ag3       1.0  0.21545  0.60231  0.04791  1.0000
  Ag  Ag4       1.0  0.78454  0.39769  0.95209  1.0000
  H   H1        1.0  0.36552  0.29618  0.92528  1.0000
  H   H2        1.0  0.63448  0.70381  0.07471  1.0000
  H   H3        1.0  0.17842  0.24330  0.95365  1.0000
  H   H4        1.0  0.82158  0.75670  0.04635  1.0000
  H   H5        1.0  0.79703  0.16926  0.12367  1.0000
  H   H6        1.0  0.20297  0.83074  0.87633  1.0000
  H   H7        1.0  0.65395  0.10353  0.99791  1.0000
  H   H8        1.0  0.34605  0.89646  0.00209  1.0000
  H   H9        1.0  0.06445  0.48520  0.79315  1.0000
  H   H10       1.0  0.93554  0.51480  0.20685  1.0000
  H   H11       1.0  0.95560  0.64454  0.82582  1.0000
  H   H12       1.0  0.04440  0.35547  0.17418  1.0000
  H   H13       1.0  0.40672  0.36130  0.48348  1.0000
  H   H14       1.0  0.59328  0.63870  0.51652  1.0000
  H   H15       1.0  0.32879  0.99433  0.70654  1.0000
  H   H16       1.0  0.67121  0.00568  0.29346  1.0000
  H   H17       1.0  0.10068  0.75621  0.31400  1.0000
  H   H18       1.0  0.89932  0.24379  0.68600  1.0000
  H   H19       1.0  0.03891  0.69668  0.57541  1.0000
  H   H20       1.0  0.96109  0.30332  0.42459  1.0000
  H   H21       1.0  0.27294  0.68255  0.63067  1.0000
  H   H22       1.0  0.72706  0.31745  0.36933  1.0000
  H   H23       1.0  0.17247  0.58988  0.46853  1.0000
  H   H24       1.0  0.82753  0.41012  0.53148  1.0000
  C   C1        1.0  0.20403  0.00556  0.35331  1.0000
  C   C2        1.0  0.79597  0.99444  0.64669  1.0000
  C   C3        1.0  0.29040  0.14610  0.44484  1.0000
  C   C4        1.0  0.70960  0.85390  0.55516  1.0000
  C   C5        1.0  0.32830  0.13921  0.57277  1.0000
  C   C6        1.0  0.67170  0.86079  0.42723  1.0000
  C   C7        1.0  0.29265  0.99475  0.60648  1.0000
  C   C8        1.0  0.70735  0.00526  0.39352  1.0000
  C   C9        1.0  0.21245  0.85359  0.51443  1.0000
  C   C10       1.0  0.78755  0.14642  0.48557  1.0000
  C   C11       1.0  0.16623  0.86283  0.38792  1.0000
  C   C12       1.0  0.83377  0.13717  0.61208  1.0000
  C   C13       1.0  0.17207  0.69748  0.54848  1.0000
  C   C14       1.0  0.82793  0.30252  0.45151  1.0000
  S   S1        1.0  0.13578  0.01165  0.19219  1.0000
  S   S2        1.0  0.86421  0.98835  0.80781  1.0000
  S   S3        1.0  0.39391  0.32339  0.69391  1.0000
  S   S4        1.0  0.60609  0.67661  0.30609  1.0000
  O   O1        1.0  0.29074  0.31468  0.99155  1.0000
  O   O2        1.0  0.70926  0.68532  0.00845  1.0000
  O   O3        1.0  0.30298  0.03603  0.14579  1.0000
  O   O4        1.0  0.69702  0.96397  0.85421  1.0000
  O   O5        1.0  0.67732  0.19230  0.07777  1.0000
  O   O6        1.0  0.32267  0.80769  0.92223  1.0000
  O   O7        1.0  0.03741  0.85288  0.12389  1.0000
  O   O8        1.0  0.96259  0.14712  0.87611  1.0000
  O   O9        1.0  0.97732  0.53738  0.84510  1.0000
  O   O10       1.0  0.02268  0.46263  0.15490  1.0000
  O   O11       1.0  0.01858  0.15160  0.19395  1.0000
  O   O12       1.0  0.98141  0.84840  0.80605  1.0000
  O   O13       1.0  0.22519  0.40355  0.71089  1.0000
  O   O14       1.0  0.77481  0.59645  0.28911  1.0000
  O   O15       1.0  0.49037  0.27820  0.80846  1.0000
  O   O16       1.0  0.50963  0.72180  0.19154  1.0000
  O   O17       1.0  0.51404  0.42232  0.64411  1.0000
  O   O18       1.0  0.48596  0.57768  0.35589  1.0000
  O   O19       1.0  0.33161  0.28190  0.40806  1.0000
  O   O20       1.0  0.66839  0.71810  0.59193  1.0000
