data_image0
_chemical_formula_structural       Ag4H8C12S4O16
_chemical_formula_sum              "Ag4 H8 C12 S4 O16"
_cell_length_a       5.37007
_cell_length_b       5.36161
_cell_length_c       17.6121
_cell_angle_alpha    98.0921
_cell_angle_beta     97.0022
_cell_angle_gamma    98.0624

_space_group_name_H-M_alt    "P 1"
_space_group_IT_number       1

loop_
  _space_group_symop_operation_xyz
  'x, y, z'

loop_
  _atom_site_type_symbol
  _atom_site_label
  _atom_site_symmetry_multiplicity
  _atom_site_fract_x
  _atom_site_fract_y
  _atom_site_fract_z
  _atom_site_occupancy
  Ag  Ag1       1.0  0.17641  0.31316  0.49963  1.0000
  Ag  Ag2       1.0  0.31334  0.67640  0.00001  1.0000
  Ag  Ag3       1.0  0.82359  0.68685  0.50037  1.0000
  Ag  Ag4       1.0  0.68665  0.32357  0.99999  1.0000
  H   H1        1.0  0.81885  0.34696  0.63422  1.0000
  H   H2        1.0  0.21283  0.18515  0.86599  1.0000
  H   H3        1.0  0.18114  0.65303  0.36578  1.0000
  H   H4        1.0  0.78717  0.81485  0.13401  1.0000
  H   H5        1.0  0.70053  0.95059  0.74992  1.0000
  H   H6        1.0  0.29946  0.04941  0.25008  1.0000
  H   H7        1.0  0.99682  0.24687  0.75016  1.0000
  H   H8        1.0  0.00319  0.75313  0.24984  1.0000
  C   C1        1.0  0.54639  0.79647  0.74999  1.0000
  C   C2        1.0  0.45361  0.20354  0.25001  1.0000
  C   C3        1.0  0.34541  0.74353  0.68945  1.0000
  C   C4        1.0  0.55417  0.65620  0.81059  1.0000
  C   C5        1.0  0.65460  0.25647  0.31055  1.0000
  C   C6        1.0  0.44583  0.34380  0.18941  1.0000
  C   C7        1.0  0.14290  0.54437  0.68959  1.0000
  C   C8        1.0  0.35495  0.45358  0.81053  1.0000
  C   C9        1.0  0.85709  0.45563  0.31042  1.0000
  C   C10       1.0  0.64505  0.54642  0.18947  1.0000
  C   C11       1.0  0.15138  0.40137  0.75008  1.0000
  C   C12       1.0  0.84862  0.59863  0.24991  1.0000
  S   S1        1.0  0.37067  0.91278  0.61094  1.0000
  S   S2        1.0  0.80182  0.75968  0.88912  1.0000
  S   S3        1.0  0.62933  0.08722  0.38906  1.0000
  S   S4        1.0  0.19818  0.24032  0.11089  1.0000
  O   O1        1.0  0.12477  0.00119  0.59085  1.0000
  O   O2        1.0  0.90974  0.53315  0.90908  1.0000
  O   O3        1.0  0.87524  0.99880  0.40915  1.0000
  O   O4        1.0  0.09026  0.46684  0.09092  1.0000
  O   O5        1.0  0.58076  0.12297  0.63738  1.0000
  O   O6        1.0  0.98551  0.94352  0.86278  1.0000
  O   O7        1.0  0.41925  0.87703  0.36262  1.0000
  O   O8        1.0  0.01449  0.05647  0.13722  1.0000
  O   O9        1.0  0.42030  0.72811  0.54518  1.0000
  O   O10       1.0  0.68327  0.87518  0.95490  1.0000
  O   O11       1.0  0.57970  0.27189  0.45482  1.0000
  O   O12       1.0  0.31673  0.12481  0.04510  1.0000
  O   O13       1.0  0.94757  0.49741  0.63067  1.0000
  O   O14       1.0  0.36682  0.31729  0.86951  1.0000
  O   O15       1.0  0.05243  0.50260  0.36933  1.0000
  O   O16       1.0  0.63318  0.68272  0.13049  1.0000
