data_image0
_chemical_formula_structural       K4H6C12N6O18
_chemical_formula_sum              "K4 H6 C12 N6 O18"
_cell_length_a       7.08275
_cell_length_b       9.40153
_cell_length_c       9.8261
_cell_angle_alpha    115.87
_cell_angle_beta     108.276
_cell_angle_gamma    93.8002

_space_group_name_H-M_alt    "P 1"
_space_group_IT_number       1

loop_
  _space_group_symop_operation_xyz
  'x, y, z'

loop_
  _atom_site_type_symbol
  _atom_site_label
  _atom_site_symmetry_multiplicity
  _atom_site_fract_x
  _atom_site_fract_y
  _atom_site_fract_z
  _atom_site_occupancy
  K   K1        1.0  0.06610  0.28149  0.42886  1.0000
  K   K2        1.0  0.93392  0.71851  0.57115  1.0000
  K   K3        1.0  0.46741  0.09012  0.21571  1.0000
  K   K4        1.0  0.53261  0.90988  0.78430  1.0000
  H   H1        1.0  0.40559  0.74560  0.19829  1.0000
  H   H2        1.0  0.59441  0.25439  0.80170  1.0000
  H   H3        1.0  0.81779  0.06473  0.52080  1.0000
  H   H4        1.0  0.18221  0.93528  0.47921  1.0000
  H   H5        1.0  0.81642  0.91455  0.36565  1.0000
  H   H6        1.0  0.18358  0.08545  0.63435  1.0000
  C   C1        1.0  0.22064  0.36270  0.13587  1.0000
  C   C2        1.0  0.77936  0.63729  0.86413  1.0000
  C   C3        1.0  0.14714  0.28577  0.95964  1.0000
  C   C4        1.0  0.85285  0.71423  0.04036  1.0000
  C   C5        1.0  0.16656  0.36139  0.86330  1.0000
  C   C6        1.0  0.83343  0.63861  0.13670  1.0000
  C   C7        1.0  0.25975  0.53702  0.95980  1.0000
  C   C8        1.0  0.74024  0.46298  0.04020  1.0000
  C   C9        1.0  0.33208  0.61660  0.13009  1.0000
  C   C10       1.0  0.66791  0.38340  0.86990  1.0000
  C   C11       1.0  0.30783  0.53805  0.21605  1.0000
  C   C12       1.0  0.69217  0.46194  0.78395  1.0000
  N   N1        1.0  0.05908  0.11501  0.87215  1.0000
  N   N2        1.0  0.94092  0.88499  0.12785  1.0000
  N   N3        1.0  0.28534  0.63210  0.88505  1.0000
  N   N4        1.0  0.71466  0.36790  0.11495  1.0000
  N   N5        1.0  0.37891  0.63424  0.38967  1.0000
  N   N6        1.0  0.62109  0.36576  0.61033  1.0000
  O   O1        1.0  0.21371  0.28723  0.21355  1.0000
  O   O2        1.0  0.78629  0.71277  0.78645  1.0000
  O   O3        1.0  0.14916  0.02287  0.91515  1.0000
  O   O4        1.0  0.85083  0.97713  0.08485  1.0000
  O   O5        1.0  0.89030  0.06051  0.75185  1.0000
  O   O6        1.0  0.10969  0.93948  0.24814  1.0000
  O   O7        1.0  0.12328  0.27960  0.71097  1.0000
  O   O8        1.0  0.87672  0.72040  0.28903  1.0000
  O   O9        1.0  0.19966  0.57491  0.73313  1.0000
  O   O10       1.0  0.80035  0.42509  0.26687  1.0000
  O   O11       1.0  0.39537  0.77588  0.97388  1.0000
  O   O12       1.0  0.60463  0.22412  0.02612  1.0000
  O   O13       1.0  0.51959  0.76113  0.45944  1.0000
  O   O14       1.0  0.48042  0.23886  0.54056  1.0000
  O   O15       1.0  0.29977  0.59307  0.46837  1.0000
  O   O16       1.0  0.70023  0.40693  0.53163  1.0000
  O   O17       1.0  0.78105  0.02198  0.40325  1.0000
  O   O18       1.0  0.21895  0.97803  0.59675  1.0000
