data_image0
_chemical_formula_structural       Zn2H48C52N4O12
_chemical_formula_sum              "Zn2 H48 C52 N4 O12"
_cell_length_a       10.5339
_cell_length_b       10.5049
_cell_length_c       13.0543
_cell_angle_alpha    93.9111
_cell_angle_beta     113.571
_cell_angle_gamma    114.917

_space_group_name_H-M_alt    "P 1"
_space_group_IT_number       1

loop_
  _space_group_symop_operation_xyz
  'x, y, z'

loop_
  _atom_site_type_symbol
  _atom_site_label
  _atom_site_symmetry_multiplicity
  _atom_site_fract_x
  _atom_site_fract_y
  _atom_site_fract_z
  _atom_site_occupancy
  Zn  Zn1       1.0  0.25256  0.50263  0.75000  1.0000
  Zn  Zn2       1.0  0.74744  0.49737  0.25000  1.0000
  H   H1        1.0  0.94986  0.76766  0.08268  1.0000
  H   H2        1.0  0.81511  0.13247  0.58267  1.0000
  H   H3        1.0  0.05014  0.23234  0.91732  1.0000
  H   H4        1.0  0.18489  0.86753  0.41733  1.0000
  H   H5        1.0  0.56265  0.54220  0.93691  1.0000
  H   H6        1.0  0.89433  0.37417  0.43712  1.0000
  H   H7        1.0  0.43735  0.45780  0.06309  1.0000
  H   H8        1.0  0.10567  0.62583  0.56288  1.0000
  H   H9        1.0  0.92639  0.80516  0.20665  1.0000
  H   H10       1.0  0.90219  0.28051  0.70676  1.0000
  H   H11       1.0  0.07362  0.19484  0.79335  1.0000
  H   H12       1.0  0.09781  0.71949  0.29325  1.0000
  H   H13       1.0  0.75557  0.93462  0.68258  1.0000
  H   H14       1.0  0.24830  0.92723  0.18277  1.0000
  H   H15       1.0  0.24442  0.06538  0.31742  1.0000
  H   H16       1.0  0.75170  0.07277  0.81723  1.0000
  H   H17       1.0  0.89352  0.89859  0.57479  1.0000
  H   H18       1.0  0.17637  0.68093  0.07478  1.0000
  H   H19       1.0  0.10648  0.10141  0.42521  1.0000
  H   H20       1.0  0.82363  0.31907  0.92522  1.0000
  H   H21       1.0  0.53211  0.63510  0.49138  1.0000
  H   H22       1.0  0.35594  0.95833  0.99124  1.0000
  H   H23       1.0  0.46789  0.36490  0.50863  1.0000
  H   H24       1.0  0.64406  0.04167  0.00876  1.0000
  H   H25       1.0  0.48055  0.54249  0.65091  1.0000
  H   H26       1.0  0.60825  0.17014  0.15089  1.0000
  H   H27       1.0  0.51944  0.45751  0.34909  1.0000
  H   H28       1.0  0.39175  0.82986  0.84911  1.0000
  H   H29       1.0  0.02304  0.74639  0.62718  1.0000
  H   H30       1.0  0.38053  0.60356  0.12694  1.0000
  H   H31       1.0  0.97696  0.25361  0.37282  1.0000
  H   H32       1.0  0.61946  0.39644  0.87306  1.0000
  H   H33       1.0  0.87582  0.65938  0.88937  1.0000
  H   H34       1.0  0.73013  0.01420  0.38952  1.0000
  H   H35       1.0  0.12418  0.34062  0.11063  1.0000
  H   H36       1.0  0.26987  0.98580  0.61048  1.0000
  H   H37       1.0  0.35931  0.72611  0.36344  1.0000
  H   H38       1.0  0.13703  0.00330  0.86335  1.0000
  H   H39       1.0  0.64069  0.27388  0.63656  1.0000
  H   H40       1.0  0.86297  0.99670  0.13665  1.0000
  H   H41       1.0  0.74854  0.81740  0.84110  1.0000
  H   H42       1.0  0.52409  0.09328  0.34146  1.0000
  H   H43       1.0  0.25146  0.18260  0.15890  1.0000
  H   H44       1.0  0.47591  0.90672  0.65854  1.0000
  H   H45       1.0  0.88102  0.54730  0.11587  1.0000
  H   H46       1.0  0.06826  0.23455  0.61587  1.0000
  H   H47       1.0  0.11898  0.45270  0.88413  1.0000
  H   H48       1.0  0.93174  0.76546  0.38413  1.0000
  C   C1        1.0  0.03917  0.60396  0.79317  1.0000
  C   C2        1.0  0.68925  0.75416  0.29311  1.0000
  C   C3        1.0  0.96083  0.39604  0.20683  1.0000
  C   C4        1.0  0.31075  0.24585  0.70689  1.0000
  C   C5        1.0  0.95869  0.69507  0.76236  1.0000
  C   C6        1.0  0.56737  0.80374  0.26234  1.0000
  C   C7        1.0  0.04131  0.30493  0.23764  1.0000
  C   C8        1.0  0.43263  0.19626  0.73766  1.0000
  C   C9        1.0  0.96257  0.76222  0.67355  1.0000
  C   C10       1.0  0.41136  0.71076  0.17347  1.0000
  C   C11       1.0  0.03743  0.23778  0.32645  1.0000
  C   C12       1.0  0.58864  0.28924  0.82653  1.0000
  C   C13       1.0  0.88937  0.84782  0.64433  1.0000
  C   C14       1.0  0.29669  0.75477  0.14437  1.0000
  C   C15       1.0  0.11064  0.15218  0.35567  1.0000
  C   C16       1.0  0.70331  0.24523  0.85563  1.0000
  C   C17       1.0  0.81314  0.86794  0.70525  1.0000
  C   C18       1.0  0.33756  0.89228  0.20546  1.0000
  C   C19       1.0  0.18686  0.13206  0.29474  1.0000
  C   C20       1.0  0.66244  0.10772  0.79454  1.0000
  C   C21       1.0  0.80865  0.80172  0.79412  1.0000
  C   C22       1.0  0.49267  0.98588  0.29439  1.0000
  C   C23       1.0  0.19135  0.19828  0.20588  1.0000
  C   C24       1.0  0.50733  0.01412  0.70561  1.0000
  C   C25       1.0  0.88003  0.71434  0.82194  1.0000
  C   C26       1.0  0.60773  0.94232  0.32211  1.0000
  C   C27       1.0  0.11997  0.28566  0.17806  1.0000
  C   C28       1.0  0.39227  0.05768  0.67789  1.0000
  C   C29       1.0  0.19897  0.63072  0.54404  1.0000
  C   C30       1.0  0.41339  0.34528  0.04420  1.0000
  C   C31       1.0  0.80103  0.36928  0.45596  1.0000
  C   C32       1.0  0.58662  0.65472  0.95580  1.0000
  C   C33       1.0  0.21986  0.68615  0.45449  1.0000
  C   C34       1.0  0.26830  0.23450  0.95463  1.0000
  C   C35       1.0  0.78014  0.31385  0.54551  1.0000
  C   C36       1.0  0.73170  0.76550  0.04537  1.0000
  C   C37       1.0  0.34044  0.68619  0.43387  1.0000
  C   C38       1.0  0.24751  0.09287  0.93386  1.0000
  C   C39       1.0  0.65956  0.31381  0.56613  1.0000
  C   C40       1.0  0.75249  0.90713  0.06614  1.0000
  C   C41       1.0  0.43588  0.63447  0.50413  1.0000
  C   C42       1.0  0.36944  0.06765  0.00404  1.0000
  C   C43       1.0  0.56411  0.36552  0.49587  1.0000
  C   C44       1.0  0.63056  0.93235  0.99596  1.0000
  C   C45       1.0  0.40836  0.58303  0.59288  1.0000
  C   C46       1.0  0.50973  0.18427  0.09284  1.0000
  C   C47       1.0  0.59164  0.41697  0.40712  1.0000
  C   C48       1.0  0.49027  0.81573  0.90716  1.0000
  C   C49       1.0  0.11839  0.74680  0.38356  1.0000
  C   C50       1.0  0.13682  0.26502  0.88365  1.0000
  C   C51       1.0  0.88161  0.25320  0.61644  1.0000
  C   C52       1.0  0.86318  0.73498  0.11635  1.0000
  N   N1        1.0  0.29129  0.58083  0.61205  1.0000
  N   N2        1.0  0.53123  0.32091  0.11213  1.0000
  N   N3        1.0  0.70871  0.41917  0.38795  1.0000
  N   N4        1.0  0.46877  0.67909  0.88787  1.0000
  O   O1        1.0  0.02036  0.53158  0.86493  1.0000
  O   O2        1.0  0.83335  0.84501  0.36497  1.0000
  O   O3        1.0  0.97964  0.46842  0.13507  1.0000
  O   O4        1.0  0.16665  0.15499  0.63503  1.0000
  O   O5        1.0  0.12284  0.60709  0.74321  1.0000
  O   O6        1.0  0.63604  0.62013  0.24291  1.0000
  O   O7        1.0  0.87716  0.39291  0.25679  1.0000
  O   O8        1.0  0.36396  0.37987  0.75709  1.0000
  O   O9        1.0  0.97261  0.69131  0.38816  1.0000
  O   O10       1.0  0.19701  0.41579  0.88821  1.0000
  O   O11       1.0  0.02739  0.30869  0.61184  1.0000
  O   O12       1.0  0.80299  0.58421  0.11179  1.0000
