data_image0
_chemical_formula_structural       Zn4H60C48N12O20
_chemical_formula_sum              "Zn4 H60 C48 N12 O20"
_cell_length_a       9.21471
_cell_length_b       11.0953
_cell_length_c       14.054
_cell_angle_alpha    90
_cell_angle_beta     92.0771
_cell_angle_gamma    90

_space_group_name_H-M_alt    "P 1"
_space_group_IT_number       1

loop_
  _space_group_symop_operation_xyz
  'x, y, z'

loop_
  _atom_site_type_symbol
  _atom_site_label
  _atom_site_symmetry_multiplicity
  _atom_site_fract_x
  _atom_site_fract_y
  _atom_site_fract_z
  _atom_site_occupancy
  Zn  Zn1       1.0  0.78337  0.78332  0.15600  1.0000
  Zn  Zn2       1.0  0.71663  0.28332  0.84400  1.0000
  Zn  Zn3       1.0  0.21663  0.21668  0.84400  1.0000
  Zn  Zn4       1.0  0.28337  0.71668  0.15600  1.0000
  H   H1        1.0  0.54280  0.15399  0.14830  1.0000
  H   H2        1.0  0.95720  0.65399  0.85170  1.0000
  H   H3        1.0  0.45720  0.84601  0.85170  1.0000
  H   H4        1.0  0.04280  0.34601  0.14830  1.0000
  H   H5        1.0  0.55550  0.32100  0.26801  1.0000
  H   H6        1.0  0.94450  0.82100  0.73199  1.0000
  H   H7        1.0  0.44450  0.67900  0.73199  1.0000
  H   H8        1.0  0.05550  0.17900  0.26801  1.0000
  H   H9        1.0  0.85715  0.11325  0.44163  1.0000
  H   H10       1.0  0.64285  0.61325  0.55837  1.0000
  H   H11       1.0  0.14285  0.88675  0.55838  1.0000
  H   H12       1.0  0.35715  0.38675  0.44162  1.0000
  H   H13       1.0  0.92167  0.92494  0.40831  1.0000
  H   H14       1.0  0.57833  0.42494  0.59169  1.0000
  H   H15       1.0  0.07833  0.07506  0.59169  1.0000
  H   H16       1.0  0.42167  0.57506  0.40831  1.0000
  H   H17       1.0  0.96909  0.72839  0.40724  1.0000
  H   H18       1.0  0.53091  0.22839  0.59276  1.0000
  H   H19       1.0  0.03091  0.27161  0.59276  1.0000
  H   H20       1.0  0.46909  0.77161  0.40724  1.0000
  H   H21       1.0  0.06272  0.72031  0.29922  1.0000
  H   H22       1.0  0.43728  0.22031  0.70078  1.0000
  H   H23       1.0  0.93728  0.27969  0.70078  1.0000
  H   H24       1.0  0.56272  0.77969  0.29922  1.0000
  H   H25       1.0  0.93750  0.52654  0.32953  1.0000
  H   H26       1.0  0.56250  0.02654  0.67047  1.0000
  H   H27       1.0  0.06250  0.47346  0.67047  1.0000
  H   H28       1.0  0.43750  0.97346  0.32953  1.0000
  H   H29       1.0  0.76818  0.60221  0.33359  1.0000
  H   H30       1.0  0.73182  0.10221  0.66641  1.0000
  H   H31       1.0  0.23182  0.39779  0.66641  1.0000
  H   H32       1.0  0.26818  0.89779  0.33359  1.0000
  H   H33       1.0  0.80059  0.41265  0.20174  1.0000
  H   H34       1.0  0.69941  0.91265  0.79826  1.0000
  H   H35       1.0  0.19941  0.58735  0.79826  1.0000
  H   H36       1.0  0.30059  0.08736  0.20173  1.0000
  H   H37       1.0  0.76682  0.48481  0.08979  1.0000
  H   H38       1.0  0.73318  0.98481  0.91021  1.0000
  H   H39       1.0  0.23318  0.51519  0.91021  1.0000
  H   H40       1.0  0.26682  0.01519  0.08979  1.0000
  H   H41       1.0  0.65085  0.51366  0.18574  1.0000
  H   H42       1.0  0.84915  0.01366  0.81427  1.0000
  H   H43       1.0  0.34915  0.48634  0.81427  1.0000
  H   H44       1.0  0.15085  0.98634  0.18574  1.0000
  H   H45       1.0  0.68973  0.72293  0.94327  1.0000
  H   H46       1.0  0.81027  0.22293  0.05673  1.0000
  H   H47       1.0  0.31027  0.27707  0.05673  1.0000
  H   H48       1.0  0.18973  0.77707  0.94327  1.0000
  H   H49       1.0  0.53089  0.65156  0.88950  1.0000
  H   H50       1.0  0.96911  0.15156  0.11050  1.0000
  H   H51       1.0  0.46911  0.34844  0.11050  1.0000
  H   H52       1.0  0.03090  0.84844  0.88950  1.0000
  H   H53       1.0  0.65405  0.56865  0.96374  1.0000
  H   H54       1.0  0.84595  0.06865  0.03626  1.0000
  H   H55       1.0  0.34595  0.43135  0.03626  1.0000
  H   H56       1.0  0.15405  0.93135  0.96374  1.0000
  H   H57       1.0  0.95525  0.59126  0.16877  1.0000
  H   H58       1.0  0.54475  0.09126  0.83123  1.0000
  H   H59       1.0  0.04475  0.40874  0.83123  1.0000
  H   H60       1.0  0.45525  0.90874  0.16877  1.0000
  C   C1        1.0  0.69108  0.03644  0.22601  1.0000
  C   C2        1.0  0.80892  0.53644  0.77399  1.0000
  C   C3        1.0  0.30892  0.96356  0.77399  1.0000
  C   C4        1.0  0.19108  0.46356  0.22601  1.0000
  C   C5        1.0  0.61073  0.14648  0.21304  1.0000
  C   C6        1.0  0.88927  0.64648  0.78696  1.0000
  C   C7        1.0  0.38927  0.85352  0.78696  1.0000
  C   C8        1.0  0.11073  0.35352  0.21304  1.0000
  C   C9        1.0  0.61825  0.23861  0.27822  1.0000
  C   C10       1.0  0.88175  0.73861  0.72178  1.0000
  C   C11       1.0  0.38175  0.76139  0.72178  1.0000
  C   C12       1.0  0.11825  0.26139  0.27822  1.0000
  C   C13       1.0  0.70969  0.22694  0.36057  1.0000
  C   C14       1.0  0.79031  0.72694  0.63943  1.0000
  C   C15       1.0  0.29031  0.77306  0.63943  1.0000
  C   C16       1.0  0.20969  0.27306  0.36057  1.0000
  C   C17       1.0  0.78942  0.12191  0.37687  1.0000
  C   C18       1.0  0.71058  0.62191  0.62313  1.0000
  C   C19       1.0  0.21058  0.87809  0.62313  1.0000
  C   C20       1.0  0.28942  0.37809  0.37687  1.0000
  C   C21       1.0  0.78241  0.02660  0.31185  1.0000
  C   C22       1.0  0.71759  0.52660  0.68815  1.0000
  C   C23       1.0  0.21759  0.97340  0.68815  1.0000
  C   C24       1.0  0.28241  0.47340  0.31185  1.0000
  C   C25       1.0  0.86408  0.92004  0.33851  1.0000
  C   C26       1.0  0.63592  0.42005  0.66149  1.0000
  C   C27       1.0  0.13592  0.07995  0.66149  1.0000
  C   C28       1.0  0.36408  0.57995  0.33851  1.0000
  C   C29       1.0  0.95414  0.72102  0.32953  1.0000
  C   C30       1.0  0.54586  0.22102  0.67047  1.0000
  C   C31       1.0  0.04586  0.27898  0.67047  1.0000
  C   C32       1.0  0.45414  0.77898  0.32953  1.0000
  C   C33       1.0  0.87555  0.60491  0.30183  1.0000
  C   C34       1.0  0.62445  0.10491  0.69818  1.0000
  C   C35       1.0  0.12445  0.39509  0.69817  1.0000
  C   C36       1.0  0.37555  0.89509  0.30183  1.0000
  C   C37       1.0  0.76365  0.49683  0.16707  1.0000
  C   C38       1.0  0.73635  0.99683  0.83293  1.0000
  C   C39       1.0  0.23635  0.50317  0.83293  1.0000
  C   C40       1.0  0.26365  0.00317  0.16707  1.0000
  C   C41       1.0  0.60254  0.65727  0.95310  1.0000
  C   C42       1.0  0.89746  0.15727  0.04690  1.0000
  C   C43       1.0  0.39746  0.34273  0.04690  1.0000
  C   C44       1.0  0.10254  0.84273  0.95310  1.0000
  C   C45       1.0  0.51751  0.68801  0.03917  1.0000
  C   C46       1.0  0.98249  0.18801  0.96083  1.0000
  C   C47       1.0  0.48249  0.31199  0.96083  1.0000
  C   C48       1.0  0.01751  0.81199  0.03917  1.0000
  N   N1        1.0  0.72090  0.32356  0.42797  1.0000
  N   N2        1.0  0.77910  0.82356  0.57203  1.0000
  N   N3        1.0  0.27910  0.67644  0.57203  1.0000
  N   N4        1.0  0.22090  0.17644  0.42797  1.0000
  N   N5        1.0  0.87227  0.82231  0.28916  1.0000
  N   N6        1.0  0.62773  0.32231  0.71084  1.0000
  N   N7        1.0  0.12773  0.17769  0.71084  1.0000
  N   N8        1.0  0.37227  0.67769  0.28916  1.0000
  N   N9        1.0  0.85437  0.59983  0.19728  1.0000
  N   N10       1.0  0.64563  0.09983  0.80272  1.0000
  N   N11       1.0  0.14563  0.40017  0.80272  1.0000
  N   N12       1.0  0.35437  0.90017  0.19729  1.0000
  O   O1        1.0  0.80637  0.31300  0.49888  1.0000
  O   O2        1.0  0.69363  0.81300  0.50112  1.0000
  O   O3        1.0  0.19363  0.68700  0.50112  1.0000
  O   O4        1.0  0.30637  0.18700  0.49888  1.0000
  O   O5        1.0  0.64429  0.41594  0.41361  1.0000
  O   O6        1.0  0.85571  0.91594  0.58639  1.0000
  O   O7        1.0  0.35571  0.58406  0.58639  1.0000
  O   O8        1.0  0.14429  0.08406  0.41361  1.0000
  O   O9        1.0  0.67613  0.95241  0.16316  1.0000
  O   O10       1.0  0.82387  0.45241  0.83684  1.0000
  O   O11       1.0  0.32387  0.04759  0.83684  1.0000
  O   O12       1.0  0.17613  0.54759  0.16316  1.0000
  O   O13       1.0  0.58107  0.72242  0.11638  1.0000
  O   O14       1.0  0.91893  0.22241  0.88362  1.0000
  O   O15       1.0  0.41892  0.27759  0.88362  1.0000
  O   O16       1.0  0.08107  0.77759  0.11638  1.0000
  O   O17       1.0  0.37914  0.67597  0.03324  1.0000
  O   O18       1.0  0.12086  0.17597  0.96676  1.0000
  O   O19       1.0  0.62086  0.32403  0.96676  1.0000
  O   O20       1.0  0.87914  0.82403  0.03324  1.0000
