data_image0
_chemical_formula_structural       Ag8H24C32O20
_chemical_formula_sum              "Ag8 H24 C32 O20"
_cell_length_a       6.49359
_cell_length_b       11.5464
_cell_length_c       12.2366
_cell_angle_alpha    105.307
_cell_angle_beta     90.0007
_cell_angle_gamma    89.9992

_space_group_name_H-M_alt    "P 1"
_space_group_IT_number       1

loop_
  _space_group_symop_operation_xyz
  'x, y, z'

loop_
  _atom_site_type_symbol
  _atom_site_label
  _atom_site_symmetry_multiplicity
  _atom_site_fract_x
  _atom_site_fract_y
  _atom_site_fract_z
  _atom_site_occupancy
  Ag  Ag1       1.0  0.10584  0.56425  0.20576  1.0000
  Ag  Ag2       1.0  0.60583  0.43575  0.29424  1.0000
  Ag  Ag3       1.0  0.89416  0.43575  0.79424  1.0000
  Ag  Ag4       1.0  0.39416  0.56425  0.70576  1.0000
  Ag  Ag5       1.0  0.83352  0.54653  0.59610  1.0000
  Ag  Ag6       1.0  0.33353  0.45347  0.90390  1.0000
  Ag  Ag7       1.0  0.16646  0.45347  0.40391  1.0000
  Ag  Ag8       1.0  0.66647  0.54653  0.09609  1.0000
  H   H1        1.0  0.28589  0.85892  0.63254  1.0000
  H   H2        1.0  0.78588  0.14109  0.86746  1.0000
  H   H3        1.0  0.71412  0.14109  0.36746  1.0000
  H   H4        1.0  0.21412  0.85891  0.13254  1.0000
  H   H5        1.0  0.47664  0.05005  0.71633  1.0000
  H   H6        1.0  0.97662  0.94995  0.78367  1.0000
  H   H7        1.0  0.52337  0.94995  0.28367  1.0000
  H   H8        1.0  0.02337  0.05005  0.21633  1.0000
  H   H9        1.0  0.83170  0.07670  0.65070  1.0000
  H   H10       1.0  0.33168  0.92330  0.84929  1.0000
  H   H11       1.0  0.16832  0.92330  0.34930  1.0000
  H   H12       1.0  0.66831  0.07670  0.15071  1.0000
  H   H13       1.0  0.99975  0.90887  0.50748  1.0000
  H   H14       1.0  0.49975  0.09112  0.99252  1.0000
  H   H15       1.0  0.00025  0.09112  0.49251  1.0000
  H   H16       1.0  0.50025  0.90888  0.00748  1.0000
  H   H17       1.0  0.77923  0.75826  0.73243  1.0000
  H   H18       1.0  0.27925  0.24174  0.76757  1.0000
  H   H19       1.0  0.22075  0.24175  0.26758  1.0000
  H   H20       1.0  0.72075  0.75826  0.23242  1.0000
  H   H21       1.0  0.98972  0.71008  0.76588  1.0000
  H   H22       1.0  0.48973  0.28992  0.73412  1.0000
  H   H23       1.0  0.01027  0.28993  0.23412  1.0000
  H   H24       1.0  0.51027  0.71008  0.26588  1.0000
  C   C1        1.0  0.73494  0.79486  0.48368  1.0000
  C   C2        1.0  0.23493  0.20513  0.01632  1.0000
  C   C3        1.0  0.26507  0.20513  0.51631  1.0000
  C   C4        1.0  0.76506  0.79487  0.98369  1.0000
  C   C5        1.0  0.53208  0.78095  0.51946  1.0000
  C   C6        1.0  0.03207  0.21905  0.98054  1.0000
  C   C7        1.0  0.46793  0.21905  0.48054  1.0000
  C   C8        1.0  0.96793  0.78095  0.01946  1.0000
  C   C9        1.0  0.44191  0.87184  0.60488  1.0000
  C   C10       1.0  0.94189  0.12816  0.89512  1.0000
  C   C11       1.0  0.55810  0.12816  0.39512  1.0000
  C   C12       1.0  0.05810  0.87184  0.10488  1.0000
  C   C13       1.0  0.54847  0.97845  0.65135  1.0000
  C   C14       1.0  0.04845  0.02155  0.84865  1.0000
  C   C15       1.0  0.45155  0.02155  0.34865  1.0000
  C   C16       1.0  0.95155  0.97845  0.15135  1.0000
  C   C17       1.0  0.74785  0.99339  0.61480  1.0000
  C   C18       1.0  0.24783  0.00661  0.88520  1.0000
  C   C19       1.0  0.25217  0.00661  0.38520  1.0000
  C   C20       1.0  0.75216  0.99339  0.11481  1.0000
  C   C21       1.0  0.84110  0.90092  0.53298  1.0000
  C   C22       1.0  0.34108  0.09907  0.96702  1.0000
  C   C23       1.0  0.15891  0.09907  0.46702  1.0000
  C   C24       1.0  0.65891  0.90093  0.03299  1.0000
  C   C25       1.0  0.40725  0.67397  0.46131  1.0000
  C   C26       1.0  0.90724  0.32603  0.03868  1.0000
  C   C27       1.0  0.59276  0.32603  0.53869  1.0000
  C   C28       1.0  0.09276  0.67397  0.96131  1.0000
  C   C29       1.0  0.84379  0.69753  0.39728  1.0000
  C   C30       1.0  0.34378  0.30246  0.10272  1.0000
  C   C31       1.0  0.15622  0.30247  0.60272  1.0000
  C   C32       1.0  0.65621  0.69754  0.89728  1.0000
  O   O1        1.0  0.94906  0.72935  0.32194  1.0000
  O   O2        1.0  0.44905  0.27064  0.17806  1.0000
  O   O3        1.0  0.05095  0.27064  0.67806  1.0000
  O   O4        1.0  0.55094  0.72936  0.82194  1.0000
  O   O5        1.0  0.82646  0.58895  0.40299  1.0000
  O   O6        1.0  0.32647  0.41105  0.09702  1.0000
  O   O7        1.0  0.17353  0.41105  0.59701  1.0000
  O   O8        1.0  0.67353  0.58895  0.90299  1.0000
  O   O9        1.0  0.40119  0.64490  0.35319  1.0000
  O   O10       1.0  0.90119  0.35510  0.14681  1.0000
  O   O11       1.0  0.59882  0.35510  0.64681  1.0000
  O   O12       1.0  0.09881  0.64490  0.85319  1.0000
  O   O13       1.0  0.31092  0.61632  0.52111  1.0000
  O   O14       1.0  0.81092  0.38369  0.97888  1.0000
  O   O15       1.0  0.68909  0.38369  0.47889  1.0000
  O   O16       1.0  0.18910  0.61632  0.02111  1.0000
  O   O17       1.0  0.91536  0.72996  0.70070  1.0000
  O   O18       1.0  0.41537  0.27004  0.79930  1.0000
  O   O19       1.0  0.08462  0.27004  0.29930  1.0000
  O   O20       1.0  0.58462  0.72996  0.20070  1.0000
