data_image0
_chemical_formula_structural       Lu2H36C30N8O16
_chemical_formula_sum              "Lu2 H36 C30 N8 O16"
_cell_length_a       8.25648
_cell_length_b       10.2566
_cell_length_c       11.4389
_cell_angle_alpha    113.825
_cell_angle_beta     100.54
_cell_angle_gamma    98.7215

_space_group_name_H-M_alt    "P 1"
_space_group_IT_number       1

loop_
  _space_group_symop_operation_xyz
  'x, y, z'

loop_
  _atom_site_type_symbol
  _atom_site_label
  _atom_site_symmetry_multiplicity
  _atom_site_fract_x
  _atom_site_fract_y
  _atom_site_fract_z
  _atom_site_occupancy
  Lu  Lu1       1.0  0.86571  0.09583  0.15889  1.0000
  Lu  Lu2       1.0  0.13429  0.90416  0.84110  1.0000
  H   H1        1.0  0.59127  0.99497  0.90578  1.0000
  H   H2        1.0  0.40873  0.00504  0.09422  1.0000
  H   H3        1.0  0.74140  0.92035  0.86999  1.0000
  H   H4        1.0  0.25861  0.07967  0.13002  1.0000
  H   H5        1.0  0.86880  0.92814  0.60012  1.0000
  H   H6        1.0  0.13119  0.07185  0.39986  1.0000
  H   H7        1.0  0.88518  0.94109  0.45818  1.0000
  H   H8        1.0  0.11482  0.05891  0.54180  1.0000
  H   H9        1.0  0.10769  0.68409  0.33405  1.0000
  H   H10       1.0  0.89232  0.31592  0.66597  1.0000
  H   H11       1.0  0.03669  0.80846  0.28734  1.0000
  H   H12       1.0  0.96330  0.19153  0.71266  1.0000
  H   H13       1.0  0.09667  0.53196  0.44209  1.0000
  H   H14       1.0  0.90332  0.46804  0.55791  1.0000
  H   H15       1.0  0.20989  0.70917  0.55151  1.0000
  H   H16       1.0  0.79011  0.29082  0.44848  1.0000
  H   H17       1.0  0.34669  0.00629  0.29677  1.0000
  H   H18       1.0  0.65332  0.99367  0.70325  1.0000
  H   H19       1.0  0.93976  0.56846  0.81665  1.0000
  H   H20       1.0  0.06024  0.43154  0.18333  1.0000
  H   H21       1.0  0.47977  0.23589  0.37083  1.0000
  H   H22       1.0  0.52023  0.76414  0.62919  1.0000
  H   H23       1.0  0.82847  0.46745  0.29171  1.0000
  H   H24       1.0  0.17153  0.53256  0.70829  1.0000
  H   H25       1.0  0.57389  0.65651  0.18882  1.0000
  H   H26       1.0  0.42610  0.34350  0.81119  1.0000
  H   H27       1.0  0.73928  0.66383  0.31692  1.0000
  H   H28       1.0  0.26073  0.33619  0.68308  1.0000
  H   H29       1.0  0.52092  0.62234  0.32016  1.0000
  H   H30       1.0  0.47909  0.37766  0.67985  1.0000
  H   H31       1.0  0.38896  0.42586  0.02971  1.0000
  H   H32       1.0  0.61106  0.57414  0.97032  1.0000
  H   H33       1.0  0.34266  0.32961  0.12338  1.0000
  H   H34       1.0  0.65736  0.67042  0.87663  1.0000
  H   H35       1.0  0.45974  0.26129  0.00549  1.0000
  H   H36       1.0  0.54026  0.73872  0.99451  1.0000
  C   C1        1.0  0.67294  0.02013  0.30763  1.0000
  C   C2        1.0  0.32702  0.97986  0.69234  1.0000
  C   C3        1.0  0.58434  0.99718  0.40240  1.0000
  C   C4        1.0  0.41564  0.00280  0.59759  1.0000
  C   C5        1.0  0.41357  0.00167  0.38559  1.0000
  C   C6        1.0  0.58641  0.99830  0.61441  1.0000
  C   C7        1.0  0.67291  0.99024  0.51797  1.0000
  C   C8        1.0  0.32706  0.00974  0.48201  1.0000
  C   C9        1.0  0.96202  0.79011  0.04172  1.0000
  C   C10       1.0  0.03798  0.20989  0.95829  1.0000
  C   C11       1.0  0.98142  0.64280  0.02581  1.0000
  C   C12       1.0  0.01858  0.35721  0.97419  1.0000
  C   C13       1.0  0.96642  0.53708  0.89705  1.0000
  C   C14       1.0  0.03359  0.46293  0.10294  1.0000
  C   C15       1.0  0.01569  0.60605  0.13380  1.0000
  C   C16       1.0  0.98433  0.39397  0.86621  1.0000
  C   C17       1.0  0.17672  0.29165  0.33595  1.0000
  C   C18       1.0  0.82329  0.70833  0.66405  1.0000
  C   C19       1.0  0.34103  0.40148  0.41828  1.0000
  C   C20       1.0  0.65898  0.59851  0.58172  1.0000
  C   C21       1.0  0.49017  0.35250  0.42760  1.0000
  C   C22       1.0  0.50985  0.64750  0.57241  1.0000
  C   C23       1.0  0.34996  0.55424  0.49137  1.0000
  C   C24       1.0  0.65005  0.44575  0.50864  1.0000
  C   C25       1.0  0.71540  0.38974  0.21258  1.0000
  C   C26       1.0  0.28461  0.61029  0.78743  1.0000
  C   C27       1.0  0.60801  0.60767  0.25639  1.0000
  C   C28       1.0  0.39200  0.39235  0.74363  1.0000
  C   C29       1.0  0.43803  0.36144  0.07800  1.0000
  C   C30       1.0  0.56200  0.63857  0.92202  1.0000
  N   N1        1.0  0.83736  0.97419  0.53808  1.0000
  N   N2        1.0  0.16261  0.02578  0.46189  1.0000
  N   N3        1.0  0.02940  0.70056  0.26387  1.0000
  N   N4        1.0  0.97060  0.29943  0.73614  1.0000
  N   N5        1.0  0.20906  0.60995  0.47921  1.0000
  N   N6        1.0  0.79094  0.39003  0.52078  1.0000
  N   N7        1.0  0.59584  0.45155  0.17967  1.0000
  N   N8        1.0  0.40418  0.54848  0.82034  1.0000
  O   O1        1.0  0.59632  0.98525  0.18711  1.0000
  O   O2        1.0  0.40367  0.01476  0.81285  1.0000
  O   O3        1.0  0.83226  0.08843  0.35212  1.0000
  O   O4        1.0  0.16770  0.91154  0.64786  1.0000
  O   O5        1.0  0.91607  0.87422  0.14048  1.0000
  O   O6        1.0  0.08392  0.12578  0.85953  1.0000
  O   O7        1.0  0.98734  0.82876  0.95197  1.0000
  O   O8        1.0  0.01268  0.17122  0.04803  1.0000
  O   O9        1.0  0.17087  0.15476  0.26728  1.0000
  O   O10       1.0  0.82910  0.84521  0.73270  1.0000
  O   O11       1.0  0.03549  0.32950  0.33205  1.0000
  O   O12       1.0  0.96455  0.67053  0.66798  1.0000
  O   O13       1.0  0.70277  0.25302  0.15895  1.0000
  O   O14       1.0  0.29722  0.74700  0.84105  1.0000
  O   O15       1.0  0.69310  0.97061  0.94447  1.0000
  O   O16       1.0  0.30690  0.02940  0.05553  1.0000
