data_image0
_chemical_formula_structural       Zn2H26C32Cl2O14
_chemical_formula_sum              "Zn2 H26 C32 Cl2 O14"
_cell_length_a       7.13603
_cell_length_b       9.24543
_cell_length_c       14.3531
_cell_angle_alpha    80.8998
_cell_angle_beta     75.6069
_cell_angle_gamma    67.3103

_space_group_name_H-M_alt    "P 1"
_space_group_IT_number       1

loop_
  _space_group_symop_operation_xyz
  'x, y, z'

loop_
  _atom_site_type_symbol
  _atom_site_label
  _atom_site_symmetry_multiplicity
  _atom_site_fract_x
  _atom_site_fract_y
  _atom_site_fract_z
  _atom_site_occupancy
  Zn  Zn1       1.0  0.05688  0.95148  0.51978  1.0000
  Zn  Zn2       1.0  0.52820  0.04860  0.48023  1.0000
  H   H1        1.0  0.63904  0.27686  0.74464  1.0000
  H   H2        1.0  0.66045  0.72300  0.25540  1.0000
  H   H3        1.0  0.66646  0.51721  0.57344  1.0000
  H   H4        1.0  0.75601  0.48287  0.42680  1.0000
  H   H5        1.0  0.88568  0.36930  0.61501  1.0000
  H   H6        1.0  0.86938  0.63055  0.38526  1.0000
  H   H7        1.0  0.70484  0.51912  0.69108  1.0000
  H   H8        1.0  0.91447  0.48057  0.30926  1.0000
  H   H9        1.0  0.44877  0.13866  0.78053  1.0000
  H   H10       1.0  0.36746  0.86139  0.21963  1.0000
  H   H11       1.0  0.19103  0.06656  0.90748  1.0000
  H   H12       1.0  0.16469  0.93365  0.09262  1.0000
  H   H13       1.0  0.75221  0.53974  0.89293  1.0000
  H   H14       1.0  0.18472  0.46036  0.10692  1.0000
  H   H15       1.0  0.01287  0.61516  0.76209  1.0000
  H   H16       1.0  0.38948  0.38493  0.23791  1.0000
  H   H17       1.0  0.08178  0.31580  0.05163  1.0000
  H   H18       1.0  0.44904  0.68443  0.94836  1.0000
  H   H19       1.0  0.12733  0.24515  0.22153  1.0000
  H   H20       1.0  0.59398  0.75500  0.77845  1.0000
  H   H21       1.0  0.66140  0.03627  0.27731  1.0000
  H   H22       1.0  0.97513  0.96351  0.72255  1.0000
  H   H23       1.0  0.82327  0.79226  0.60989  1.0000
  H   H24       1.0  0.22553  0.20776  0.39012  1.0000
  H   H25       1.0  0.05060  0.66870  0.56980  1.0000
  H   H26       1.0  0.28932  0.33129  0.43021  1.0000
  C   C1        1.0  0.64354  0.21152  0.60777  1.0000
  C   C2        1.0  0.46262  0.78856  0.39224  1.0000
  C   C3        1.0  0.59438  0.33896  0.67680  1.0000
  C   C4        1.0  0.60977  0.66100  0.32324  1.0000
  C   C5        1.0  0.72128  0.44306  0.63597  1.0000
  C   C6        1.0  0.79963  0.55683  0.36425  1.0000
  C   C7        1.0  0.24718  0.38428  0.76414  1.0000
  C   C8        1.0  0.39514  0.61578  0.23589  1.0000
  C   C9        1.0  0.29800  0.22880  0.80419  1.0000
  C   C10       1.0  0.33056  0.77128  0.19588  1.0000
  C   C11       1.0  0.15231  0.18708  0.87617  1.0000
  C   C12       1.0  0.21523  0.81305  0.12384  1.0000
  C   C13       1.0  0.95789  0.29954  0.90760  1.0000
  C   C14       1.0  0.16481  0.70055  0.09232  1.0000
  C   C15       1.0  0.90473  0.45345  0.86699  1.0000
  C   C16       1.0  0.22492  0.54664  0.13293  1.0000
  C   C17       1.0  0.04893  0.49563  0.79490  1.0000
  C   C18       1.0  0.33900  0.50445  0.20510  1.0000
  C   C19       1.0  0.84112  0.22231  0.07023  1.0000
  C   C20       1.0  0.13368  0.77756  0.92965  1.0000
  C   C21       1.0  0.98712  0.25812  0.10263  1.0000
  C   C22       1.0  0.34785  0.74181  0.89729  1.0000
  C   C23       1.0  0.01172  0.21858  0.19752  1.0000
  C   C24       1.0  0.42784  0.78133  0.80241  1.0000
  C   C25       1.0  0.89489  0.13896  0.26176  1.0000
  C   C26       1.0  0.29568  0.86086  0.73813  1.0000
  C   C27       1.0  0.74946  0.10205  0.22952  1.0000
  C   C28       1.0  0.08115  0.89775  0.77035  1.0000
  C   C29       1.0  0.71977  0.14606  0.13583  1.0000
  C   C30       1.0  0.00171  0.85378  0.86405  1.0000
  C   C31       1.0  0.93256  0.08498  0.36012  1.0000
  C   C32       1.0  0.37766  0.91498  0.63978  1.0000
  Cl  Cl1       1.0  0.53278  0.10704  0.09894  1.0000
  Cl  Cl2       1.0  0.73882  0.89291  0.90091  1.0000
  O   O1        1.0  0.81681  0.10094  0.61000  1.0000
  O   O2        1.0  0.52791  0.89895  0.39005  1.0000
  O   O3        1.0  0.51580  0.22627  0.55599  1.0000
  O   O4        1.0  0.29775  0.77398  0.44397  1.0000
  O   O5        1.0  0.38050  0.43929  0.69596  1.0000
  O   O6        1.0  0.51528  0.56076  0.30406  1.0000
  O   O7        1.0  0.80835  0.25766  0.97839  1.0000
  O   O8        1.0  0.04432  0.74233  0.02152  1.0000
  O   O9        1.0  0.06420  0.11670  0.39154  1.0000
  O   O10       1.0  0.57242  0.88332  0.60831  1.0000
  O   O11       1.0  0.84111  0.99673  0.41500  1.0000
  O   O12       1.0  0.25274  0.00333  0.58499  1.0000
  O   O13       1.0  0.97566  0.76573  0.60229  1.0000
  O   O14       1.0  0.34381  0.23425  0.39774  1.0000
