data_image0
_chemical_formula_structural       Lu2H26C24N6O16
_chemical_formula_sum              "Lu2 H26 C24 N6 O16"
_cell_length_a       10.0812
_cell_length_b       10.2339
_cell_length_c       10.618
_cell_angle_alpha    103.223
_cell_angle_beta     115.5
_cell_angle_gamma    92.7874

_space_group_name_H-M_alt    "P 1"
_space_group_IT_number       1

loop_
  _space_group_symop_operation_xyz
  'x, y, z'

loop_
  _atom_site_type_symbol
  _atom_site_label
  _atom_site_symmetry_multiplicity
  _atom_site_fract_x
  _atom_site_fract_y
  _atom_site_fract_z
  _atom_site_occupancy
  Lu  Lu1       1.0  0.46915  0.23586  0.01446  1.0000
  Lu  Lu2       1.0  0.53086  0.76414  0.98554  1.0000
  H   H1        1.0  0.41224  0.42922  0.83922  1.0000
  H   H2        1.0  0.58775  0.57077  0.16077  1.0000
  H   H3        1.0  0.37426  0.27755  0.74130  1.0000
  H   H4        1.0  0.62574  0.72245  0.25870  1.0000
  H   H5        1.0  0.26975  0.00602  0.74657  1.0000
  H   H6        1.0  0.73024  0.99398  0.25342  1.0000
  H   H7        1.0  0.43903  0.98583  0.81319  1.0000
  H   H8        1.0  0.56096  0.01416  0.18682  1.0000
  H   H9        1.0  0.22224  0.17297  0.17416  1.0000
  H   H10       1.0  0.77776  0.82703  0.82585  1.0000
  H   H11       1.0  0.26773  0.59624  0.15475  1.0000
  H   H12       1.0  0.73228  0.40378  0.84526  1.0000
  H   H13       1.0  0.89099  0.58937  0.28528  1.0000
  H   H14       1.0  0.10901  0.41063  0.71473  1.0000
  H   H15       1.0  0.93912  0.68516  0.77418  1.0000
  H   H16       1.0  0.06087  0.31485  0.22580  1.0000
  H   H17       1.0  0.12876  0.73273  0.86078  1.0000
  H   H18       1.0  0.87122  0.26727  0.13919  1.0000
  H   H19       1.0  0.81760  0.18350  0.79642  1.0000
  H   H20       1.0  0.18242  0.81651  0.20358  1.0000
  H   H21       1.0  0.99729  0.17873  0.82622  1.0000
  H   H22       1.0  0.00272  0.82129  0.17380  1.0000
  H   H23       1.0  0.73752  0.24202  0.44028  1.0000
  H   H24       1.0  0.26247  0.75797  0.55972  1.0000
  H   H25       1.0  0.87543  0.25773  0.61627  1.0000
  H   H26       1.0  0.12457  0.74227  0.38374  1.0000
  C   C1        1.0  0.10976  0.42352  0.99539  1.0000
  C   C2        1.0  0.89025  0.57649  0.00462  1.0000
  C   C3        1.0  0.71286  0.37830  0.26022  1.0000
  C   C4        1.0  0.28713  0.62169  0.73977  1.0000
  C   C5        1.0  0.29541  0.96545  0.03423  1.0000
  C   C6        1.0  0.70457  0.03455  0.96576  1.0000
  C   C7        1.0  0.12344  0.09728  0.09826  1.0000
  C   C8        1.0  0.87656  0.90271  0.90174  1.0000
  C   C9        1.0  0.14234  0.97971  0.01379  1.0000
  C   C10       1.0  0.85765  0.02028  0.98620  1.0000
  C   C11       1.0  0.95753  0.36492  0.90454  1.0000
  C   C12       1.0  0.04248  0.63509  0.09547  1.0000
  C   C13       1.0  0.85837  0.43952  0.38553  1.0000
  C   C14       1.0  0.14163  0.56048  0.61447  1.0000
  C   C15       1.0  0.14918  0.55579  0.08809  1.0000
  C   C16       1.0  0.85084  0.44422  0.91192  1.0000
  C   C17       1.0  0.01603  0.87777  0.91217  1.0000
  C   C18       1.0  0.98398  0.12222  0.08782  1.0000
  C   C19       1.0  0.94019  0.55146  0.38071  1.0000
  C   C20       1.0  0.05981  0.44854  0.61930  1.0000
  C   C21       1.0  0.91838  0.38413  0.50736  1.0000
  C   C22       1.0  0.08163  0.61586  0.49265  1.0000
  C   C23       1.0  0.23256  0.34840  0.00069  1.0000
  C   C24       1.0  0.76745  0.65161  0.99932  1.0000
  N   N1        1.0  0.02725  0.76220  0.82362  1.0000
  N   N2        1.0  0.97274  0.23780  0.17637  1.0000
  N   N3        1.0  0.91296  0.23459  0.80806  1.0000
  N   N4        1.0  0.08706  0.76542  0.19195  1.0000
  N   N5        1.0  0.84626  0.27131  0.51539  1.0000
  N   N6        1.0  0.15374  0.72869  0.48461  1.0000
  O   O1        1.0  0.36317  0.39243  0.10756  1.0000
  O   O2        1.0  0.63684  0.60756  0.89245  1.0000
  O   O3        1.0  0.66024  0.42710  0.14869  1.0000
  O   O4        1.0  0.33976  0.57290  0.85131  1.0000
  O   O5        1.0  0.39615  0.07334  0.09198  1.0000
  O   O6        1.0  0.60384  0.92664  0.90800  1.0000
  O   O7        1.0  0.21214  0.23977  0.90002  1.0000
  O   O8        1.0  0.78787  0.76025  0.09998  1.0000
  O   O9        1.0  0.44513  0.33779  0.83517  1.0000
  O   O10       1.0  0.55488  0.66221  0.16483  1.0000
  O   O11       1.0  0.32651  0.84787  0.99760  1.0000
  O   O12       1.0  0.67348  0.15213  0.00240  1.0000
  O   O13       1.0  0.63660  0.27057  0.25404  1.0000
  O   O14       1.0  0.36340  0.72942  0.74596  1.0000
  O   O15       1.0  0.37161  0.05502  0.79491  1.0000
  O   O16       1.0  0.62838  0.94498  0.20510  1.0000
