data_image0
_chemical_formula_structural       CuH28C40N4O8
_chemical_formula_sum              "Cu1 H28 C40 N4 O8"
_cell_length_a       8.0014
_cell_length_b       8.99694
_cell_length_c       12.3133
_cell_angle_alpha    111.676
_cell_angle_beta     95.1215
_cell_angle_gamma    96.3437

_space_group_name_H-M_alt    "P 1"
_space_group_IT_number       1

loop_
  _space_group_symop_operation_xyz
  'x, y, z'

loop_
  _atom_site_type_symbol
  _atom_site_label
  _atom_site_symmetry_multiplicity
  _atom_site_fract_x
  _atom_site_fract_y
  _atom_site_fract_z
  _atom_site_occupancy
  Cu  Cu1       1.0  1.00000  1.00000  1.00000  1.0000
  H   H1        1.0  0.97939  0.70133  0.17733  1.0000
  H   H2        1.0  0.02062  0.29867  0.82267  1.0000
  H   H3        1.0  0.93188  0.19905  0.34349  1.0000
  H   H4        1.0  0.06812  0.80096  0.65651  1.0000
  H   H5        1.0  0.87991  0.27047  0.55197  1.0000
  H   H6        1.0  0.12009  0.72953  0.44803  1.0000
  H   H7        1.0  0.72407  0.06166  0.60930  1.0000
  H   H8        1.0  0.27593  0.93834  0.39070  1.0000
  H   H9        1.0  0.61873  0.78584  0.45758  1.0000
  H   H10       1.0  0.38127  0.21416  0.54241  1.0000
  H   H11       1.0  0.72250  0.27446  0.11538  1.0000
  H   H12       1.0  0.27751  0.72554  0.88461  1.0000
  H   H13       1.0  0.41842  0.23240  0.02703  1.0000
  H   H14       1.0  0.58158  0.76760  0.97297  1.0000
  H   H15       1.0  0.25928  0.46591  0.07942  1.0000
  H   H16       1.0  0.74072  0.53409  0.92058  1.0000
  H   H17       1.0  0.40413  0.73883  0.21412  1.0000
  H   H18       1.0  0.59587  0.26117  0.78588  1.0000
  H   H19       1.0  0.81352  0.58158  0.54853  1.0000
  H   H20       1.0  0.18648  0.41841  0.45147  1.0000
  H   H21       1.0  0.30811  0.64331  0.63736  1.0000
  H   H22       1.0  0.69189  0.35669  0.36264  1.0000
  H   H23       1.0  0.87098  0.68972  0.75912  1.0000
  H   H24       1.0  0.12902  0.31028  0.24088  1.0000
  H   H25       1.0  0.65334  0.10958  0.92941  1.0000
  H   H26       1.0  0.34666  0.89042  0.07059  1.0000
  H   H27       1.0  0.44051  0.91366  0.72349  1.0000
  H   H28       1.0  0.55949  0.08633  0.27651  1.0000
  C   C1        1.0  0.72573  0.83156  0.31721  1.0000
  C   C2        1.0  0.27427  0.16844  0.68279  1.0000
  C   C3        1.0  0.81556  0.95038  0.28581  1.0000
  C   C4        1.0  0.18444  0.04962  0.71419  1.0000
  C   C5        1.0  0.86829  0.10785  0.37079  1.0000
  C   C6        1.0  0.13171  0.89216  0.62921  1.0000
  C   C7        1.0  0.83776  0.14817  0.48700  1.0000
  C   C8        1.0  0.16224  0.85183  0.51301  1.0000
  C   C9        1.0  0.74960  0.03127  0.51869  1.0000
  C   C10       1.0  0.25040  0.96874  0.48131  1.0000
  C   C11       1.0  0.69222  0.87596  0.43404  1.0000
  C   C12       1.0  0.30778  0.12404  0.56596  1.0000
  C   C13       1.0  0.64931  0.66556  0.23161  1.0000
  C   C14       1.0  0.35069  0.33444  0.76839  1.0000
  C   C15       1.0  0.73756  0.53210  0.20276  1.0000
  C   C16       1.0  0.26245  0.46790  0.79724  1.0000
  C   C17       1.0  0.65289  0.37655  0.13140  1.0000
  C   C18       1.0  0.34711  0.62345  0.86859  1.0000
  C   C19       1.0  0.48275  0.35305  0.08441  1.0000
  C   C20       1.0  0.51725  0.64695  0.91559  1.0000
  C   C21       1.0  0.39332  0.48391  0.11383  1.0000
  C   C22       1.0  0.60668  0.51609  0.88617  1.0000
  C   C23       1.0  0.47562  0.63775  0.18834  1.0000
  C   C24       1.0  0.52438  0.36226  0.81166  1.0000
  C   C25       1.0  0.86048  0.91783  0.16467  1.0000
  C   C26       1.0  0.13952  0.08217  0.83533  1.0000
  C   C27       1.0  0.91943  0.54519  0.25101  1.0000
  C   C28       1.0  0.08057  0.45481  0.74899  1.0000
  C   C29       1.0  0.56852  0.62885  0.60413  1.0000
  C   C30       1.0  0.43148  0.37114  0.39587  1.0000
  C   C31       1.0  0.67640  0.54547  0.52809  1.0000
  C   C32       1.0  0.32360  0.45452  0.47191  1.0000
  C   C33       1.0  0.39247  0.58337  0.57636  1.0000
  C   C34       1.0  0.60753  0.41662  0.42364  1.0000
  C   C35       1.0  0.78606  0.77994  0.77920  1.0000
  C   C36       1.0  0.21395  0.22006  0.22080  1.0000
  C   C37       1.0  0.66667  0.99336  0.86417  1.0000
  C   C38       1.0  0.33333  0.00663  0.13584  1.0000
  C   C39       1.0  0.56017  0.89785  0.76292  1.0000
  C   C40       1.0  0.43983  0.10214  0.23709  1.0000
  N   N1        1.0  0.63718  0.76344  0.70982  1.0000
  N   N2        1.0  0.36282  0.23655  0.29018  1.0000
  N   N3        1.0  0.80628  0.91853  0.87309  1.0000
  N   N4        1.0  0.19372  0.08146  0.12691  1.0000
  O   O1        1.0  0.84649  0.02998  0.12483  1.0000
  O   O2        1.0  0.15351  0.97002  0.87517  1.0000
  O   O3        1.0  0.91779  0.78931  0.10773  1.0000
  O   O4        1.0  0.08221  0.21070  0.89227  1.0000
  O   O5        1.0  0.03444  0.64402  0.22915  1.0000
  O   O6        1.0  0.96556  0.35598  0.77085  1.0000
  O   O7        1.0  0.96092  0.46308  0.30758  1.0000
  O   O8        1.0  0.03907  0.53692  0.69241  1.0000
