data_image0
_chemical_formula_structural       Zn2H10C16N2O14
_chemical_formula_sum              "Zn2 H10 C16 N2 O14"
_cell_length_a       7.41609
_cell_length_b       8.14898
_cell_length_c       8.23415
_cell_angle_alpha    106.365
_cell_angle_beta     105.331
_cell_angle_gamma    94.8938

_space_group_name_H-M_alt    "P 1"
_space_group_IT_number       1

loop_
  _space_group_symop_operation_xyz
  'x, y, z'

loop_
  _atom_site_type_symbol
  _atom_site_label
  _atom_site_symmetry_multiplicity
  _atom_site_fract_x
  _atom_site_fract_y
  _atom_site_fract_z
  _atom_site_occupancy
  Zn  Zn1       1.0  0.32366  0.63336  0.60017  1.0000
  Zn  Zn2       1.0  0.67635  0.36663  0.39983  1.0000
  H   H1        1.0  0.16262  0.34871  0.61456  1.0000
  H   H2        1.0  0.83739  0.65128  0.38544  1.0000
  H   H3        1.0  0.36127  0.40831  0.77399  1.0000
  H   H4        1.0  0.63874  0.59169  0.22602  1.0000
  H   H5        1.0  0.32400  0.11334  0.01350  1.0000
  H   H6        1.0  0.67600  0.88666  0.98650  1.0000
  H   H7        1.0  0.88988  0.41613  0.10760  1.0000
  H   H8        1.0  0.11012  0.58387  0.89240  1.0000
  H   H9        1.0  0.77791  0.99592  0.61718  1.0000
  H   H10       1.0  0.22208  0.00408  0.38283  1.0000
  C   C1        1.0  0.05978  0.04166  0.80113  1.0000
  C   C2        1.0  0.94022  0.95834  0.19887  1.0000
  C   C3        1.0  0.18226  0.14232  0.96740  1.0000
  C   C4        1.0  0.81774  0.85768  0.03259  1.0000
  C   C5        1.0  0.12234  0.27774  0.07770  1.0000
  C   C6        1.0  0.87766  0.72226  0.92229  1.0000
  C   C7        1.0  0.93938  0.31364  0.02182  1.0000
  C   C8        1.0  0.06062  0.68637  0.97818  1.0000
  C   C9        1.0  0.81992  0.21057  0.85568  1.0000
  C   C10       1.0  0.18008  0.78944  0.14432  1.0000
  C   C11       1.0  0.87611  0.07582  0.74422  1.0000
  C   C12       1.0  0.12389  0.92419  0.25578  1.0000
  C   C13       1.0  0.11487  0.88896  0.68483  1.0000
  C   C14       1.0  0.88512  0.11103  0.31517  1.0000
  C   C15       1.0  0.25190  0.37711  0.25947  1.0000
  C   C16       1.0  0.74810  0.62288  0.74053  1.0000
  N   N1        1.0  0.62699  0.24283  0.79470  1.0000
  N   N2        1.0  0.37301  0.75718  0.20531  1.0000
  O   O1        1.0  0.28279  0.85600  0.74391  1.0000
  O   O2        1.0  0.71720  0.14399  0.25609  1.0000
  O   O3        1.0  0.99639  0.79955  0.54016  1.0000
  O   O4        1.0  0.00360  0.20045  0.45984  1.0000
  O   O5        1.0  0.39626  0.31410  0.31817  1.0000
  O   O6        1.0  0.60374  0.68589  0.68183  1.0000
  O   O7        1.0  0.20456  0.51587  0.34407  1.0000
  O   O8        1.0  0.79545  0.48413  0.65593  1.0000
  O   O9        1.0  0.57263  0.35836  0.89888  1.0000
  O   O10       1.0  0.42737  0.64164  0.10114  1.0000
  O   O11       1.0  0.52573  0.15765  0.64368  1.0000
  O   O12       1.0  0.47426  0.84236  0.35633  1.0000
  O   O13       1.0  0.25418  0.45086  0.70594  1.0000
  O   O14       1.0  0.74583  0.54913  0.29406  1.0000
