data_image0
_chemical_formula_structural       Cu2H24C28N8O8
_chemical_formula_sum              "Cu2 H24 C28 N8 O8"
_cell_length_a       4.76845
_cell_length_b       11.0629
_cell_length_c       14.597
_cell_angle_alpha    107.014
_cell_angle_beta     99.4169
_cell_angle_gamma    102.464

_space_group_name_H-M_alt    "P 1"
_space_group_IT_number       1

loop_
  _space_group_symop_operation_xyz
  'x, y, z'

loop_
  _atom_site_type_symbol
  _atom_site_label
  _atom_site_symmetry_multiplicity
  _atom_site_fract_x
  _atom_site_fract_y
  _atom_site_fract_z
  _atom_site_occupancy
  Cu  Cu1       1.0  0.50001  1.00000  1.00000  1.0000
  Cu  Cu2       1.0  0.00002  0.50001  0.50001  1.0000
  H   H1        1.0  0.46893  0.84018  0.14920  1.0000
  H   H2        1.0  0.97970  0.65966  0.35056  1.0000
  H   H3        1.0  0.53110  0.15981  0.85080  1.0000
  H   H4        1.0  0.02029  0.34036  0.64945  1.0000
  H   H5        1.0  0.17657  0.90373  0.29912  1.0000
  H   H6        1.0  0.47303  0.59616  0.20078  1.0000
  H   H7        1.0  0.82345  0.09626  0.70087  1.0000
  H   H8        1.0  0.52695  0.40383  0.79922  1.0000
  H   H9        1.0  0.11917  0.15464  0.13084  1.0000
  H   H10       1.0  0.33346  0.34533  0.36916  1.0000
  H   H11       1.0  0.88085  0.84537  0.86917  1.0000
  H   H12       1.0  0.66656  0.65467  0.63085  1.0000
  H   H13       1.0  0.88193  0.71635  0.06439  1.0000
  H   H14       1.0  0.59934  0.78340  0.43531  1.0000
  H   H15       1.0  0.11804  0.28365  0.93562  1.0000
  H   H16       1.0  0.40066  0.21661  0.56468  1.0000
  H   H17       1.0  0.02403  0.47253  0.88657  1.0000
  H   H18       1.0  0.16595  0.02777  0.61367  1.0000
  H   H19       1.0  0.97593  0.52747  0.11343  1.0000
  H   H20       1.0  0.83404  0.97223  0.38632  1.0000
  H   H21       1.0  0.99859  0.09951  0.28243  1.0000
  H   H22       1.0  0.11587  0.40041  0.21759  1.0000
  H   H23       1.0  0.00142  0.90048  0.71757  1.0000
  H   H24       1.0  0.88414  0.59959  0.78242  1.0000
  C   C1        1.0  0.35024  0.91352  0.16730  1.0000
  C   C2        1.0  0.76937  0.58637  0.33255  1.0000
  C   C3        1.0  0.64978  0.08647  0.83270  1.0000
  C   C4        1.0  0.23063  0.41364  0.66746  1.0000
  C   C5        1.0  0.20562  0.94424  0.24115  1.0000
  C   C6        1.0  0.51991  0.55561  0.25871  1.0000
  C   C7        1.0  0.79439  0.05576  0.75884  1.0000
  C   C8        1.0  0.48006  0.44439  0.74129  1.0000
  C   C9        1.0  0.17870  0.07797  0.15541  1.0000
  C   C10       1.0  0.44511  0.42196  0.34454  1.0000
  C   C11       1.0  0.82132  0.92203  0.84459  1.0000
  C   C12       1.0  0.55491  0.57805  0.65547  1.0000
  C   C13       1.0  0.38976  0.72148  0.94543  1.0000
  C   C14       1.0  0.22253  0.77864  0.55466  1.0000
  C   C15       1.0  0.61024  0.27853  0.05457  1.0000
  C   C16       1.0  0.77749  0.22136  0.44534  1.0000
  C   C17       1.0  0.44719  0.60628  0.97252  1.0000
  C   C18       1.0  0.36794  0.89376  0.52746  1.0000
  C   C19       1.0  0.55278  0.39372  0.02749  1.0000
  C   C20       1.0  0.63206  0.10624  0.47253  1.0000
  C   C21       1.0  0.71555  0.62124  0.03675  1.0000
  C   C22       1.0  0.55664  0.87861  0.46310  1.0000
  C   C23       1.0  0.28443  0.37876  0.96326  1.0000
  C   C24       1.0  0.44336  0.12139  0.53689  1.0000
  C   C25       1.0  0.23250  0.48405  0.93613  1.0000
  C   C26       1.0  0.31278  0.01612  0.56398  1.0000
  C   C27       1.0  0.76747  0.51594  0.06387  1.0000
  C   C28       1.0  0.68719  0.98387  0.43601  1.0000
  N   N1        1.0  0.33093  0.99753  0.11402  1.0000
  N   N2        1.0  0.71947  0.50238  0.38586  1.0000
  N   N3        1.0  0.66910  0.00247  0.88598  1.0000
  N   N4        1.0  0.28054  0.49763  0.61415  1.0000
  N   N5        1.0  0.10032  0.04779  0.23257  1.0000
  N   N6        1.0  0.31942  0.45215  0.26742  1.0000
  N   N7        1.0  0.89969  0.95221  0.76743  1.0000
  N   N8        1.0  0.68058  0.54784  0.73259  1.0000
  O   O1        1.0  0.16321  0.70770  0.88132  1.0000
  O   O2        1.0  0.07366  0.79245  0.61868  1.0000
  O   O3        1.0  0.83679  0.29231  0.11867  1.0000
  O   O4        1.0  0.92632  0.20755  0.38131  1.0000
  O   O5        1.0  0.58682  0.83208  0.99538  1.0000
  O   O6        1.0  0.25916  0.66807  0.50486  1.0000
  O   O7        1.0  0.41319  0.16792  0.00462  1.0000
  O   O8        1.0  0.74083  0.33193  0.49514  1.0000
