data_image0
_chemical_formula_structural       Sn4H48C40O8F8
_chemical_formula_sum              "Sn4 H48 C40 O8 F8"
_cell_length_a       8.15667
_cell_length_b       8.16542
_cell_length_c       18.7571
_cell_angle_alpha    80.0515
_cell_angle_beta     80.0161
_cell_angle_gamma    75.7397

_space_group_name_H-M_alt    "P 1"
_space_group_IT_number       1

loop_
  _space_group_symop_operation_xyz
  'x, y, z'

loop_
  _atom_site_type_symbol
  _atom_site_label
  _atom_site_symmetry_multiplicity
  _atom_site_fract_x
  _atom_site_fract_y
  _atom_site_fract_z
  _atom_site_occupancy
  Sn  Sn1       1.0  0.09108  0.34351  0.72608  1.0000
  Sn  Sn2       1.0  0.65656  0.90870  0.77385  1.0000
  Sn  Sn3       1.0  0.90892  0.65649  0.27392  1.0000
  Sn  Sn4       1.0  0.34345  0.09130  0.22615  1.0000
  H   H1        1.0  0.11393  0.99707  0.56987  1.0000
  H   H2        1.0  0.00320  0.88583  0.93008  1.0000
  H   H3        1.0  0.88607  0.00293  0.43013  1.0000
  H   H4        1.0  0.99680  0.11418  0.06992  1.0000
  H   H5        1.0  0.46496  0.62856  0.44465  1.0000
  H   H6        1.0  0.37119  0.53495  0.05556  1.0000
  H   H7        1.0  0.53504  0.37143  0.55535  1.0000
  H   H8        1.0  0.62881  0.46505  0.94444  1.0000
  H   H9        1.0  0.64245  0.83455  0.60656  1.0000
  H   H10       1.0  0.16548  0.35780  0.89343  1.0000
  H   H11       1.0  0.35754  0.16545  0.39344  1.0000
  H   H12       1.0  0.83452  0.64220  0.10657  1.0000
  H   H13       1.0  0.76260  0.49725  0.70675  1.0000
  H   H14       1.0  0.50281  0.23682  0.79333  1.0000
  H   H15       1.0  0.23740  0.50276  0.29326  1.0000
  H   H16       1.0  0.49718  0.76318  0.20668  1.0000
  H   H17       1.0  0.84070  0.32428  0.65311  1.0000
  H   H18       1.0  0.67598  0.15873  0.84688  1.0000
  H   H19       1.0  0.15931  0.67572  0.34689  1.0000
  H   H20       1.0  0.32402  0.84126  0.15312  1.0000
  H   H21       1.0  0.89990  0.52231  0.62177  1.0000
  H   H22       1.0  0.47763  0.09976  0.87829  1.0000
  H   H23       1.0  0.10010  0.47770  0.37823  1.0000
  H   H24       1.0  0.52237  0.90023  0.12172  1.0000
  H   H25       1.0  0.20538  0.11219  0.84013  1.0000
  H   H26       1.0  0.88832  0.79463  0.65973  1.0000
  H   H27       1.0  0.79462  0.88781  0.15987  1.0000
  H   H28       1.0  0.11168  0.20537  0.34027  1.0000
  H   H29       1.0  0.05926  0.03689  0.80057  1.0000
  H   H30       1.0  0.96353  0.94058  0.69935  1.0000
  H   H31       1.0  0.94074  0.96311  0.19943  1.0000
  H   H32       1.0  0.03647  0.05942  0.30065  1.0000
  H   H33       1.0  0.97995  0.19462  0.86063  1.0000
  H   H34       1.0  0.80573  0.01976  0.63931  1.0000
  H   H35       1.0  0.02006  0.80537  0.13937  1.0000
  H   H36       1.0  0.19427  0.98025  0.36069  1.0000
  H   H37       1.0  0.30498  0.52995  0.74817  1.0000
  H   H38       1.0  0.46966  0.69527  0.75177  1.0000
  H   H39       1.0  0.69503  0.47005  0.25182  1.0000
  H   H40       1.0  0.53033  0.30472  0.24823  1.0000
  H   H41       1.0  0.26056  0.58578  0.65595  1.0000
  H   H42       1.0  0.41382  0.73971  0.84403  1.0000
  H   H43       1.0  0.73945  0.41421  0.34405  1.0000
  H   H44       1.0  0.58618  0.26028  0.15597  1.0000
  H   H45       1.0  0.41143  0.39189  0.68178  1.0000
  H   H46       1.0  0.60788  0.58889  0.81809  1.0000
  H   H47       1.0  0.58857  0.60811  0.31822  1.0000
  H   H48       1.0  0.39212  0.41110  0.18191  1.0000
  C   C1        1.0  0.33817  0.05090  0.64919  1.0000
  C   C2        1.0  0.94927  0.66176  0.85076  1.0000
  C   C3        1.0  0.66183  0.94909  0.35081  1.0000
  C   C4        1.0  0.05073  0.33825  0.14924  1.0000
  C   C5        1.0  0.37401  0.92712  0.59473  1.0000
  C   C6        1.0  0.07300  0.62597  0.90525  1.0000
  C   C7        1.0  0.62599  0.07287  0.40527  1.0000
  C   C8        1.0  0.92700  0.37403  0.09475  1.0000
  C   C9        1.0  0.24098  0.91783  0.55828  1.0000
  C   C10       1.0  0.08234  0.75886  0.94174  1.0000
  C   C11       1.0  0.75901  0.08217  0.44172  1.0000
  C   C12       1.0  0.91767  0.24115  0.05826  1.0000
  C   C13       1.0  0.27672  0.80768  0.50640  1.0000
  C   C14       1.0  0.19237  0.72311  0.99367  1.0000
  C   C15       1.0  0.72328  0.19232  0.49360  1.0000
  C   C16       1.0  0.80763  0.27690  0.00633  1.0000
  C   C17       1.0  0.43929  0.71032  0.48708  1.0000
  C   C18       1.0  0.28959  0.56067  0.01304  1.0000
  C   C19       1.0  0.56072  0.28967  0.51292  1.0000
  C   C20       1.0  0.71041  0.43934  0.98696  1.0000
  C   C21       1.0  0.56730  0.72262  0.52489  1.0000
  C   C22       1.0  0.27729  0.43283  0.97519  1.0000
  C   C23       1.0  0.43270  0.27738  0.47511  1.0000
  C   C24       1.0  0.72271  0.56717  0.02482  1.0000
  C   C25       1.0  0.53842  0.82724  0.57893  1.0000
  C   C26       1.0  0.17281  0.46172  0.92108  1.0000
  C   C27       1.0  0.46158  0.17276  0.42107  1.0000
  C   C28       1.0  0.82719  0.53829  0.07892  1.0000
  C   C29       1.0  0.87073  0.43353  0.67061  1.0000
  C   C30       1.0  0.56656  0.12878  0.82941  1.0000
  C   C31       1.0  0.12927  0.56647  0.32939  1.0000
  C   C32       1.0  0.43343  0.87121  0.17059  1.0000
  C   C33       1.0  0.08331  0.14876  0.81834  1.0000
  C   C34       1.0  0.85157  0.91652  0.68158  1.0000
  C   C35       1.0  0.91670  0.85124  0.18166  1.0000
  C   C36       1.0  0.14843  0.08348  0.31842  1.0000
  C   C37       1.0  0.29204  0.47975  0.69948  1.0000
  C   C38       1.0  0.51993  0.70816  0.80045  1.0000
  C   C39       1.0  0.70796  0.52025  0.30052  1.0000
  C   C40       1.0  0.48007  0.29184  0.19955  1.0000
  O   O1        1.0  0.19181  0.15624  0.64910  1.0000
  O   O2        1.0  0.84411  0.80813  0.85073  1.0000
  O   O3        1.0  0.80819  0.84376  0.35090  1.0000
  O   O4        1.0  0.15589  0.19187  0.14927  1.0000
  O   O5        1.0  0.44634  0.05056  0.68971  1.0000
  O   O6        1.0  0.94942  0.55346  0.81036  1.0000
  O   O7        1.0  0.55365  0.94944  0.31029  1.0000
  O   O8        1.0  0.05058  0.44654  0.18964  1.0000
  F   F1        1.0  0.14727  0.79482  0.47169  1.0000
  F   F2        1.0  0.20529  0.85238  0.02841  1.0000
  F   F3        1.0  0.85274  0.20517  0.52832  1.0000
  F   F4        1.0  0.79472  0.14763  0.97159  1.0000
  F   F5        1.0  0.72768  0.62801  0.50753  1.0000
  F   F6        1.0  0.37175  0.27259  0.99258  1.0000
  F   F7        1.0  0.27232  0.37200  0.49247  1.0000
  F   F8        1.0  0.62825  0.72741  0.00742  1.0000
