data_image0
_chemical_formula_structural       Cd2H60C44I4N8
_chemical_formula_sum              "Cd2 H60 C44 I4 N8"
_cell_length_a       6.01945
_cell_length_b       12.0931
_cell_length_c       17.1096
_cell_angle_alpha    93.4622
_cell_angle_beta     90.0059
_cell_angle_gamma    104.408

_space_group_name_H-M_alt    "P 1"
_space_group_IT_number       1

loop_
  _space_group_symop_operation_xyz
  'x, y, z'

loop_
  _atom_site_type_symbol
  _atom_site_label
  _atom_site_symmetry_multiplicity
  _atom_site_fract_x
  _atom_site_fract_y
  _atom_site_fract_z
  _atom_site_occupancy
  Cd  Cd1       1.0  0.90734  0.00002  0.75000  1.0000
  Cd  Cd2       1.0  0.09266  0.99997  0.25000  1.0000
  H   H1        1.0  0.73212  0.05763  0.91076  1.0000
  H   H2        1.0  0.67473  0.94225  0.58926  1.0000
  H   H3        1.0  0.26787  0.94237  0.08923  1.0000
  H   H4        1.0  0.32524  0.05775  0.41075  1.0000
  H   H5        1.0  0.78907  0.36731  0.71528  1.0000
  H   H6        1.0  0.42222  0.63250  0.78465  1.0000
  H   H7        1.0  0.21096  0.63269  0.28472  1.0000
  H   H8        1.0  0.57779  0.36749  0.21536  1.0000
  H   H9        1.0  0.55624  0.25945  0.67375  1.0000
  H   H10       1.0  0.29688  0.74025  0.82612  1.0000
  H   H11       1.0  0.44376  0.74055  0.32625  1.0000
  H   H12       1.0  0.70314  0.25973  0.17390  1.0000
  H   H13       1.0  0.83543  0.23495  0.67712  1.0000
  H   H14       1.0  0.60066  0.76492  0.82289  1.0000
  H   H15       1.0  0.16457  0.76505  0.32286  1.0000
  H   H16       1.0  0.39936  0.23507  0.17711  1.0000
  H   H17       1.0  0.51643  0.27065  0.02358  1.0000
  H   H18       1.0  0.24601  0.72952  0.47635  1.0000
  H   H19       1.0  0.48359  0.72936  0.97641  1.0000
  H   H20       1.0  0.75395  0.27048  0.52367  1.0000
  H   H21       1.0  0.55432  0.12961  0.02519  1.0000
  H   H22       1.0  0.42502  0.87051  0.47486  1.0000
  H   H23       1.0  0.44570  0.87040  0.97480  1.0000
  H   H24       1.0  0.57492  0.12949  0.52515  1.0000
  H   H25       1.0  0.28815  0.15164  0.99431  1.0000
  H   H26       1.0  0.13689  0.84855  0.50569  1.0000
  H   H27       1.0  0.71187  0.84837  0.00569  1.0000
  H   H28       1.0  0.86305  0.15145  0.49433  1.0000
  H   H29       1.0  0.24553  0.32759  0.83725  1.0000
  H   H30       1.0  0.91818  0.67247  0.66271  1.0000
  H   H31       1.0  0.75451  0.67242  0.16272  1.0000
  H   H32       1.0  0.08180  0.32754  0.33730  1.0000
  H   H33       1.0  0.49677  0.41422  0.80252  1.0000
  H   H34       1.0  0.08265  0.58576  0.69752  1.0000
  H   H35       1.0  0.50329  0.58578  0.19746  1.0000
  H   H36       1.0  0.91732  0.41423  0.30249  1.0000
  H   H37       1.0  0.07763  0.63238  0.03090  1.0000
  H   H38       1.0  0.44507  0.36741  0.46901  1.0000
  H   H39       1.0  0.92241  0.36760  0.96907  1.0000
  H   H40       1.0  0.55489  0.63259  0.53101  1.0000
  H   H41       1.0  0.93578  0.72873  0.07833  1.0000
  H   H42       1.0  0.20655  0.27106  0.42172  1.0000
  H   H43       1.0  0.06428  0.27126  0.92165  1.0000
  H   H44       1.0  0.79341  0.72894  0.57829  1.0000
  H   H45       1.0  0.96685  0.72529  0.97581  1.0000
  H   H46       1.0  0.24145  0.27470  0.52426  1.0000
  H   H47       1.0  0.03319  0.27470  0.02418  1.0000
  H   H48       1.0  0.75851  0.72530  0.47576  1.0000
  H   H49       1.0  0.83353  0.47225  0.83525  1.0000
  H   H50       1.0  0.36118  0.52759  0.66481  1.0000
  H   H51       1.0  0.16649  0.52775  0.16474  1.0000
  H   H52       1.0  0.63879  0.47242  0.33520  1.0000
  H   H53       1.0  0.02830  0.54560  0.90917  1.0000
  H   H54       1.0  0.48276  0.45435  0.59091  1.0000
  H   H55       1.0  0.97172  0.45440  0.09081  1.0000
  H   H56       1.0  0.51722  0.54567  0.40910  1.0000
  H   H57       1.0  0.86962  0.62141  0.85646  1.0000
  H   H58       1.0  0.24823  0.37846  0.64351  1.0000
  H   H59       1.0  0.13041  0.37859  0.14352  1.0000
  H   H60       1.0  0.75176  0.62155  0.35651  1.0000
  C   C1        1.0  0.71419  0.27436  0.70931  1.0000
  C   C2        1.0  0.44014  0.72545  0.79064  1.0000
  C   C3        1.0  0.28582  0.72564  0.29069  1.0000
  C   C4        1.0  0.55988  0.27454  0.20937  1.0000
  C   C5        1.0  0.66626  0.22623  0.78743  1.0000
  C   C6        1.0  0.44040  0.77362  0.71253  1.0000
  C   C7        1.0  0.33376  0.77377  0.21256  1.0000
  C   C8        1.0  0.55959  0.22637  0.28748  1.0000
  C   C9        1.0  0.54434  0.26338  0.85052  1.0000
  C   C10       1.0  0.28120  0.73654  0.64946  1.0000
  C   C11       1.0  0.45568  0.73662  0.14948  1.0000
  C   C12       1.0  0.71877  0.26347  0.35055  1.0000
  C   C13       1.0  0.55795  0.19183  0.91099  1.0000
  C   C14       1.0  0.36633  0.80813  0.58902  1.0000
  C   C15       1.0  0.44206  0.80818  0.08901  1.0000
  C   C16       1.0  0.63364  0.19187  0.41100  1.0000
  C   C17       1.0  0.47485  0.18578  0.99270  1.0000
  C   C18       1.0  0.28938  0.81433  0.50731  1.0000
  C   C19       1.0  0.52516  0.81423  0.00729  1.0000
  C   C20       1.0  0.71057  0.18568  0.49271  1.0000
  C   C21       1.0  0.42919  0.36086  0.85117  1.0000
  C   C22       1.0  0.06847  0.63908  0.64884  1.0000
  C   C23       1.0  0.57084  0.63914  0.14882  1.0000
  C   C24       1.0  0.93150  0.36091  0.35117  1.0000
  C   C25       1.0  0.46276  0.43402  0.92780  1.0000
  C   C26       1.0  0.02875  0.56593  0.57223  1.0000
  C   C27       1.0  0.53727  0.56598  0.07219  1.0000
  C   C28       1.0  0.97122  0.43407  0.42778  1.0000
  C   C29       1.0  0.67172  0.51651  0.94274  1.0000
  C   C30       1.0  0.15519  0.48343  0.55724  1.0000
  C   C31       1.0  0.32830  0.48349  0.05724  1.0000
  C   C32       1.0  0.84478  0.51657  0.44277  1.0000
  C   C33       1.0  0.70861  0.58252  0.01469  1.0000
  C   C34       1.0  0.12612  0.41747  0.48527  1.0000
  C   C35       1.0  0.29143  0.41747  0.98529  1.0000
  C   C36       1.0  0.87385  0.58254  0.51475  1.0000
  C   C37       1.0  0.93198  0.67154  0.02618  1.0000
  C   C38       1.0  0.26033  0.32834  0.47381  1.0000
  C   C39       1.0  0.06806  0.32845  0.97381  1.0000
  C   C40       1.0  0.73963  0.67166  0.52620  1.0000
  C   C41       1.0  0.85894  0.53918  0.88267  1.0000
  C   C42       1.0  0.31973  0.46072  0.61736  1.0000
  C   C43       1.0  0.14108  0.46082  0.11732  1.0000
  C   C44       1.0  0.68025  0.53929  0.38265  1.0000
  I   I1        1.0  0.06866  0.92631  0.88140  1.0000
  I   I2        1.0  0.14128  0.07363  0.61839  1.0000
  I   I3        1.0  0.93138  0.07370  0.11860  1.0000
  I   I4        1.0  0.85867  0.92637  0.38161  1.0000
  N   N1        1.0  0.74663  0.13708  0.80788  1.0000
  N   N2        1.0  0.60990  0.86276  0.69211  1.0000
  N   N3        1.0  0.25337  0.86291  0.19211  1.0000
  N   N4        1.0  0.39009  0.13723  0.30790  1.0000
  N   N5        1.0  0.67741  0.11792  0.88215  1.0000
  N   N6        1.0  0.55967  0.88204  0.61788  1.0000
  N   N7        1.0  0.32260  0.88208  0.11785  1.0000
  N   N8        1.0  0.44031  0.11796  0.38213  1.0000
