data_image0
_chemical_formula_structural       K4H40C24S4N8O14
_chemical_formula_sum              "K4 H40 C24 S4 N8 O14"
_cell_length_a       7.44154
_cell_length_b       10.8386
_cell_length_c       13.0367
_cell_angle_alpha    114.569
_cell_angle_beta     90
_cell_angle_gamma    90

_space_group_name_H-M_alt    "P 1"
_space_group_IT_number       1

loop_
  _space_group_symop_operation_xyz
  'x, y, z'

loop_
  _atom_site_type_symbol
  _atom_site_label
  _atom_site_symmetry_multiplicity
  _atom_site_fract_x
  _atom_site_fract_y
  _atom_site_fract_z
  _atom_site_occupancy
  K   K1        1.0  0.39451  0.11767  0.00006  1.0000
  K   K2        1.0  0.89451  0.88233  0.99994  1.0000
  K   K3        1.0  0.74533  0.45266  0.99995  1.0000
  K   K4        1.0  0.24533  0.54735  0.00005  1.0000
  H   H1        1.0  0.02494  0.19459  0.18678  1.0000
  H   H2        1.0  0.52494  0.80541  0.81323  1.0000
  H   H3        1.0  0.52502  0.99219  0.18679  1.0000
  H   H4        1.0  0.02502  0.00781  0.81322  1.0000
  H   H5        1.0  0.55748  0.55825  0.72312  1.0000
  H   H6        1.0  0.05748  0.44175  0.27688  1.0000
  H   H7        1.0  0.05752  0.16488  0.72309  1.0000
  H   H8        1.0  0.55752  0.83512  0.27691  1.0000
  H   H9        1.0  0.72666  0.45688  0.73102  1.0000
  H   H10       1.0  0.22666  0.54312  0.26898  1.0000
  H   H11       1.0  0.22667  0.27419  0.73106  1.0000
  H   H12       1.0  0.72668  0.72581  0.26894  1.0000
  H   H13       1.0  0.83978  0.14444  0.35634  1.0000
  H   H14       1.0  0.33978  0.85556  0.64366  1.0000
  H   H15       1.0  0.33979  0.21191  0.35632  1.0000
  H   H16       1.0  0.83979  0.78809  0.64368  1.0000
  H   H17       1.0  0.78967  0.23496  0.56111  1.0000
  H   H18       1.0  0.28967  0.76505  0.43889  1.0000
  H   H19       1.0  0.28976  0.32625  0.56112  1.0000
  H   H20       1.0  0.78977  0.67375  0.43888  1.0000
  H   H21       1.0  0.48573  0.56745  0.54927  1.0000
  H   H22       1.0  0.98573  0.43255  0.45073  1.0000
  H   H23       1.0  0.98580  0.98192  0.54930  1.0000
  H   H24       1.0  0.48580  0.01808  0.45070  1.0000
  H   H25       1.0  0.53225  0.47599  0.34408  1.0000
  H   H26       1.0  0.03225  0.52401  0.65592  1.0000
  H   H27       1.0  0.03233  0.86811  0.34412  1.0000
  H   H28       1.0  0.53233  0.13189  0.65588  1.0000
  H   H29       1.0  0.98744  0.37158  0.76277  1.0000
  H   H30       1.0  0.48744  0.62842  0.23723  1.0000
  H   H31       1.0  0.48741  0.39120  0.76280  1.0000
  H   H32       1.0  0.98741  0.60880  0.23720  1.0000
  H   H33       1.0  0.99839  0.53279  0.81906  1.0000
  H   H34       1.0  0.49839  0.46721  0.18094  1.0000
  H   H35       1.0  0.49836  0.28629  0.81908  1.0000
  H   H36       1.0  0.99837  0.71371  0.18092  1.0000
  H   H37       1.0  0.04381  0.29822  0.06608  1.0000
  H   H38       1.0  0.54381  0.70178  0.93392  1.0000
  H   H39       1.0  0.54387  0.76781  0.06603  1.0000
  H   H40       1.0  0.04387  0.23219  0.93397  1.0000
  C   C1        1.0  0.69011  0.30471  0.33611  1.0000
  C   C2        1.0  0.19011  0.69529  0.66390  1.0000
  C   C3        1.0  0.19020  0.03140  0.33613  1.0000
  C   C4        1.0  0.69020  0.96860  0.66386  1.0000
  C   C5        1.0  0.76122  0.23688  0.39813  1.0000
  C   C6        1.0  0.26122  0.76312  0.60187  1.0000
  C   C7        1.0  0.26129  0.16127  0.39814  1.0000
  C   C8        1.0  0.76129  0.83873  0.60186  1.0000
  C   C9        1.0  0.73445  0.28857  0.51384  1.0000
  C   C10       1.0  0.23445  0.71143  0.48616  1.0000
  C   C11       1.0  0.23454  0.22533  0.51385  1.0000
  C   C12       1.0  0.73454  0.77467  0.48615  1.0000
  C   C13       1.0  0.63719  0.40962  0.57069  1.0000
  C   C14       1.0  0.13719  0.59038  0.42931  1.0000
  C   C15       1.0  0.13725  0.16116  0.57070  1.0000
  C   C16       1.0  0.63725  0.83884  0.42930  1.0000
  C   C17       1.0  0.56222  0.47425  0.50708  1.0000
  C   C18       1.0  0.06222  0.52575  0.49292  1.0000
  C   C19       1.0  0.06228  0.03291  0.50709  1.0000
  C   C20       1.0  0.56228  0.96709  0.49291  1.0000
  C   C21       1.0  0.58895  0.42263  0.39110  1.0000
  C   C22       1.0  0.08895  0.57737  0.60890  1.0000
  C   C23       1.0  0.08902  0.96849  0.39112  1.0000
  C   C24       1.0  0.58902  0.03151  0.60888  1.0000
  S   S1        1.0  0.74674  0.24476  0.19093  1.0000
  S   S2        1.0  0.24674  0.75524  0.80907  1.0000
  S   S3        1.0  0.24682  0.94611  0.19095  1.0000
  S   S4        1.0  0.74682  0.05389  0.80905  1.0000
  N   N1        1.0  0.94927  0.26991  0.17896  1.0000
  N   N2        1.0  0.44927  0.73009  0.82105  1.0000
  N   N3        1.0  0.44938  0.90905  0.17900  1.0000
  N   N4        1.0  0.94938  0.09095  0.82100  1.0000
  N   N5        1.0  0.61308  0.46205  0.68728  1.0000
  N   N6        1.0  0.11308  0.53795  0.31272  1.0000
  N   N7        1.0  0.11310  0.22530  0.68730  1.0000
  N   N8        1.0  0.61310  0.77470  0.31270  1.0000
  O   O1        1.0  0.69460  0.09955  0.14065  1.0000
  O   O2        1.0  0.19460  0.90045  0.85935  1.0000
  O   O3        1.0  0.19458  0.04096  0.14062  1.0000
  O   O4        1.0  0.69457  0.95904  0.85938  1.0000
  O   O5        1.0  0.63910  0.32626  0.14596  1.0000
  O   O6        1.0  0.13910  0.67374  0.85404  1.0000
  O   O7        1.0  0.13928  0.81958  0.14602  1.0000
  O   O8        1.0  0.63928  0.18042  0.85398  1.0000
  O   O9        1.0  0.92506  0.45599  0.81733  1.0000
  O   O10       1.0  0.42506  0.54401  0.18267  1.0000
  O   O11       1.0  0.42506  0.36139  0.81738  1.0000
  O   O12       1.0  0.92506  0.63860  0.18262  1.0000
  O   O13       1.0  0.10283  0.30667  0.00004  1.0000
  O   O14       1.0  0.60283  0.69333  0.99996  1.0000
