data_image0
_chemical_formula_structural       Gd6CoH36C20S6N8O54
_chemical_formula_sum              "Gd6 Co1 H36 C20 S6 N8 O54"
_cell_length_a       6.5922
_cell_length_b       9.38591
_cell_length_c       21.5242
_cell_angle_alpha    97.1151
_cell_angle_beta     94.3865
_cell_angle_gamma    98.2022

_space_group_name_H-M_alt    "P 1"
_space_group_IT_number       1

loop_
  _space_group_symop_operation_xyz
  'x, y, z'

loop_
  _atom_site_type_symbol
  _atom_site_label
  _atom_site_symmetry_multiplicity
  _atom_site_fract_x
  _atom_site_fract_y
  _atom_site_fract_z
  _atom_site_occupancy
  Gd  Gd1       1.0  0.32198  0.01445  0.86467  1.0000
  Gd  Gd2       1.0  0.67803  0.98555  0.13533  1.0000
  Gd  Gd3       1.0  0.06893  0.87849  0.67736  1.0000
  Gd  Gd4       1.0  0.93107  0.12151  0.32264  1.0000
  Gd  Gd5       1.0  0.33396  0.28956  0.57891  1.0000
  Gd  Gd6       1.0  0.66604  0.71044  0.42109  1.0000
  Co  Co1       1.0  0.00000  0.50000  0.00000  1.0000
  H   H1        1.0  0.57917  0.62099  0.69232  1.0000
  H   H2        1.0  0.42083  0.37901  0.30768  1.0000
  H   H3        1.0  0.84704  0.26643  0.85842  1.0000
  H   H4        1.0  0.15297  0.73357  0.14158  1.0000
  H   H5        1.0  0.92709  0.38102  0.75992  1.0000
  H   H6        1.0  0.07291  0.61899  0.24008  1.0000
  H   H7        1.0  0.59516  0.63446  0.81134  1.0000
  H   H8        1.0  0.40484  0.36554  0.18866  1.0000
  H   H9        1.0  0.04754  0.50063  0.57273  1.0000
  H   H10       1.0  0.95245  0.49937  0.42727  1.0000
  H   H11       1.0  0.11461  0.52754  0.64527  1.0000
  H   H12       1.0  0.88538  0.47246  0.35473  1.0000
  H   H13       1.0  0.29826  0.03812  0.47412  1.0000
  H   H14       1.0  0.70173  0.96188  0.52588  1.0000
  H   H15       1.0  0.20156  0.96674  0.53065  1.0000
  H   H16       1.0  0.79844  0.03326  0.46935  1.0000
  H   H17       1.0  0.04831  0.74926  0.54423  1.0000
  H   H18       1.0  0.95168  0.25074  0.45577  1.0000
  H   H19       1.0  0.29073  0.77177  0.56319  1.0000
  H   H20       1.0  0.70927  0.22823  0.43681  1.0000
  H   H21       1.0  0.50111  0.90999  0.72635  1.0000
  H   H22       1.0  0.49889  0.09001  0.27365  1.0000
  H   H23       1.0  0.53343  0.90153  0.65543  1.0000
  H   H24       1.0  0.46656  0.09847  0.34457  1.0000
  H   H25       1.0  0.63403  0.57907  0.96065  1.0000
  H   H26       1.0  0.36597  0.42094  0.03935  1.0000
  H   H27       1.0  0.64639  0.57954  0.03484  1.0000
  H   H28       1.0  0.35361  0.42046  0.96516  1.0000
  H   H29       1.0  0.04017  0.08180  0.95891  1.0000
  H   H30       1.0  0.95984  0.91820  0.04109  1.0000
  H   H31       1.0  0.22416  0.21071  0.98213  1.0000
  H   H32       1.0  0.77585  0.78929  0.01787  1.0000
  H   H33       1.0  0.67817  0.16012  0.96176  1.0000
  H   H34       1.0  0.32183  0.83988  0.03824  1.0000
  H   H35       1.0  0.65835  0.99535  0.97067  1.0000
  H   H36       1.0  0.34165  0.00465  0.02933  1.0000
  C   C1        1.0  0.44462  0.38590  0.86222  1.0000
  C   C2        1.0  0.55537  0.61409  0.13778  1.0000
  C   C3        1.0  0.45582  0.40755  0.79596  1.0000
  C   C4        1.0  0.54419  0.59245  0.20404  1.0000
  C   C5        1.0  0.52315  0.53134  0.71690  1.0000
  C   C6        1.0  0.47684  0.46866  0.28310  1.0000
  C   C7        1.0  0.39577  0.31846  0.73873  1.0000
  C   C8        1.0  0.60422  0.68155  0.26127  1.0000
  C   C9        1.0  0.29341  0.16802  0.72037  1.0000
  C   C10       1.0  0.70658  0.83198  0.27964  1.0000
  C   C11       1.0  0.11934  0.67310  0.77435  1.0000
  C   C12       1.0  0.88066  0.32691  0.22565  1.0000
  C   C13       1.0  0.06034  0.57699  0.82157  1.0000
  C   C14       1.0  0.93966  0.42301  0.17843  1.0000
  C   C15       1.0  0.91969  0.37776  0.85852  1.0000
  C   C16       1.0  0.08032  0.62224  0.14148  1.0000
  C   C17       1.0  0.07497  0.60033  0.88702  1.0000
  C   C18       1.0  0.92503  0.39967  0.11298  1.0000
  C   C19       1.0  0.17989  0.71396  0.93602  1.0000
  C   C20       1.0  0.82012  0.28603  0.06398  1.0000
  S   S1        1.0  0.67537  0.63989  0.56431  1.0000
  S   S2        1.0  0.32462  0.36012  0.43569  1.0000
  S   S3        1.0  0.82839  0.17519  0.62881  1.0000
  S   S4        1.0  0.17161  0.82481  0.37118  1.0000
  S   S5        1.0  0.78291  0.91947  0.81632  1.0000
  S   S6        1.0  0.21709  0.08053  0.18368  1.0000
  N   N1        1.0  0.43775  0.39839  0.69044  1.0000
  N   N2        1.0  0.56225  0.60161  0.30956  1.0000
  N   N3        1.0  0.53382  0.54082  0.78020  1.0000
  N   N4        1.0  0.46618  0.45918  0.21980  1.0000
  N   N5        1.0  0.98483  0.47671  0.90908  1.0000
  N   N6        1.0  0.01517  0.52329  0.09092  1.0000
  N   N7        1.0  0.96207  0.43581  0.80547  1.0000
  N   N8        1.0  0.03793  0.56419  0.19453  1.0000
  O   O1        1.0  0.58559  0.49189  0.57275  1.0000
  O   O2        1.0  0.41441  0.50811  0.42725  1.0000
  O   O3        1.0  0.78695  0.71410  0.62471  1.0000
  O   O4        1.0  0.21305  0.28590  0.37529  1.0000
  O   O5        1.0  0.52016  0.72494  0.54015  1.0000
  O   O6        1.0  0.47984  0.27506  0.45985  1.0000
  O   O7        1.0  0.82924  0.63228  0.51559  1.0000
  O   O8        1.0  0.17075  0.36773  0.48441  1.0000
  O   O9        1.0  0.98117  0.22085  0.58504  1.0000
  O   O10       1.0  0.01883  0.77915  0.41496  1.0000
  O   O11       1.0  0.62139  0.18056  0.59745  1.0000
  O   O12       1.0  0.37861  0.81944  0.40255  1.0000
  O   O13       1.0  0.86792  0.26458  0.69052  1.0000
  O   O14       1.0  0.13208  0.73542  0.30948  1.0000
  O   O15       1.0  0.83325  0.01706  0.63613  1.0000
  O   O16       1.0  0.16675  0.98294  0.36387  1.0000
  O   O17       1.0  0.26337  0.12246  0.66139  1.0000
  O   O18       1.0  0.73663  0.87755  0.33861  1.0000
  O   O19       1.0  0.23034  0.08323  0.75953  1.0000
  O   O20       1.0  0.76966  0.91676  0.24047  1.0000
  O   O21       1.0  0.46605  0.49829  0.90288  1.0000
  O   O22       1.0  0.53395  0.50171  0.09712  1.0000
  O   O23       1.0  0.41098  0.25719  0.87571  1.0000
  O   O24       1.0  0.58902  0.74281  0.12429  1.0000
  O   O25       1.0  0.83548  0.86664  0.75227  1.0000
  O   O26       1.0  0.16452  0.13336  0.24773  1.0000
  O   O27       1.0  0.61029  0.00589  0.80598  1.0000
  O   O28       1.0  0.38971  0.99411  0.19402  1.0000
  O   O29       1.0  0.71566  0.79731  0.85033  1.0000
  O   O30       1.0  0.28434  0.20268  0.14967  1.0000
  O   O31       1.0  0.96281  0.01696  0.85258  1.0000
  O   O32       1.0  0.03719  0.98304  0.14742  1.0000
  O   O33       1.0  0.06334  0.62936  0.71657  1.0000
  O   O34       1.0  0.93666  0.37064  0.28344  1.0000
  O   O35       1.0  0.21731  0.80123  0.79224  1.0000
  O   O36       1.0  0.78270  0.19877  0.20776  1.0000
  O   O37       1.0  0.28159  0.83044  0.92548  1.0000
  O   O38       1.0  0.71841  0.16956  0.07452  1.0000
  O   O39       1.0  0.16669  0.68267  0.99296  1.0000
  O   O40       1.0  0.83331  0.31733  0.00704  1.0000
  O   O41       1.0  0.16614  0.50835  0.60369  1.0000
  O   O42       1.0  0.83386  0.49165  0.39631  1.0000
  O   O43       1.0  0.24569  0.06009  0.51475  1.0000
  O   O44       1.0  0.75431  0.93991  0.48525  1.0000
  O   O45       1.0  0.16370  0.81598  0.57053  1.0000
  O   O46       1.0  0.83630  0.18402  0.42947  1.0000
  O   O47       1.0  0.43301  0.86902  0.68408  1.0000
  O   O48       1.0  0.56699  0.13098  0.31592  1.0000
  O   O49       1.0  0.72327  0.61660  0.00045  1.0000
  O   O50       1.0  0.27673  0.38340  0.99955  1.0000
  O   O51       1.0  0.18975  0.10216  0.96805  1.0000
  O   O52       1.0  0.81025  0.89784  0.03196  1.0000
  O   O53       1.0  0.61761  0.06124  0.94138  1.0000
  O   O54       1.0  0.38239  0.93876  0.05862  1.0000
