data_image0
_chemical_formula_structural       Ag2H16C26S2N6
_chemical_formula_sum              "Ag2 H16 C26 S2 N6"
_cell_length_a       4.45457
_cell_length_b       10.2632
_cell_length_c       12.1586
_cell_angle_alpha    99.665
_cell_angle_beta     89.9993
_cell_angle_gamma    90.0005

_space_group_name_H-M_alt    "P 1"
_space_group_IT_number       1

loop_
  _space_group_symop_operation_xyz
  'x, y, z'

loop_
  _atom_site_type_symbol
  _atom_site_label
  _atom_site_symmetry_multiplicity
  _atom_site_fract_x
  _atom_site_fract_y
  _atom_site_fract_z
  _atom_site_occupancy
  Ag  Ag1       1.0  0.06938  0.83531  0.52692  1.0000
  Ag  Ag2       1.0  0.56937  0.16470  0.47308  1.0000
  H   H1        1.0  0.46679  0.88845  0.99884  1.0000
  H   H2        1.0  0.96680  0.11155  0.00116  1.0000
  H   H3        1.0  0.33302  0.05031  0.87044  1.0000
  H   H4        1.0  0.83302  0.94969  0.12956  1.0000
  H   H5        1.0  0.57988  0.02711  0.68546  1.0000
  H   H6        1.0  0.07986  0.97288  0.31454  1.0000
  H   H7        1.0  0.54965  0.57940  0.51363  1.0000
  H   H8        1.0  0.04965  0.42059  0.48636  1.0000
  H   H9        1.0  0.49123  0.41295  0.81558  1.0000
  H   H10       1.0  0.99123  0.58705  0.18442  1.0000
  H   H11       1.0  0.71268  0.40821  0.62662  1.0000
  H   H12       1.0  0.21268  0.59179  0.37338  1.0000
  H   H13       1.0  0.14638  0.52279  0.96545  1.0000
  H   H14       1.0  0.64638  0.47721  0.03454  1.0000
  H   H15       1.0  0.77414  0.69978  0.03342  1.0000
  H   H16       1.0  0.27414  0.30022  0.96658  1.0000
  C   C1        1.0  0.57141  0.88368  0.91714  1.0000
  C   C2        1.0  0.07141  0.11632  0.08286  1.0000
  C   C3        1.0  0.91168  0.77765  0.77325  1.0000
  C   C4        1.0  0.41167  0.22235  0.22675  1.0000
  C   C5        1.0  0.54316  0.79972  0.29743  1.0000
  C   C6        1.0  0.04319  0.20028  0.70257  1.0000
  C   C7        1.0  0.21058  0.58361  0.80470  1.0000
  C   C8        1.0  0.71058  0.41639  0.19530  1.0000
  C   C9        1.0  0.12841  0.67499  0.73384  1.0000
  C   C10       1.0  0.62841  0.32501  0.26616  1.0000
  C   C11       1.0  0.78545  0.78384  0.88153  1.0000
  C   C12       1.0  0.28545  0.21617  0.11847  1.0000
  C   C13       1.0  0.49637  0.97168  0.84733  1.0000
  C   C14       1.0  0.99638  0.02832  0.15267  1.0000
  C   C15       1.0  0.63479  0.95872  0.74220  1.0000
  C   C16       1.0  0.13479  0.04128  0.25781  1.0000
  C   C17       1.0  0.45287  0.57720  0.59581  1.0000
  C   C18       1.0  0.95287  0.42280  0.40419  1.0000
  C   C19       1.0  0.42379  0.48535  0.76435  1.0000
  C   C20       1.0  0.92380  0.51465  0.23564  1.0000
  C   C21       1.0  0.54642  0.48242  0.65957  1.0000
  C   C22       1.0  0.04642  0.51758  0.34043  1.0000
  C   C23       1.0  0.07943  0.59419  0.91315  1.0000
  C   C24       1.0  0.57942  0.40581  0.08684  1.0000
  C   C25       1.0  0.87525  0.69074  0.95053  1.0000
  C   C26       1.0  0.37524  0.30926  0.04946  1.0000
  S   S1        1.0  0.56898  0.85765  0.43266  1.0000
  S   S2        1.0  0.06900  0.14237  0.56735  1.0000
  N   N1        1.0  0.83601  0.86556  0.70628  1.0000
  N   N2        1.0  0.33600  0.13444  0.29372  1.0000
  N   N3        1.0  0.52050  0.76200  0.20044  1.0000
  N   N4        1.0  0.02050  0.23799  0.79957  1.0000
  N   N5        1.0  0.24865  0.66934  0.63077  1.0000
  N   N6        1.0  0.74865  0.33065  0.36923  1.0000
