data_image0
_chemical_formula_structural       Cd4H12C8S4N12Cl8
_chemical_formula_sum              "Cd4 H12 C8 S4 N12 Cl8"
_cell_length_a       7.24321
_cell_length_b       7.71196
_cell_length_c       12.6033
_cell_angle_alpha    96.5473
_cell_angle_beta     90
_cell_angle_gamma    89.9999

_space_group_name_H-M_alt    "P 1"
_space_group_IT_number       1

loop_
  _space_group_symop_operation_xyz
  'x, y, z'

loop_
  _atom_site_type_symbol
  _atom_site_label
  _atom_site_symmetry_multiplicity
  _atom_site_fract_x
  _atom_site_fract_y
  _atom_site_fract_z
  _atom_site_occupancy
  Cd  Cd1       1.0  0.83211  0.26344  0.25322  1.0000
  Cd  Cd2       1.0  0.33211  0.23656  0.24678  1.0000
  Cd  Cd3       1.0  0.16789  0.73656  0.74678  1.0000
  Cd  Cd4       1.0  0.66789  0.76344  0.75322  1.0000
  H   H1        1.0  0.17078  0.15049  0.01030  1.0000
  H   H2        1.0  0.67077  0.34952  0.48970  1.0000
  H   H3        1.0  0.82922  0.84951  0.98970  1.0000
  H   H4        1.0  0.32922  0.65048  0.51030  1.0000
  H   H5        1.0  0.21996  0.17556  0.87879  1.0000
  H   H6        1.0  0.71995  0.32444  0.62122  1.0000
  H   H7        1.0  0.78005  0.82445  0.12122  1.0000
  H   H8        1.0  0.28005  0.67555  0.37879  1.0000
  H   H9        1.0  0.88766  0.36120  0.99314  1.0000
  H   H10       1.0  0.38766  0.13881  0.50685  1.0000
  H   H11       1.0  0.11234  0.63881  0.00686  1.0000
  H   H12       1.0  0.61235  0.86119  0.49314  1.0000
  C   C1        1.0  0.74413  0.32467  0.00179  1.0000
  C   C2        1.0  0.24412  0.17533  0.49821  1.0000
  C   C3        1.0  0.25588  0.67533  0.99821  1.0000
  C   C4        1.0  0.75587  0.82466  0.50179  1.0000
  C   C5        1.0  0.42578  0.24463  0.98513  1.0000
  C   C6        1.0  0.92578  0.25536  0.51486  1.0000
  C   C7        1.0  0.57422  0.75537  0.01487  1.0000
  C   C8        1.0  0.07422  0.74464  0.48513  1.0000
  S   S1        1.0  0.59165  0.30628  0.89683  1.0000
  S   S2        1.0  0.09164  0.19371  0.60317  1.0000
  S   S3        1.0  0.40836  0.69371  0.10317  1.0000
  S   S4        1.0  0.90836  0.80628  0.39683  1.0000
  N   N1        1.0  0.67322  0.28737  0.09146  1.0000
  N   N2        1.0  0.17321  0.21263  0.40853  1.0000
  N   N3        1.0  0.32678  0.71264  0.90853  1.0000
  N   N4        1.0  0.82678  0.78736  0.59147  1.0000
  N   N5        1.0  0.49063  0.24343  0.08408  1.0000
  N   N6        1.0  0.99062  0.25658  0.41593  1.0000
  N   N7        1.0  0.50938  0.75658  0.91593  1.0000
  N   N8        1.0  0.00938  0.74342  0.58407  1.0000
  N   N9        1.0  0.24948  0.20997  0.95728  1.0000
  N   N10       1.0  0.74948  0.29002  0.54272  1.0000
  N   N11       1.0  0.75052  0.79002  0.04272  1.0000
  N   N12       1.0  0.25052  0.70997  0.45729  1.0000
  Cl  Cl1       1.0  0.09139  0.49013  0.21222  1.0000
  Cl  Cl2       1.0  0.59139  0.00988  0.28778  1.0000
  Cl  Cl3       1.0  0.90861  0.50988  0.78778  1.0000
  Cl  Cl4       1.0  0.40861  0.99013  0.71222  1.0000
  Cl  Cl5       1.0  0.06879  0.02804  0.16030  1.0000
  Cl  Cl6       1.0  0.56879  0.47196  0.33970  1.0000
  Cl  Cl7       1.0  0.93121  0.97197  0.83970  1.0000
  Cl  Cl8       1.0  0.43121  0.52804  0.66030  1.0000
