data_image0
_chemical_formula_structural       Ca2H32C40N4O20
_chemical_formula_sum              "Ca2 H32 C40 N4 O20"
_cell_length_a       7.32179
_cell_length_b       9.22071
_cell_length_c       15.9554
_cell_angle_alpha    106.192
_cell_angle_beta     99.0216
_cell_angle_gamma    91.3265

_space_group_name_H-M_alt    "P 1"
_space_group_IT_number       1

loop_
  _space_group_symop_operation_xyz
  'x, y, z'

loop_
  _atom_site_type_symbol
  _atom_site_label
  _atom_site_symmetry_multiplicity
  _atom_site_fract_x
  _atom_site_fract_y
  _atom_site_fract_z
  _atom_site_occupancy
  Ca  Ca1       1.0  0.73925  0.65090  0.00090  1.0000
  Ca  Ca2       1.0  0.26077  0.34909  0.99910  1.0000
  H   H1        1.0  0.87215  0.96797  0.08202  1.0000
  H   H2        1.0  0.62273  0.88286  0.91639  1.0000
  H   H3        1.0  0.12784  0.03203  0.91798  1.0000
  H   H4        1.0  0.37726  0.11709  0.08360  1.0000
  H   H5        1.0  0.06509  0.90404  0.07123  1.0000
  H   H6        1.0  0.42316  0.82706  0.92235  1.0000
  H   H7        1.0  0.93490  0.09596  0.92877  1.0000
  H   H8        1.0  0.57683  0.17291  0.07764  1.0000
  H   H9        1.0  0.81858  0.68462  0.50261  1.0000
  H   H10       1.0  0.68156  0.18462  0.49588  1.0000
  H   H11       1.0  0.18144  0.31537  0.49738  1.0000
  H   H12       1.0  0.31845  0.81543  0.50413  1.0000
  H   H13       1.0  0.80327  0.95185  0.50143  1.0000
  H   H14       1.0  0.69506  0.45330  0.49696  1.0000
  H   H15       1.0  0.19674  0.04815  0.49857  1.0000
  H   H16       1.0  0.30498  0.54674  0.50302  1.0000
  H   H17       1.0  0.95519  0.16142  0.63076  1.0000
  H   H18       1.0  0.54099  0.53231  0.36790  1.0000
  H   H19       1.0  0.04481  0.83857  0.36924  1.0000
  H   H20       1.0  0.45904  0.46770  0.63207  1.0000
  H   H21       1.0  0.11675  0.10525  0.76867  1.0000
  H   H22       1.0  0.37756  0.33708  0.23054  1.0000
  H   H23       1.0  0.88323  0.89474  0.23133  1.0000
  H   H24       1.0  0.62245  0.66291  0.76944  1.0000
  H   H25       1.0  0.28627  0.55831  0.83199  1.0000
  H   H26       1.0  0.21374  0.72145  0.16524  1.0000
  H   H27       1.0  0.71372  0.44168  0.16801  1.0000
  H   H28       1.0  0.78625  0.27857  0.83478  1.0000
  H   H29       1.0  0.13448  0.42042  0.74875  1.0000
  H   H30       1.0  0.36208  0.66947  0.24980  1.0000
  H   H31       1.0  0.86552  0.57957  0.25125  1.0000
  H   H32       1.0  0.63789  0.33056  0.75023  1.0000
  C   C1        1.0  0.99602  0.60098  0.65945  1.0000
  C   C2        1.0  0.50047  0.94291  0.34000  1.0000
  C   C3        1.0  0.00399  0.39901  0.34054  1.0000
  C   C4        1.0  0.49953  0.05711  0.66001  1.0000
  C   C5        1.0  0.96677  0.74640  0.63763  1.0000
  C   C6        1.0  0.53009  0.11042  0.36145  1.0000
  C   C7        1.0  0.03324  0.25359  0.36236  1.0000
  C   C8        1.0  0.46991  0.88961  0.63856  1.0000
  C   C9        1.0  0.88003  0.77537  0.56091  1.0000
  C   C10       1.0  0.61837  0.21674  0.43781  1.0000
  C   C11       1.0  0.11999  0.22462  0.43909  1.0000
  C   C12       1.0  0.38164  0.78331  0.56218  1.0000
  C   C13       1.0  0.87500  0.92728  0.56052  1.0000
  C   C14       1.0  0.62273  0.36904  0.43803  1.0000
  C   C15       1.0  0.12500  0.07272  0.43948  1.0000
  C   C16       1.0  0.37729  0.63098  0.56195  1.0000
  C   C17       1.0  0.95887  0.04471  0.63397  1.0000
  C   C18       1.0  0.53742  0.41240  0.36476  1.0000
  C   C19       1.0  0.04112  0.95528  0.36603  1.0000
  C   C20       1.0  0.46261  0.58763  0.63523  1.0000
  C   C21       1.0  0.04777  0.01513  0.71149  1.0000
  C   C22       1.0  0.44726  0.30458  0.28759  1.0000
  C   C23       1.0  0.95222  0.98487  0.28851  1.0000
  C   C24       1.0  0.55275  0.69543  0.71240  1.0000
  C   C25       1.0  0.04750  0.86466  0.71188  1.0000
  C   C26       1.0  0.44771  0.15380  0.28738  1.0000
  C   C27       1.0  0.95249  0.13533  0.28812  1.0000
  C   C28       1.0  0.55229  0.84621  0.71262  1.0000
  C   C29       1.0  0.12829  0.79601  0.78172  1.0000
  C   C30       1.0  0.36608  0.01448  0.21789  1.0000
  C   C31       1.0  0.87170  0.20398  0.21828  1.0000
  C   C32       1.0  0.63392  0.98553  0.78212  1.0000
  C   C33       1.0  0.14328  0.53384  0.79578  1.0000
  C   C34       1.0  0.35496  0.73849  0.20352  1.0000
  C   C35       1.0  0.85672  0.46615  0.20422  1.0000
  C   C36       1.0  0.64503  0.26154  0.79651  1.0000
  C   C37       1.0  0.01280  0.53376  0.86269  1.0000
  C   C38       1.0  0.49201  0.68516  0.13926  1.0000
  C   C39       1.0  0.98720  0.46623  0.13731  1.0000
  C   C40       1.0  0.50798  0.31483  0.86076  1.0000
  N   N1        1.0  0.09902  0.64035  0.74580  1.0000
  N   N2        1.0  0.39496  0.89496  0.25428  1.0000
  N   N3        1.0  0.90098  0.35964  0.25420  1.0000
  N   N4        1.0  0.60505  0.10506  0.74574  1.0000
  O   O1        1.0  0.94513  0.47066  0.61511  1.0000
  O   O2        1.0  0.55286  0.85757  0.38432  1.0000
  O   O3        1.0  0.05489  0.52933  0.38488  1.0000
  O   O4        1.0  0.44713  0.14247  0.61570  1.0000
  O   O5        1.0  0.20862  0.85923  0.85800  1.0000
  O   O6        1.0  0.28617  0.00050  0.14149  1.0000
  O   O7        1.0  0.79137  0.14075  0.14200  1.0000
  O   O8        1.0  0.71383  0.99950  0.85851  1.0000
  O   O9        1.0  0.05025  0.44304  0.90888  1.0000
  O   O10       1.0  0.46256  0.54979  0.08927  1.0000
  O   O11       1.0  0.94978  0.55697  0.09113  1.0000
  O   O12       1.0  0.53743  0.45016  0.91079  1.0000
  O   O13       1.0  0.88096  0.61960  0.86725  1.0000
  O   O14       1.0  0.62269  0.77594  0.13876  1.0000
  O   O15       1.0  0.11901  0.38037  0.13273  1.0000
  O   O16       1.0  0.37726  0.22403  0.86122  1.0000
  O   O17       1.0  0.93190  0.87825  0.05138  1.0000
  O   O18       1.0  0.55481  0.81727  0.94230  1.0000
  O   O19       1.0  0.06809  0.12176  0.94862  1.0000
  O   O20       1.0  0.44518  0.18267  0.05768  1.0000
