data_image0
_chemical_formula_structural       Ag2H28C28N10O4
_chemical_formula_sum              "Ag2 H28 C28 N10 O4"
_cell_length_a       4.89491
_cell_length_b       7.33697
_cell_length_c       20.3969
_cell_angle_alpha    90
_cell_angle_beta     93.71
_cell_angle_gamma    90.0002

_space_group_name_H-M_alt    "P 1"
_space_group_IT_number       1

loop_
  _space_group_symop_operation_xyz
  'x, y, z'

loop_
  _atom_site_type_symbol
  _atom_site_label
  _atom_site_symmetry_multiplicity
  _atom_site_fract_x
  _atom_site_fract_y
  _atom_site_fract_z
  _atom_site_occupancy
  Ag  Ag1       1.0  0.75000  0.19251  0.25000  1.0000
  Ag  Ag2       1.0  0.25000  0.80749  0.75000  1.0000
  H   H1        1.0  0.27966  0.36051  0.15876  1.0000
  H   H2        1.0  0.22035  0.36051  0.34124  1.0000
  H   H3        1.0  0.72034  0.63949  0.84124  1.0000
  H   H4        1.0  0.77966  0.63949  0.65876  1.0000
  H   H5        1.0  0.88242  0.25845  0.08382  1.0000
  H   H6        1.0  0.61759  0.25845  0.41618  1.0000
  H   H7        1.0  0.11758  0.74155  0.91618  1.0000
  H   H8        1.0  0.38241  0.74155  0.58382  1.0000
  H   H9        1.0  0.11542  0.70421  0.13163  1.0000
  H   H10       1.0  0.38457  0.70421  0.36837  1.0000
  H   H11       1.0  0.88458  0.29579  0.86837  1.0000
  H   H12       1.0  0.61542  0.29579  0.63163  1.0000
  H   H13       1.0  0.49785  0.82784  0.20366  1.0000
  H   H14       1.0  0.00215  0.82784  0.29634  1.0000
  H   H15       1.0  0.50215  0.17216  0.79634  1.0000
  H   H16       1.0  0.99785  0.17216  0.70366  1.0000
  H   H17       1.0  0.53843  0.67774  0.00803  1.0000
  H   H18       1.0  0.96157  0.67774  0.49198  1.0000
  H   H19       1.0  0.46158  0.32226  0.99198  1.0000
  H   H20       1.0  0.03843  0.32225  0.50802  1.0000
  H   H21       1.0  0.68338  0.63742  0.09037  1.0000
  H   H22       1.0  0.81662  0.63742  0.40963  1.0000
  H   H23       1.0  0.31663  0.36258  0.90963  1.0000
  H   H24       1.0  0.18338  0.36258  0.59037  1.0000
  H   H25       1.0  0.89898  0.64640  0.02397  1.0000
  H   H26       1.0  0.60103  0.64640  0.47603  1.0000
  H   H27       1.0  0.10103  0.35360  0.97603  1.0000
  H   H28       1.0  0.39897  0.35360  0.52397  1.0000
  C   C1        1.0  0.23543  0.21640  0.15065  1.0000
  C   C2        1.0  0.26458  0.21640  0.34935  1.0000
  C   C3        1.0  0.76458  0.78360  0.84935  1.0000
  C   C4        1.0  0.73542  0.78359  0.65065  1.0000
  C   C5        1.0  0.01689  0.15935  0.10898  1.0000
  C   C6        1.0  0.48311  0.15934  0.39102  1.0000
  C   C7        1.0  0.98311  0.84066  0.89102  1.0000
  C   C8        1.0  0.51689  0.84066  0.60898  1.0000
  C   C9        1.0  0.96974  0.97197  0.09900  1.0000
  C   C10       1.0  0.53026  0.97197  0.40100  1.0000
  C   C11       1.0  0.03026  0.02803  0.90100  1.0000
  C   C12       1.0  0.46974  0.02803  0.59900  1.0000
  C   C13       1.0  0.14412  0.85105  0.13480  1.0000
  C   C14       1.0  0.35587  0.85105  0.36520  1.0000
  C   C15       1.0  0.85587  0.14895  0.86520  1.0000
  C   C16       1.0  0.64412  0.14895  0.63480  1.0000
  C   C17       1.0  0.35778  0.91914  0.17591  1.0000
  C   C18       1.0  0.14222  0.91914  0.32409  1.0000
  C   C19       1.0  0.64222  0.08086  0.82409  1.0000
  C   C20       1.0  0.85779  0.08086  0.67591  1.0000
  C   C21       1.0  0.74819  0.90562  0.05245  1.0000
  C   C22       1.0  0.75181  0.90562  0.44755  1.0000
  C   C23       1.0  0.25181  0.09438  0.94755  1.0000
  C   C24       1.0  0.24819  0.09438  0.55245  1.0000
  C   C25       1.0  0.71230  0.70461  0.04301  1.0000
  C   C26       1.0  0.78771  0.70460  0.45699  1.0000
  C   C27       1.0  0.28771  0.29540  0.95699  1.0000
  C   C28       1.0  0.21229  0.29540  0.54301  1.0000
  N   N1        1.0  0.40640  0.09878  0.18347  1.0000
  N   N2        1.0  0.09359  0.09878  0.31653  1.0000
  N   N3        1.0  0.59359  0.90122  0.81653  1.0000
  N   N4        1.0  0.90641  0.90122  0.68347  1.0000
  N   N5        1.0  0.60163  0.03204  0.02183  1.0000
  N   N6        1.0  0.89837  0.03204  0.47817  1.0000
  N   N7        1.0  0.39837  0.96796  0.97817  1.0000
  N   N8        1.0  0.10163  0.96796  0.52183  1.0000
  N   N9        1.0  0.75000  0.60279  0.25000  1.0000
  N   N10       1.0  0.25000  0.39721  0.75000  1.0000
  O   O1        1.0  0.72966  0.51076  0.19723  1.0000
  O   O2        1.0  0.77035  0.51076  0.30277  1.0000
  O   O3        1.0  0.27034  0.48924  0.80277  1.0000
  O   O4        1.0  0.22966  0.48924  0.69723  1.0000
