data_image0
_chemical_formula_structural       Mn2H56C56N16Cl4
_chemical_formula_sum              "Mn2 H56 C56 N16 Cl4"
_cell_length_a       7.65737
_cell_length_b       12.6348
_cell_length_c       14.2575
_cell_angle_alpha    90
_cell_angle_beta     105.797
_cell_angle_gamma    90

_space_group_name_H-M_alt    "P 1"
_space_group_IT_number       1

loop_
  _space_group_symop_operation_xyz
  'x, y, z'

loop_
  _atom_site_type_symbol
  _atom_site_label
  _atom_site_symmetry_multiplicity
  _atom_site_fract_x
  _atom_site_fract_y
  _atom_site_fract_z
  _atom_site_occupancy
  Mn  Mn1       1.0  0.00000  0.00000  1.00000  1.0000
  Mn  Mn2       1.0  0.00000  0.50000  0.50000  1.0000
  H   H1        1.0  0.19019  0.80531  0.15359  1.0000
  H   H2        1.0  0.80981  0.30531  0.34642  1.0000
  H   H3        1.0  0.80981  0.19469  0.84641  1.0000
  H   H4        1.0  0.19019  0.69469  0.65358  1.0000
  H   H5        1.0  0.09792  0.76642  0.32964  1.0000
  H   H6        1.0  0.90209  0.26642  0.17036  1.0000
  H   H7        1.0  0.90208  0.23358  0.67036  1.0000
  H   H8        1.0  0.09792  0.73358  0.82964  1.0000
  H   H9        1.0  0.71430  0.97359  0.14870  1.0000
  H   H10       1.0  0.28570  0.47359  0.35130  1.0000
  H   H11       1.0  0.28570  0.02641  0.85130  1.0000
  H   H12       1.0  0.71430  0.52641  0.64870  1.0000
  H   H13       1.0  0.75654  0.80012  0.35971  1.0000
  H   H14       1.0  0.24346  0.30013  0.14029  1.0000
  H   H15       1.0  0.24346  0.19988  0.64029  1.0000
  H   H16       1.0  0.75655  0.69988  0.85971  1.0000
  H   H17       1.0  0.65185  0.91793  0.30329  1.0000
  H   H18       1.0  0.34815  0.41794  0.19671  1.0000
  H   H19       1.0  0.34815  0.08207  0.69671  1.0000
  H   H20       1.0  0.65185  0.58207  0.80329  1.0000
  H   H21       1.0  0.84887  0.09187  0.34535  1.0000
  H   H22       1.0  0.15112  0.59187  0.15466  1.0000
  H   H23       1.0  0.15113  0.90814  0.65466  1.0000
  H   H24       1.0  0.84887  0.40814  0.84535  1.0000
  H   H25       1.0  0.96666  0.80498  0.51383  1.0000
  H   H26       1.0  0.03334  0.30498  0.98617  1.0000
  H   H27       1.0  0.03334  0.19502  0.48617  1.0000
  H   H28       1.0  0.96666  0.69502  0.01383  1.0000
  H   H29       1.0  0.44663  0.09015  0.05368  1.0000
  H   H30       1.0  0.55339  0.59014  0.44632  1.0000
  H   H31       1.0  0.55339  0.90986  0.94632  1.0000
  H   H32       1.0  0.44661  0.40986  0.55368  1.0000
  H   H33       1.0  0.62068  0.17179  0.23520  1.0000
  H   H34       1.0  0.37932  0.67178  0.26479  1.0000
  H   H35       1.0  0.37932  0.82822  0.76480  1.0000
  H   H36       1.0  0.62067  0.32822  0.73521  1.0000
  H   H37       1.0  0.07786  0.09628  0.22616  1.0000
  H   H38       1.0  0.92215  0.59628  0.27383  1.0000
  H   H39       1.0  0.92215  0.90372  0.77383  1.0000
  H   H40       1.0  0.07785  0.40371  0.72617  1.0000
  H   H41       1.0  0.26090  0.20670  0.37034  1.0000
  H   H42       1.0  0.73910  0.70670  0.12965  1.0000
  H   H43       1.0  0.73910  0.79330  0.62966  1.0000
  H   H44       1.0  0.26089  0.29329  0.87034  1.0000
  H   H45       1.0  0.49057  0.23755  0.37961  1.0000
  H   H46       1.0  0.50942  0.73755  0.12039  1.0000
  H   H47       1.0  0.50943  0.76245  0.62039  1.0000
  H   H48       1.0  0.49057  0.26245  0.87960  1.0000
  H   H49       1.0  0.60332  0.18421  0.54560  1.0000
  H   H50       1.0  0.39667  0.68420  0.95440  1.0000
  H   H51       1.0  0.39668  0.81579  0.45440  1.0000
  H   H52       1.0  0.60331  0.31579  0.04560  1.0000
  H   H53       1.0  0.30725  0.96001  0.33349  1.0000
  H   H54       1.0  0.69275  0.46000  0.16651  1.0000
  H   H55       1.0  0.69275  0.03999  0.66650  1.0000
  H   H56       1.0  0.30724  0.53999  0.83349  1.0000
  C   C1        1.0  0.07704  0.83279  0.17930  1.0000
  C   C2        1.0  0.92296  0.33279  0.32070  1.0000
  C   C3        1.0  0.92296  0.16721  0.82070  1.0000
  C   C4        1.0  0.07704  0.66721  0.67930  1.0000
  C   C5        1.0  0.03374  0.81343  0.26539  1.0000
  C   C6        1.0  0.96627  0.31343  0.23461  1.0000
  C   C7        1.0  0.96626  0.18657  0.73461  1.0000
  C   C8        1.0  0.03374  0.68657  0.76539  1.0000
  C   C9        1.0  0.83080  0.92149  0.17204  1.0000
  C   C10       1.0  0.16920  0.42149  0.32796  1.0000
  C   C11       1.0  0.16920  0.07852  0.82796  1.0000
  C   C12       1.0  0.83080  0.57852  0.67204  1.0000
  C   C13       1.0  0.78305  0.87961  0.33595  1.0000
  C   C14       1.0  0.21695  0.37961  0.16405  1.0000
  C   C15       1.0  0.21695  0.12039  0.66405  1.0000
  C   C16       1.0  0.78305  0.62039  0.83595  1.0000
  C   C17       1.0  0.89387  0.94228  0.42128  1.0000
  C   C18       1.0  0.10613  0.44228  0.07872  1.0000
  C   C19       1.0  0.10613  0.05772  0.57872  1.0000
  C   C20       1.0  0.89387  0.55772  0.92128  1.0000
  C   C21       1.0  0.91557  0.05151  0.41334  1.0000
  C   C22       1.0  0.08443  0.55151  0.08666  1.0000
  C   C23       1.0  0.08443  0.94849  0.58666  1.0000
  C   C24       1.0  0.91557  0.44849  0.91334  1.0000
  C   C25       1.0  0.97932  0.89070  0.50842  1.0000
  C   C26       1.0  0.02068  0.39070  0.99158  1.0000
  C   C27       1.0  0.02068  0.10930  0.49158  1.0000
  C   C28       1.0  0.97932  0.60930  0.00842  1.0000
  C   C29       1.0  0.39417  0.10220  0.11628  1.0000
  C   C30       1.0  0.60584  0.60219  0.38371  1.0000
  C   C31       1.0  0.60584  0.89781  0.88371  1.0000
  C   C32       1.0  0.39416  0.39781  0.61629  1.0000
  C   C33       1.0  0.48368  0.14238  0.20636  1.0000
  C   C34       1.0  0.51633  0.64237  0.29364  1.0000
  C   C35       1.0  0.51633  0.85763  0.79364  1.0000
  C   C36       1.0  0.48367  0.35763  0.70636  1.0000
  C   C37       1.0  0.20019  0.10436  0.20247  1.0000
  C   C38       1.0  0.79982  0.60436  0.29752  1.0000
  C   C39       1.0  0.79982  0.89564  0.79753  1.0000
  C   C40       1.0  0.20018  0.39564  0.70247  1.0000
  C   C41       1.0  0.38922  0.17370  0.36233  1.0000
  C   C42       1.0  0.61078  0.67370  0.13767  1.0000
  C   C43       1.0  0.61078  0.82630  0.63767  1.0000
  C   C44       1.0  0.38921  0.32629  0.86233  1.0000
  C   C45       1.0  0.44883  0.08221  0.43194  1.0000
  C   C46       1.0  0.55117  0.58221  0.06806  1.0000
  C   C47       1.0  0.55118  0.91779  0.56806  1.0000
  C   C48       1.0  0.44881  0.41778  0.93194  1.0000
  C   C49       1.0  0.55671  0.10336  0.52616  1.0000
  C   C50       1.0  0.44328  0.60336  0.97384  1.0000
  C   C51       1.0  0.44329  0.89664  0.47384  1.0000
  C   C52       1.0  0.55670  0.39663  0.02616  1.0000
  C   C53       1.0  0.39259  0.97833  0.40633  1.0000
  C   C54       1.0  0.60740  0.47833  0.09367  1.0000
  C   C55       1.0  0.60741  0.02167  0.59367  1.0000
  C   C56       1.0  0.39258  0.52166  0.90633  1.0000
  N   N1        1.0  0.94985  0.90034  0.12172  1.0000
  N   N2        1.0  0.05015  0.40034  0.37828  1.0000
  N   N3        1.0  0.05015  0.09966  0.87828  1.0000
  N   N4        1.0  0.94985  0.59966  0.62172  1.0000
  N   N5        1.0  0.87616  0.87002  0.25911  1.0000
  N   N6        1.0  0.12384  0.37002  0.24089  1.0000
  N   N7        1.0  0.12384  0.12998  0.74089  1.0000
  N   N8        1.0  0.87617  0.62998  0.75911  1.0000
  N   N9        1.0  0.21750  0.07878  0.11499  1.0000
  N   N10       1.0  0.78251  0.57878  0.38500  1.0000
  N   N11       1.0  0.78251  0.92122  0.88501  1.0000
  N   N12       1.0  0.21749  0.42122  0.61500  1.0000
  N   N13       1.0  0.35808  0.14378  0.26025  1.0000
  N   N14       1.0  0.64192  0.64377  0.23975  1.0000
  N   N15       1.0  0.64192  0.85623  0.73975  1.0000
  N   N16       1.0  0.35808  0.35623  0.76025  1.0000
  Cl  Cl1       1.0  0.77055  0.13631  0.02400  1.0000
  Cl  Cl2       1.0  0.22946  0.63631  0.47600  1.0000
  Cl  Cl3       1.0  0.22946  0.86369  0.97600  1.0000
  Cl  Cl4       1.0  0.77054  0.36369  0.52400  1.0000
