data_image0
_chemical_formula_structural       Sm6CoH36C20S6N8O54
_chemical_formula_sum              "Sm6 Co1 H36 C20 S6 N8 O54"
_cell_length_a       6.5706
_cell_length_b       9.41325
_cell_length_c       21.619
_cell_angle_alpha    97.1403
_cell_angle_beta     94.4371
_cell_angle_gamma    97.9909

_space_group_name_H-M_alt    "P 1"
_space_group_IT_number       1

loop_
  _space_group_symop_operation_xyz
  'x, y, z'

loop_
  _atom_site_type_symbol
  _atom_site_label
  _atom_site_symmetry_multiplicity
  _atom_site_fract_x
  _atom_site_fract_y
  _atom_site_fract_z
  _atom_site_occupancy
  Sm  Sm1       1.0  0.35257  0.00690  0.86293  1.0000
  Sm  Sm2       1.0  0.64743  0.99310  0.13707  1.0000
  Sm  Sm3       1.0  0.07694  0.87460  0.67976  1.0000
  Sm  Sm4       1.0  0.92306  0.12540  0.32024  1.0000
  Sm  Sm5       1.0  0.33782  0.28739  0.57763  1.0000
  Sm  Sm6       1.0  0.66219  0.71261  0.42237  1.0000
  Co  Co1       1.0  1.00000  0.50000  1.00000  1.0000
  H   H1        1.0  0.57879  0.61901  0.69301  1.0000
  H   H2        1.0  0.42122  0.38099  0.30699  1.0000
  H   H3        1.0  0.83656  0.26787  0.85832  1.0000
  H   H4        1.0  0.16343  0.73214  0.14168  1.0000
  H   H5        1.0  0.57368  0.63632  0.81172  1.0000
  H   H6        1.0  0.42633  0.36368  0.18828  1.0000
  H   H7        1.0  0.91741  0.38094  0.76055  1.0000
  H   H8        1.0  0.08259  0.61906  0.23944  1.0000
  H   H9        1.0  0.10087  0.51864  0.64426  1.0000
  H   H10       1.0  0.89913  0.48136  0.35574  1.0000
  H   H11       1.0  0.04787  0.50229  0.57142  1.0000
  H   H12       1.0  0.95212  0.49771  0.42858  1.0000
  H   H13       1.0  0.19926  0.96349  0.52967  1.0000
  H   H14       1.0  0.80074  0.03650  0.47033  1.0000
  H   H15       1.0  0.31244  0.02630  0.47479  1.0000
  H   H16       1.0  0.68757  0.97370  0.52521  1.0000
  H   H17       1.0  0.29316  0.77117  0.56351  1.0000
  H   H18       1.0  0.70684  0.22883  0.43649  1.0000
  H   H19       1.0  0.04998  0.74804  0.54481  1.0000
  H   H20       1.0  0.95002  0.25196  0.45519  1.0000
  H   H21       1.0  0.55925  0.86067  0.70907  1.0000
  H   H22       1.0  0.44075  0.13933  0.29093  1.0000
  H   H23       1.0  0.52375  0.92761  0.64926  1.0000
  H   H24       1.0  0.47624  0.07240  0.35074  1.0000
  H   H25       1.0  0.05214  0.07419  0.95327  1.0000
  H   H26       1.0  0.94786  0.92581  0.04673  1.0000
  H   H27       1.0  0.22997  0.20547  0.97983  1.0000
  H   H28       1.0  0.77003  0.79453  0.02017  1.0000
  H   H29       1.0  0.68989  0.16561  0.96464  1.0000
  H   H30       1.0  0.31011  0.83439  0.03536  1.0000
  H   H31       1.0  0.67768  0.00116  0.97431  1.0000
  H   H32       1.0  0.32232  0.99884  0.02569  1.0000
  H   H33       1.0  0.64738  0.58153  0.03495  1.0000
  H   H34       1.0  0.35262  0.41846  0.96505  1.0000
  H   H35       1.0  0.63363  0.58092  0.96129  1.0000
  H   H36       1.0  0.36638  0.41907  0.03871  1.0000
  C   C1        1.0  0.29905  0.16725  0.72124  1.0000
  C   C2        1.0  0.70095  0.83275  0.27876  1.0000
  C   C3        1.0  0.39712  0.31846  0.73958  1.0000
  C   C4        1.0  0.60287  0.68154  0.26043  1.0000
  C   C5        1.0  0.45017  0.40820  0.79660  1.0000
  C   C6        1.0  0.54983  0.59180  0.20340  1.0000
  C   C7        1.0  0.43867  0.38611  0.86267  1.0000
  C   C8        1.0  0.56133  0.61389  0.13733  1.0000
  C   C9        1.0  0.52126  0.53092  0.71787  1.0000
  C   C10       1.0  0.47875  0.46909  0.28213  1.0000
  C   C11       1.0  0.18085  0.71053  0.93529  1.0000
  C   C12       1.0  0.81916  0.28947  0.06471  1.0000
  C   C13       1.0  0.06862  0.59983  0.88670  1.0000
  C   C14       1.0  0.93139  0.40017  0.11330  1.0000
  C   C15       1.0  0.05096  0.57659  0.82141  1.0000
  C   C16       1.0  0.94904  0.42341  0.17859  1.0000
  C   C17       1.0  0.10805  0.66807  0.77268  1.0000
  C   C18       1.0  0.89195  0.33193  0.22732  1.0000
  C   C19       1.0  0.91266  0.37822  0.85884  1.0000
  C   C20       1.0  0.08734  0.62178  0.14116  1.0000
  S   S1        1.0  0.67828  0.64029  0.56431  1.0000
  S   S2        1.0  0.32172  0.35971  0.43569  1.0000
  S   S3        1.0  0.83488  0.17452  0.62875  1.0000
  S   S4        1.0  0.16513  0.82548  0.37125  1.0000
  S   S5        1.0  0.77497  0.93861  0.81606  1.0000
  S   S6        1.0  0.22503  0.06139  0.18394  1.0000
  N   N1        1.0  0.44143  0.39767  0.69151  1.0000
  N   N2        1.0  0.55857  0.60233  0.30849  1.0000
  N   N3        1.0  0.52646  0.54168  0.78097  1.0000
  N   N4        1.0  0.47354  0.45832  0.21903  1.0000
  N   N5        1.0  0.97985  0.47689  0.90903  1.0000
  N   N6        1.0  0.02015  0.52311  0.09097  1.0000
  N   N7        1.0  0.95218  0.43575  0.80584  1.0000
  N   N8        1.0  0.04782  0.56425  0.19416  1.0000
  O   O1        1.0  0.83557  0.62937  0.51687  1.0000
  O   O2        1.0  0.16443  0.37063  0.48313  1.0000
  O   O3        1.0  0.58738  0.49409  0.57390  1.0000
  O   O4        1.0  0.41262  0.50591  0.42610  1.0000
  O   O5        1.0  0.78532  0.71736  0.62436  1.0000
  O   O6        1.0  0.21467  0.28265  0.37564  1.0000
  O   O7        1.0  0.52290  0.72265  0.53749  1.0000
  O   O8        1.0  0.47710  0.27735  0.46251  1.0000
  O   O9        1.0  0.98324  0.21284  0.58280  1.0000
  O   O10       1.0  0.01677  0.78716  0.41720  1.0000
  O   O11       1.0  0.84449  0.02152  0.64143  1.0000
  O   O12       1.0  0.15550  0.97848  0.35857  1.0000
  O   O13       1.0  0.87474  0.27561  0.68693  1.0000
  O   O14       1.0  0.12527  0.72439  0.31307  1.0000
  O   O15       1.0  0.62408  0.17076  0.59693  1.0000
  O   O16       1.0  0.37592  0.82925  0.40307  1.0000
  O   O17       1.0  0.27194  0.12142  0.66260  1.0000
  O   O18       1.0  0.72806  0.87858  0.33740  1.0000
  O   O19       1.0  0.23554  0.08296  0.76031  1.0000
  O   O20       1.0  0.76445  0.91704  0.23969  1.0000
  O   O21       1.0  0.40161  0.25831  0.87604  1.0000
  O   O22       1.0  0.59839  0.74168  0.12396  1.0000
  O   O23       1.0  0.46434  0.49892  0.90306  1.0000
  O   O24       1.0  0.53565  0.50107  0.09695  1.0000
  O   O25       1.0  0.28771  0.82379  0.92453  1.0000
  O   O26       1.0  0.71230  0.17621  0.07547  1.0000
  O   O27       1.0  0.16927  0.67868  0.99195  1.0000
  O   O28       1.0  0.83074  0.32131  0.00805  1.0000
  O   O29       1.0  0.21034  0.79591  0.78702  1.0000
  O   O30       1.0  0.78966  0.20410  0.21298  1.0000
  O   O31       1.0  0.04637  0.61981  0.71587  1.0000
  O   O32       1.0  0.95363  0.38019  0.28413  1.0000
  O   O33       1.0  0.66377  0.06457  0.80917  1.0000
  O   O34       1.0  0.33622  0.93542  0.19083  1.0000
  O   O35       1.0  0.63600  0.83265  0.84535  1.0000
  O   O36       1.0  0.36400  0.16735  0.15465  1.0000
  O   O37       1.0  0.80860  0.86864  0.75200  1.0000
  O   O38       1.0  0.19140  0.13136  0.24800  1.0000
  O   O39       1.0  0.97495  0.98584  0.85428  1.0000
  O   O40       1.0  0.02505  0.01417  0.14572  1.0000
  O   O41       1.0  0.16092  0.50558  0.60394  1.0000
  O   O42       1.0  0.83908  0.49442  0.39606  1.0000
  O   O43       1.0  0.24893  0.05423  0.51283  1.0000
  O   O44       1.0  0.75109  0.94576  0.48717  1.0000
  O   O45       1.0  0.16567  0.81526  0.57059  1.0000
  O   O46       1.0  0.83433  0.18474  0.42941  1.0000
  O   O47       1.0  0.44755  0.86903  0.67687  1.0000
  O   O48       1.0  0.55245  0.13096  0.32313  1.0000
  O   O49       1.0  0.20045  0.09733  0.96608  1.0000
  O   O50       1.0  0.79955  0.90267  0.03391  1.0000
  O   O51       1.0  0.63959  0.06558  0.94389  1.0000
  O   O52       1.0  0.36041  0.93442  0.05611  1.0000
  O   O53       1.0  0.72343  0.61934  0.00074  1.0000
  O   O54       1.0  0.27657  0.38065  0.99926  1.0000
