data_image0
_chemical_formula_structural       V8Co2H32C48N8O23
_chemical_formula_sum              "V8 Co2 H32 C48 N8 O23"
_cell_length_a       8.87313
_cell_length_b       11.8997
_cell_length_c       13.06
_cell_angle_alpha    97.08
_cell_angle_beta     96.3376
_cell_angle_gamma    102.952

_space_group_name_H-M_alt    "P 1"
_space_group_IT_number       1

loop_
  _space_group_symop_operation_xyz
  'x, y, z'

loop_
  _atom_site_type_symbol
  _atom_site_label
  _atom_site_symmetry_multiplicity
  _atom_site_fract_x
  _atom_site_fract_y
  _atom_site_fract_z
  _atom_site_occupancy
  V   V1        1.0  0.38337  0.59871  0.86796  1.0000
  V   V2        1.0  0.61662  0.40129  0.13205  1.0000
  V   V3        1.0  0.53399  0.66838  0.13064  1.0000
  V   V4        1.0  0.46601  0.33162  0.86936  1.0000
  V   V5        1.0  0.39024  0.85165  0.48959  1.0000
  V   V6        1.0  0.60976  0.14835  0.51041  1.0000
  V   V7        1.0  0.58104  0.70720  0.66960  1.0000
  V   V8        1.0  0.41896  0.29280  0.33040  1.0000
  Co  Co1       1.0  0.23262  0.74689  0.23927  1.0000
  Co  Co2       1.0  0.76738  0.25311  0.76073  1.0000
  H   H1        1.0  0.95138  0.54828  0.11943  1.0000
  H   H2        1.0  0.04862  0.45172  0.88057  1.0000
  H   H3        1.0  0.77656  0.53660  0.95579  1.0000
  H   H4        1.0  0.22343  0.46340  0.04421  1.0000
  H   H5        1.0  0.81673  0.70545  0.85288  1.0000
  H   H6        1.0  0.18327  0.29455  0.14712  1.0000
  H   H7        1.0  0.46097  0.15191  0.04549  1.0000
  H   H8        1.0  0.53903  0.84809  0.95451  1.0000
  H   H9        1.0  0.61757  0.12543  0.20865  1.0000
  H   H10       1.0  0.38243  0.87457  0.79135  1.0000
  H   H11       1.0  0.52314  0.95003  0.29493  1.0000
  H   H12       1.0  0.47686  0.04997  0.70507  1.0000
  H   H13       1.0  0.17858  0.99985  0.28268  1.0000
  H   H14       1.0  0.82142  0.00015  0.71732  1.0000
  H   H15       1.0  0.97202  0.07253  0.36329  1.0000
  H   H16       1.0  0.02798  0.92747  0.63671  1.0000
  H   H17       1.0  0.75939  0.93526  0.42598  1.0000
  H   H18       1.0  0.24061  0.06474  0.57402  1.0000
  H   H19       1.0  0.84650  0.36995  0.40331  1.0000
  H   H20       1.0  0.15351  0.63005  0.59670  1.0000
  H   H21       1.0  0.08840  0.33752  0.33240  1.0000
  H   H22       1.0  0.91160  0.66248  0.66760  1.0000
  H   H23       1.0  0.25883  0.49891  0.26315  1.0000
  H   H24       1.0  0.74117  0.50110  0.73685  1.0000
  H   H25       1.0  0.67388  0.52005  0.44546  1.0000
  H   H26       1.0  0.32612  0.47995  0.55454  1.0000
  H   H27       1.0  0.64225  0.71879  0.44989  1.0000
  H   H28       1.0  0.35775  0.28121  0.55011  1.0000
  H   H29       1.0  0.22218  0.06471  0.90153  1.0000
  H   H30       1.0  0.77782  0.93529  0.09847  1.0000
  H   H31       1.0  0.98806  0.90104  0.83320  1.0000
  H   H32       1.0  0.01194  0.09896  0.16680  1.0000
  C   C1        1.0  0.97005  0.62012  0.07452  1.0000
  C   C2        1.0  0.02995  0.37988  0.92548  1.0000
  C   C3        1.0  0.87046  0.61481  0.98159  1.0000
  C   C4        1.0  0.12953  0.38519  0.01841  1.0000
  C   C5        1.0  0.89298  0.70602  0.92448  1.0000
  C   C6        1.0  0.10702  0.29398  0.07552  1.0000
  C   C7        1.0  0.02042  0.80316  0.95930  1.0000
  C   C8        1.0  0.97958  0.19684  0.04070  1.0000
  C   C9        1.0  0.11480  0.80148  0.05305  1.0000
  C   C10       1.0  0.88519  0.19852  0.94695  1.0000
  C   C11       1.0  0.24685  0.89412  0.09257  1.0000
  C   C12       1.0  0.75315  0.10588  0.90743  1.0000
  C   C13       1.0  0.28764  0.98993  0.03885  1.0000
  C   C14       1.0  0.71236  0.01007  0.96115  1.0000
  C   C15       1.0  0.42464  0.07552  0.08317  1.0000
  C   C16       1.0  0.57536  0.92448  0.91683  1.0000
  C   C17       1.0  0.51098  0.06109  0.17359  1.0000
  C   C18       1.0  0.48902  0.93891  0.82641  1.0000
  C   C19       1.0  0.46062  0.96359  0.22282  1.0000
  C   C20       1.0  0.53938  0.03641  0.77718  1.0000
  C   C21       1.0  0.08573  0.93896  0.30961  1.0000
  C   C22       1.0  0.91427  0.06104  0.69038  1.0000
  C   C23       1.0  0.96795  0.97966  0.35525  1.0000
  C   C24       1.0  0.03205  0.02034  0.64475  1.0000
  C   C25       1.0  0.85037  0.90313  0.39057  1.0000
  C   C26       1.0  0.14963  0.09687  0.60942  1.0000
  C   C27       1.0  0.85239  0.78415  0.38292  1.0000
  C   C28       1.0  0.14761  0.21585  0.61708  1.0000
  C   C29       1.0  0.97626  0.75082  0.33786  1.0000
  C   C30       1.0  0.02374  0.24919  0.66214  1.0000
  C   C31       1.0  0.99407  0.63524  0.33410  1.0000
  C   C32       1.0  0.00593  0.36477  0.66590  1.0000
  C   C33       1.0  0.88922  0.55033  0.37498  1.0000
  C   C34       1.0  0.11078  0.44967  0.62502  1.0000
  C   C35       1.0  0.92323  0.43942  0.37296  1.0000
  C   C36       1.0  0.07677  0.56058  0.62704  1.0000
  C   C37       1.0  0.05544  0.42057  0.33352  1.0000
  C   C38       1.0  0.94456  0.57943  0.66648  1.0000
  C   C39       1.0  0.15296  0.51006  0.29331  1.0000
  C   C40       1.0  0.84704  0.48994  0.70669  1.0000
  C   C41       1.0  0.75975  0.58390  0.41572  1.0000
  C   C42       1.0  0.24026  0.41610  0.58428  1.0000
  C   C43       1.0  0.74200  0.69568  0.41881  1.0000
  C   C44       1.0  0.25800  0.30432  0.58119  1.0000
  C   C45       1.0  0.19008  0.99118  0.94382  1.0000
  C   C46       1.0  0.80992  0.00882  0.05618  1.0000
  C   C47       1.0  0.06207  0.90137  0.90577  1.0000
  C   C48       1.0  0.93793  0.09863  0.09423  1.0000
  N   N1        1.0  0.08865  0.71236  0.10990  1.0000
  N   N2        1.0  0.91135  0.28764  0.89010  1.0000
  N   N3        1.0  0.33015  0.88300  0.18319  1.0000
  N   N4        1.0  0.66985  0.11700  0.81681  1.0000
  N   N5        1.0  0.08835  0.82633  0.30019  1.0000
  N   N6        1.0  0.91165  0.17367  0.69981  1.0000
  N   N7        1.0  0.12089  0.61396  0.29263  1.0000
  N   N8        1.0  0.87911  0.38604  0.70737  1.0000
  O   O1        1.0  0.21951  0.84870  0.52522  1.0000
  O   O2        1.0  0.78049  0.15131  0.47478  1.0000
  O   O3        1.0  0.45673  0.67714  0.77308  1.0000
  O   O4        1.0  0.54327  0.32286  0.22692  1.0000
  O   O5        1.0  0.49077  0.77871  0.57375  1.0000
  O   O6        1.0  0.50923  0.22129  0.42625  1.0000
  O   O7        1.0  0.59796  0.58123  0.61413  1.0000
  O   O8        1.0  0.40203  0.41877  0.38587  1.0000
  O   O9        1.0  0.20897  0.61484  0.87789  1.0000
  O   O10       1.0  0.79103  0.38516  0.12211  1.0000
  O   O11       1.0  0.75600  0.78883  0.72043  1.0000
  O   O12       1.0  0.24400  0.21116  0.27957  1.0000
  O   O13       1.0  0.65118  0.79469  0.17413  1.0000
  O   O14       1.0  0.34882  0.20531  0.82587  1.0000
  O   O15       1.0  0.50328  0.65501  0.98982  1.0000
  O   O16       1.0  0.49672  0.34499  0.01018  1.0000
  O   O17       1.0  0.62277  0.55176  0.16266  1.0000
  O   O18       1.0  0.37723  0.44825  0.83734  1.0000
  O   O19       1.0  0.35931  0.65775  0.17533  1.0000
  O   O20       1.0  0.64069  0.34225  0.82467  1.0000
  O   O21       1.0  0.37622  0.79025  0.36169  1.0000
  O   O22       1.0  0.62378  0.20975  0.63831  1.0000
  O   O23       1.0  0.50001  1.00000  0.50000  1.0000
