data_image0
_chemical_formula_structural       Rb2H14C28N8O24
_chemical_formula_sum              "Rb2 H14 C28 N8 O24"
_cell_length_a       9.40911
_cell_length_b       9.80388
_cell_length_c       11.5175
_cell_angle_alpha    68.0057
_cell_angle_beta     83.6187
_cell_angle_gamma    68.1846

_space_group_name_H-M_alt    "P 1"
_space_group_IT_number       1

loop_
  _space_group_symop_operation_xyz
  'x, y, z'

loop_
  _atom_site_type_symbol
  _atom_site_label
  _atom_site_symmetry_multiplicity
  _atom_site_fract_x
  _atom_site_fract_y
  _atom_site_fract_z
  _atom_site_occupancy
  Rb  Rb1       1.0  0.60296  0.23241  0.63099  1.0000
  Rb  Rb2       1.0  0.39704  0.76759  0.36901  1.0000
  H   H1        1.0  0.71359  0.46909  0.65550  1.0000
  H   H2        1.0  0.28641  0.53091  0.34450  1.0000
  H   H3        1.0  0.18665  0.79180  0.67236  1.0000
  H   H4        1.0  0.81334  0.20820  0.32763  1.0000
  H   H5        1.0  0.18103  0.98770  0.95345  1.0000
  H   H6        1.0  0.81897  0.01230  0.04655  1.0000
  H   H7        1.0  0.58223  0.60873  0.91555  1.0000
  H   H8        1.0  0.41777  0.39127  0.08445  1.0000
  H   H9        1.0  0.80955  0.70185  0.23177  1.0000
  H   H10       1.0  0.19045  0.29815  0.76823  1.0000
  H   H11       1.0  0.20693  0.34958  0.15487  1.0000
  H   H12       1.0  0.79307  0.65042  0.84513  1.0000
  H   H13       1.0  0.01700  0.24871  0.52196  1.0000
  H   H14       1.0  0.98301  0.75129  0.47804  1.0000
  C   C1        1.0  0.39462  0.69001  0.78526  1.0000
  C   C2        1.0  0.60538  0.30999  0.21474  1.0000
  C   C3        1.0  0.24429  0.79303  0.74849  1.0000
  C   C4        1.0  0.75571  0.20697  0.25151  1.0000
  C   C5        1.0  0.17041  0.89831  0.80960  1.0000
  C   C6        1.0  0.82959  0.10169  0.19040  1.0000
  C   C7        1.0  0.23999  0.90469  0.90696  1.0000
  C   C8        1.0  0.76001  0.09532  0.09303  1.0000
  C   C9        1.0  0.38844  0.79794  0.94307  1.0000
  C   C10       1.0  0.61156  0.20206  0.05693  1.0000
  C   C11       1.0  0.46634  0.69077  0.88476  1.0000
  C   C12       1.0  0.53366  0.30923  0.11524  1.0000
  C   C13       1.0  0.48218  0.58331  0.71441  1.0000
  C   C14       1.0  0.51782  0.41669  0.28559  1.0000
  C   C15       1.0  0.90072  0.48070  0.38642  1.0000
  C   C16       1.0  0.09928  0.51930  0.61358  1.0000
  C   C17       1.0  0.89710  0.58461  0.26308  1.0000
  C   C18       1.0  0.10290  0.41539  0.73692  1.0000
  C   C19       1.0  0.00699  0.53487  0.18186  1.0000
  C   C20       1.0  0.99301  0.46513  0.81814  1.0000
  C   C21       1.0  0.12191  0.38670  0.21920  1.0000
  C   C22       1.0  0.87809  0.61330  0.78080  1.0000
  C   C23       1.0  0.12280  0.28707  0.34233  1.0000
  C   C24       1.0  0.87721  0.71293  0.65767  1.0000
  C   C25       1.0  0.01302  0.32997  0.42633  1.0000
  C   C26       1.0  0.98698  0.67003  0.57367  1.0000
  C   C27       1.0  0.78768  0.53678  0.47637  1.0000
  C   C28       1.0  0.21232  0.46322  0.52363  1.0000
  N   N1        1.0  0.01201  0.00635  0.77177  1.0000
  N   N2        1.0  0.98799  0.99365  0.22823  1.0000
  N   N3        1.0  0.46627  0.79914  0.04617  1.0000
  N   N4        1.0  0.53373  0.20086  0.95383  1.0000
  N   N5        1.0  0.00545  0.64137  0.05185  1.0000
  N   N6        1.0  0.99455  0.35863  0.94815  1.0000
  N   N7        1.0  0.24652  0.13310  0.38485  1.0000
  N   N8        1.0  0.75348  0.86691  0.61515  1.0000
  O   O1        1.0  0.62567  0.50788  0.74649  1.0000
  O   O2        1.0  0.37433  0.49212  0.25351  1.0000
  O   O3        1.0  0.41430  0.57691  0.63003  1.0000
  O   O4        1.0  0.58570  0.42309  0.36997  1.0000
  O   O5        1.0  0.94825  0.99611  0.68784  1.0000
  O   O6        1.0  0.05175  0.00390  0.31216  1.0000
  O   O7        1.0  0.94996  0.10218  0.82455  1.0000
  O   O8        1.0  0.05004  0.89782  0.17545  1.0000
  O   O9        1.0  0.39917  0.90326  0.09089  1.0000
  O   O10       1.0  0.60082  0.09673  0.90911  1.0000
  O   O11       1.0  0.59396  0.69623  0.08336  1.0000
  O   O12       1.0  0.40604  0.30378  0.91664  1.0000
  O   O13       1.0  0.79509  0.42671  0.58705  1.0000
  O   O14       1.0  0.20491  0.57329  0.41295  1.0000
  O   O15       1.0  0.70112  0.67643  0.44567  1.0000
  O   O16       1.0  0.29888  0.32357  0.55433  1.0000
  O   O17       1.0  0.90068  0.77181  0.01581  1.0000
  O   O18       1.0  0.09932  0.22819  0.98419  1.0000
  O   O19       1.0  0.10985  0.59365  0.98455  1.0000
  O   O20       1.0  0.89015  0.40635  0.01545  1.0000
  O   O21       1.0  0.34940  0.10411  0.31026  1.0000
  O   O22       1.0  0.65060  0.89589  0.68974  1.0000
  O   O23       1.0  0.24220  0.03931  0.49194  1.0000
  O   O24       1.0  0.75780  0.96069  0.50806  1.0000
