data_image0
_chemical_formula_structural       CdH12C12Br2N2O2
_chemical_formula_sum              "Cd1 H12 C12 Br2 N2 O2"
_cell_length_a       4.06914
_cell_length_b       8.12133
_cell_length_c       9.9691
_cell_angle_alpha    84.4669
_cell_angle_beta     82.7871
_cell_angle_gamma    84.8948

_space_group_name_H-M_alt    "P 1"
_space_group_IT_number       1

loop_
  _space_group_symop_operation_xyz
  'x, y, z'

loop_
  _atom_site_type_symbol
  _atom_site_label
  _atom_site_symmetry_multiplicity
  _atom_site_fract_x
  _atom_site_fract_y
  _atom_site_fract_z
  _atom_site_occupancy
  Cd  Cd1       1.0  0.50000  0.00000  1.00000  1.0000
  H   H1        1.0  0.87558  0.61732  0.13833  1.0000
  H   H2        1.0  0.12442  0.38269  0.86167  1.0000
  H   H3        1.0  0.51550  0.60416  0.05986  1.0000
  H   H4        1.0  0.48450  0.39584  0.94014  1.0000
  H   H5        1.0  0.30456  0.41377  0.24377  1.0000
  H   H6        1.0  0.69544  0.58623  0.75623  1.0000
  H   H7        1.0  0.66983  0.42551  0.32424  1.0000
  H   H8        1.0  0.33018  0.57450  0.67576  1.0000
  H   H9        1.0  0.43118  0.08861  0.31303  1.0000
  H   H10       1.0  0.56882  0.91138  0.68697  1.0000
  H   H11       1.0  0.83947  0.71022  0.52636  1.0000
  H   H12       1.0  0.16053  0.28978  0.47364  1.0000
  C   C1        1.0  0.60371  0.62196  0.15677  1.0000
  C   C2        1.0  0.39629  0.37804  0.84322  1.0000
  C   C3        1.0  0.47396  0.49808  0.27336  1.0000
  C   C4        1.0  0.52605  0.50192  0.72664  1.0000
  C   C5        1.0  0.30848  0.76379  0.31835  1.0000
  C   C6        1.0  0.69152  0.23621  0.68165  1.0000
  C   C7        1.0  0.14722  0.88721  0.40836  1.0000
  C   C8        1.0  0.85278  0.11279  0.59164  1.0000
  C   C9        1.0  0.23765  0.05107  0.39303  1.0000
  C   C10       1.0  0.76235  0.94893  0.60697  1.0000
  C   C11       1.0  0.90991  0.83737  0.51606  1.0000
  C   C12       1.0  0.09009  0.16262  0.48394  1.0000
  Br  Br1       1.0  0.92233  0.18374  0.10674  1.0000
  Br  Br2       1.0  0.07767  0.81626  0.89326  1.0000
  N   N1        1.0  0.47302  0.78679  0.19927  1.0000
  N   N2        1.0  0.52698  0.21321  0.80073  1.0000
  O   O1        1.0  0.28604  0.60359  0.37198  1.0000
  O   O2        1.0  0.71396  0.39641  0.62802  1.0000
