data_image0
_chemical_formula_structural       Hg2H20C28S4Br4N8
_chemical_formula_sum              "Hg2 H20 C28 S4 Br4 N8"
_cell_length_a       9.61993
_cell_length_b       10.2832
_cell_length_c       10.2832
_cell_angle_alpha    74.5279
_cell_angle_beta     68.8135
_cell_angle_gamma    68.8134

_space_group_name_H-M_alt    "P 1"
_space_group_IT_number       1

loop_
  _space_group_symop_operation_xyz
  'x, y, z'

loop_
  _atom_site_type_symbol
  _atom_site_label
  _atom_site_symmetry_multiplicity
  _atom_site_fract_x
  _atom_site_fract_y
  _atom_site_fract_z
  _atom_site_occupancy
  Hg  Hg1       1.0  0.25000  0.74611  0.25389  1.0000
  Hg  Hg2       1.0  0.75000  0.25389  0.74611  1.0000
  H   H1        1.0  0.04775  0.60935  0.89235  1.0000
  H   H2        1.0  0.45225  0.10765  0.39065  1.0000
  H   H3        1.0  0.95225  0.39065  0.10765  1.0000
  H   H4        1.0  0.54775  0.89235  0.60935  1.0000
  H   H5        1.0  0.08549  0.80576  0.68794  1.0000
  H   H6        1.0  0.41451  0.31206  0.19424  1.0000
  H   H7        1.0  0.91451  0.19424  0.31206  1.0000
  H   H8        1.0  0.58549  0.68794  0.80576  1.0000
  H   H9        1.0  0.19711  0.98454  0.70744  1.0000
  H   H10       1.0  0.30289  0.29256  0.01546  1.0000
  H   H11       1.0  0.80289  0.01546  0.29256  1.0000
  H   H12       1.0  0.69711  0.70744  0.98454  1.0000
  H   H13       1.0  0.27339  0.95593  0.92097  1.0000
  H   H14       1.0  0.22661  0.07903  0.04407  1.0000
  H   H15       1.0  0.72661  0.04407  0.07903  1.0000
  H   H16       1.0  0.77339  0.92097  0.95593  1.0000
  H   H17       1.0  0.89214  0.45943  0.42552  1.0000
  H   H18       1.0  0.60786  0.57448  0.54057  1.0000
  H   H19       1.0  0.10786  0.54057  0.57447  1.0000
  H   H20       1.0  0.39214  0.42552  0.45943  1.0000
  C   C1        1.0  0.13264  0.68680  0.01510  1.0000
  C   C2        1.0  0.36736  0.98490  0.31321  1.0000
  C   C3        1.0  0.86736  0.31321  0.98490  1.0000
  C   C4        1.0  0.63264  0.01510  0.68680  1.0000
  C   C5        1.0  0.09584  0.68931  0.89495  1.0000
  C   C6        1.0  0.40416  0.10505  0.31069  1.0000
  C   C7        1.0  0.90416  0.31069  0.10505  1.0000
  C   C8        1.0  0.59584  0.89495  0.68932  1.0000
  C   C9        1.0  0.11728  0.79813  0.78208  1.0000
  C   C10       1.0  0.38272  0.21792  0.20187  1.0000
  C   C11       1.0  0.88272  0.20187  0.21792  1.0000
  C   C12       1.0  0.61728  0.78208  0.79813  1.0000
  C   C13       1.0  0.17969  0.89683  0.79211  1.0000
  C   C14       1.0  0.32031  0.20789  0.10318  1.0000
  C   C15       1.0  0.82031  0.10318  0.20789  1.0000
  C   C16       1.0  0.67969  0.79211  0.89683  1.0000
  C   C17       1.0  0.21905  0.88302  0.91370  1.0000
  C   C18       1.0  0.28095  0.08630  0.11698  1.0000
  C   C19       1.0  0.78095  0.11698  0.08630  1.0000
  C   C20       1.0  0.71905  0.91370  0.88302  1.0000
  C   C21       1.0  0.89980  0.63186  0.24657  1.0000
  C   C22       1.0  0.60020  0.75343  0.36814  1.0000
  C   C23       1.0  0.10020  0.36814  0.75343  1.0000
  C   C24       1.0  0.39980  0.24657  0.63186  1.0000
  C   C25       1.0  0.82756  0.56040  0.37690  1.0000
  C   C26       1.0  0.67244  0.62310  0.43960  1.0000
  C   C27       1.0  0.17244  0.43960  0.62310  1.0000
  C   C28       1.0  0.32756  0.37689  0.56040  1.0000
  S   S1        1.0  0.09961  0.55438  0.16473  1.0000
  S   S2        1.0  0.40039  0.83527  0.44561  1.0000
  S   S3        1.0  0.90039  0.44561  0.83527  1.0000
  S   S4        1.0  0.59961  0.16473  0.55439  1.0000
  Br  Br1       1.0  0.99328  0.80546  0.45493  1.0000
  Br  Br2       1.0  0.50672  0.54507  0.19454  1.0000
  Br  Br3       1.0  0.00672  0.19454  0.54507  1.0000
  Br  Br4       1.0  0.49328  0.45493  0.80546  1.0000
  N   N1        1.0  0.19384  0.78110  0.02477  1.0000
  N   N2        1.0  0.30616  0.97523  0.21890  1.0000
  N   N3        1.0  0.80616  0.21890  0.97523  1.0000
  N   N4        1.0  0.69384  0.02477  0.78110  1.0000
  N   N5        1.0  0.82541  0.75506  0.18342  1.0000
  N   N6        1.0  0.67459  0.81658  0.24494  1.0000
  N   N7        1.0  0.17459  0.24494  0.81658  1.0000
  N   N8        1.0  0.32541  0.18342  0.75506  1.0000
