data_image0
_chemical_formula_structural       CdH12C12N2Cl2O2
_chemical_formula_sum              "Cd1 H12 C12 N2 Cl2 O2"
_cell_length_a       3.91659
_cell_length_b       8.02401
_cell_length_c       9.95689
_cell_angle_alpha    84.5881
_cell_angle_beta     82.3226
_cell_angle_gamma    83.9791

_space_group_name_H-M_alt    "P 1"
_space_group_IT_number       1

loop_
  _space_group_symop_operation_xyz
  'x, y, z'

loop_
  _atom_site_type_symbol
  _atom_site_label
  _atom_site_symmetry_multiplicity
  _atom_site_fract_x
  _atom_site_fract_y
  _atom_site_fract_z
  _atom_site_occupancy
  Cd  Cd1       1.0  0.50000  0.50000  0.50000  1.0000
  H   H1        1.0  0.89585  0.11208  0.62486  1.0000
  H   H2        1.0  0.10414  0.88792  0.37513  1.0000
  H   H3        1.0  0.51501  0.10491  0.55054  1.0000
  H   H4        1.0  0.48498  0.89509  0.44946  1.0000
  H   H5        1.0  0.30747  0.90808  0.73338  1.0000
  H   H6        1.0  0.69253  0.09191  0.26662  1.0000
  H   H7        1.0  0.68970  0.91696  0.81139  1.0000
  H   H8        1.0  0.31030  0.08304  0.18861  1.0000
  H   H9        1.0  0.42332  0.59125  0.80398  1.0000
  H   H10       1.0  0.57667  0.40875  0.19602  1.0000
  H   H11       1.0  0.84914  0.20516  0.03066  1.0000
  H   H12       1.0  0.15086  0.79484  0.96934  1.0000
  C   C1        1.0  0.61328  0.11897  0.64667  1.0000
  C   C2        1.0  0.38672  0.88103  0.35333  1.0000
  C   C3        1.0  0.48324  0.99224  0.76276  1.0000
  C   C4        1.0  0.51676  0.00776  0.23723  1.0000
  C   C5        1.0  0.31173  0.26111  0.81316  1.0000
  C   C6        1.0  0.68827  0.73889  0.18684  1.0000
  C   C7        1.0  0.14822  0.38574  0.90599  1.0000
  C   C8        1.0  0.85178  0.61426  0.09401  1.0000
  C   C9        1.0  0.23277  0.55249  0.88795  1.0000
  C   C10       1.0  0.76723  0.44751  0.11205  1.0000
  C   C11       1.0  0.91566  0.33447  0.01872  1.0000
  C   C12       1.0  0.08435  0.66553  0.98128  1.0000
  N   N1        1.0  0.48033  0.28549  0.69319  1.0000
  N   N2        1.0  0.51968  0.71451  0.30681  1.0000
  Cl  Cl1       1.0  0.91852  0.67419  0.60329  1.0000
  Cl  Cl2       1.0  0.08148  0.32581  0.39671  1.0000
  O   O1        1.0  0.28880  0.09829  0.86415  1.0000
  O   O2        1.0  0.71120  0.90171  0.13585  1.0000
