data_image0
_chemical_formula_structural       Cu4H16C20S16Br8
_chemical_formula_sum              "Cu4 H16 C20 S16 Br8"
_cell_length_a       9.29616
_cell_length_b       9.96782
_cell_length_c       10.9667
_cell_angle_alpha    89.9999
_cell_angle_beta     90
_cell_angle_gamma    99.4494

_space_group_name_H-M_alt    "P 1"
_space_group_IT_number       1

loop_
  _space_group_symop_operation_xyz
  'x, y, z'

loop_
  _atom_site_type_symbol
  _atom_site_label
  _atom_site_symmetry_multiplicity
  _atom_site_fract_x
  _atom_site_fract_y
  _atom_site_fract_z
  _atom_site_occupancy
  Cu  Cu1       1.0  0.10811  0.95690  0.92178  1.0000
  Cu  Cu2       1.0  0.60811  0.45689  0.57822  1.0000
  Cu  Cu3       1.0  0.89187  0.04311  0.07824  1.0000
  Cu  Cu4       1.0  0.39188  0.54309  0.42179  1.0000
  H   H1        1.0  0.43766  0.06066  0.78577  1.0000
  H   H2        1.0  0.93765  0.56065  0.71425  1.0000
  H   H3        1.0  0.56234  0.93935  0.21423  1.0000
  H   H4        1.0  0.06235  0.43935  0.28576  1.0000
  H   H5        1.0  0.46555  0.24111  0.76602  1.0000
  H   H6        1.0  0.96553  0.74110  0.73398  1.0000
  H   H7        1.0  0.53446  0.75889  0.23398  1.0000
  H   H8        1.0  0.03446  0.25891  0.26601  1.0000
  H   H9        1.0  0.41667  0.08837  0.01249  1.0000
  H   H10       1.0  0.91667  0.58836  0.48751  1.0000
  H   H11       1.0  0.58335  0.91163  0.98750  1.0000
  H   H12       1.0  0.08335  0.41163  0.51249  1.0000
  H   H13       1.0  0.59049  0.16775  0.95602  1.0000
  H   H14       1.0  0.09047  0.66775  0.54400  1.0000
  H   H15       1.0  0.40953  0.83224  0.04397  1.0000
  H   H16       1.0  0.90953  0.33226  0.45602  1.0000
  C   C1        1.0  0.41608  0.15698  0.82488  1.0000
  C   C2        1.0  0.91609  0.65698  0.67511  1.0000
  C   C3        1.0  0.58390  0.84301  0.17510  1.0000
  C   C4        1.0  0.08392  0.34302  0.32488  1.0000
  C   C5        1.0  0.47265  0.16988  0.95395  1.0000
  C   C6        1.0  0.97264  0.66989  0.54604  1.0000
  C   C7        1.0  0.52736  0.83009  0.04601  1.0000
  C   C8        1.0  0.02736  0.33012  0.45395  1.0000
  C   C9        1.0  0.19219  0.28123  0.89816  1.0000
  C   C10       1.0  0.69217  0.78121  0.60184  1.0000
  C   C11       1.0  0.80782  0.71879  0.10185  1.0000
  C   C12       1.0  0.30782  0.21878  0.39816  1.0000
  C   C13       1.0  0.28694  0.35448  0.98103  1.0000
  C   C14       1.0  0.78692  0.85448  0.51900  1.0000
  C   C15       1.0  0.71309  0.64553  0.01898  1.0000
  C   C16       1.0  0.21307  0.14552  0.48101  1.0000
  C   C17       1.0  0.05283  0.46045  0.98518  1.0000
  C   C18       1.0  0.55282  0.96043  0.51483  1.0000
  C   C19       1.0  0.94720  0.53955  0.01484  1.0000
  C   C20       1.0  0.44718  0.03955  0.48516  1.0000
  S   S1        1.0  0.21966  0.14165  0.81385  1.0000
  S   S2        1.0  0.71966  0.64164  0.68615  1.0000
  S   S3        1.0  0.78033  0.85838  0.18616  1.0000
  S   S4        1.0  0.28034  0.35837  0.31384  1.0000
  S   S5        1.0  0.45873  0.33038  0.02685  1.0000
  S   S6        1.0  0.95870  0.83039  0.47315  1.0000
  S   S7        1.0  0.54129  0.66959  0.97315  1.0000
  S   S8        1.0  0.04128  0.16961  0.52684  1.0000
  S   S9        1.0  0.02217  0.32861  0.88238  1.0000
  S   S10       1.0  0.52216  0.82860  0.61764  1.0000
  S   S11       1.0  0.97783  0.67140  0.11764  1.0000
  S   S12       1.0  0.47783  0.17140  0.38237  1.0000
  S   S13       1.0  0.22312  0.48884  0.05037  1.0000
  S   S14       1.0  0.72309  0.98883  0.44963  1.0000
  S   S15       1.0  0.77692  0.51116  0.94964  1.0000
  S   S16       1.0  0.27690  0.01116  0.55034  1.0000
  Br  Br1       1.0  0.14218  0.02028  0.14196  1.0000
  Br  Br2       1.0  0.64218  0.52026  0.35804  1.0000
  Br  Br3       1.0  0.85781  0.97977  0.85804  1.0000
  Br  Br4       1.0  0.35780  0.47974  0.64198  1.0000
  Br  Br5       1.0  0.23140  0.78613  0.84209  1.0000
  Br  Br6       1.0  0.73137  0.28613  0.65791  1.0000
  Br  Br7       1.0  0.76859  0.21387  0.15793  1.0000
  Br  Br8       1.0  0.26858  0.71384  0.34209  1.0000
