data_image0
_chemical_formula_structural       FeAg2H4C8N6
_chemical_formula_sum              "Fe1 Ag2 H4 C8 N6"
_cell_length_a       6.68696
_cell_length_b       7.17479
_cell_length_c       8.42444
_cell_angle_alpha    80.4672
_cell_angle_beta     69.189
_cell_angle_gamma    62.1998

_space_group_name_H-M_alt    "P 1"
_space_group_IT_number       1

loop_
  _space_group_symop_operation_xyz
  'x, y, z'

loop_
  _atom_site_type_symbol
  _atom_site_label
  _atom_site_symmetry_multiplicity
  _atom_site_fract_x
  _atom_site_fract_y
  _atom_site_fract_z
  _atom_site_occupancy
  Fe  Fe1       1.0  0.29782  0.00002  0.08399  1.0000
  Ag  Ag1       1.0  0.79848  0.49888  0.58470  1.0000
  Ag  Ag2       1.0  0.29624  0.50138  0.58478  1.0000
  H   H1        1.0  0.82163  0.32761  0.08266  1.0000
  H   H2        1.0  0.14991  0.67225  0.08210  1.0000
  H   H3        1.0  0.44574  0.32745  0.08529  1.0000
  H   H4        1.0  0.77383  0.67230  0.08483  1.0000
  C   C1        1.0  0.00041  0.32103  0.37257  1.0000
  C   C2        1.0  0.32059  0.67931  0.37267  1.0000
  C   C3        1.0  0.59707  0.67720  0.79672  1.0000
  C   C4        1.0  0.27339  0.32288  0.79668  1.0000
  C   C5        1.0  0.81081  0.18121  0.08308  1.0000
  C   C6        1.0  0.99235  0.81863  0.08282  1.0000
  C   C7        1.0  0.60334  0.18118  0.08452  1.0000
  C   C8        1.0  0.78490  0.81860  0.08428  1.0000
  N   N1        1.0  0.11568  0.20651  0.25599  1.0000
  N   N2        1.0  0.32211  0.79356  0.25596  1.0000
  N   N3        1.0  0.48070  0.79295  0.91244  1.0000
  N   N4        1.0  0.27323  0.20720  0.91245  1.0000
  N   N5        1.0  0.00728  0.99994  0.08249  1.0000
  N   N6        1.0  0.58839  0.99990  0.08496  1.0000
