data_image0
_chemical_formula_structural       CdH30C34N6Cl2O4
_chemical_formula_sum              "Cd1 H30 C34 N6 Cl2 O4"
_cell_length_a       4.96805
_cell_length_b       12.0488
_cell_length_c       15.6935
_cell_angle_alpha    82.3778
_cell_angle_beta     80.8896
_cell_angle_gamma    78.1051

_space_group_name_H-M_alt    "P 1"
_space_group_IT_number       1

loop_
  _space_group_symop_operation_xyz
  'x, y, z'

loop_
  _atom_site_type_symbol
  _atom_site_label
  _atom_site_symmetry_multiplicity
  _atom_site_fract_x
  _atom_site_fract_y
  _atom_site_fract_z
  _atom_site_occupancy
  Cd  Cd1       1.0  0.37687  0.99988  0.99990  1.0000
  H   H1        1.0  0.00779  0.24677  0.95380  1.0000
  H   H2        1.0  0.20830  0.75295  0.04619  1.0000
  H   H3        1.0  0.68158  0.34625  0.85083  1.0000
  H   H4        1.0  0.87852  0.65356  0.14921  1.0000
  H   H5        1.0  0.83422  0.03362  0.72945  1.0000
  H   H6        1.0  0.59717  0.96639  0.27036  1.0000
  H   H7        1.0  0.14137  0.94584  0.84008  1.0000
  H   H8        1.0  0.92721  0.05407  0.15963  1.0000
  H   H9        1.0  0.47658  0.09534  0.67698  1.0000
  H   H10       1.0  0.24795  0.90468  0.32269  1.0000
  H   H11       1.0  0.04359  0.39926  0.54615  1.0000
  H   H12       1.0  0.98892  0.60078  0.45401  1.0000
  H   H13       1.0  0.57038  0.42658  0.73120  1.0000
  H   H14       1.0  0.72780  0.57343  0.26881  1.0000
  H   H15       1.0  0.56048  0.25324  0.44061  1.0000
  H   H16       1.0  0.25458  0.74680  0.55948  1.0000
  H   H17       1.0  0.49228  0.26458  0.26771  1.0000
  H   H18       1.0  0.02468  0.73541  0.73238  1.0000
  H   H19       1.0  0.61428  0.13247  0.32779  1.0000
  H   H20       1.0  0.07498  0.86750  0.67235  1.0000
  H   H21       1.0  0.00944  0.23095  0.30111  1.0000
  H   H22       1.0  0.54179  0.76910  0.69893  1.0000
  H   H23       1.0  0.20462  0.09822  0.27179  1.0000
  H   H24       1.0  0.57500  0.90181  0.72830  1.0000
  H   H25       1.0  0.88609  0.10398  0.43298  1.0000
  H   H26       1.0  0.42338  0.89616  0.56715  1.0000
  H   H27       1.0  0.22866  0.02396  0.42570  1.0000
  H   H28       1.0  0.67887  0.97612  0.57440  1.0000
  H   H29       1.0  0.62786  0.42063  0.38100  1.0000
  H   H30       1.0  0.42987  0.57946  0.61894  1.0000
  C   C1        1.0  0.96267  0.20330  0.90251  1.0000
  C   C2        1.0  0.06829  0.79652  0.09742  1.0000
  C   C3        1.0  0.78265  0.25804  0.84413  1.0000
  C   C4        1.0  0.88453  0.74181  0.15581  1.0000
  C   C5        1.0  0.72807  0.19864  0.77948  1.0000
  C   C6        1.0  0.70598  0.80131  0.22042  1.0000
  C   C7        1.0  0.86010  0.08393  0.77888  1.0000
  C   C8        1.0  0.72273  0.91604  0.22093  1.0000
  C   C9        1.0  0.03701  0.03491  0.83929  1.0000
  C   C10       1.0  0.91109  0.96500  0.16049  1.0000
  C   C11       1.0  0.54229  0.25344  0.71473  1.0000
  C   C12       1.0  0.51019  0.74658  0.28523  1.0000
  C   C13       1.0  0.43157  0.18787  0.66660  1.0000
  C   C14       1.0  0.28553  0.81215  0.33327  1.0000
  C   C15       1.0  0.26154  0.23964  0.60388  1.0000
  C   C16       1.0  0.10477  0.76042  0.39615  1.0000
  C   C17       1.0  0.18671  0.35843  0.59162  1.0000
  C   C18       1.0  0.13648  0.64163  0.40847  1.0000
  C   C19       1.0  0.29871  0.42476  0.63848  1.0000
  C   C20       1.0  0.36154  0.57533  0.36153  1.0000
  C   C21       1.0  0.47727  0.37266  0.69858  1.0000
  C   C22       1.0  0.54821  0.62738  0.30144  1.0000
  C   C23       1.0  0.16160  0.16416  0.55187  1.0000
  C   C24       1.0  0.87759  0.83596  0.44821  1.0000
  C   C25       1.0  0.37267  0.25842  0.41034  1.0000
  C   C26       1.0  0.04164  0.74166  0.58975  1.0000
  C   C27       1.0  0.43865  0.20426  0.32342  1.0000
  C   C28       1.0  0.96664  0.79576  0.67666  1.0000
  C   C29       1.0  0.17429  0.15994  0.31946  1.0000
  C   C30       1.0  0.65410  0.84010  0.68062  1.0000
  C   C31       1.0  0.10446  0.10983  0.41283  1.0000
  C   C32       1.0  0.62746  0.89027  0.58728  1.0000
  C   C33       1.0  0.23616  0.38423  0.39423  1.0000
  C   C34       1.0  0.01481  0.61584  0.60590  1.0000
  N   N1        1.0  0.09008  0.09356  0.89992  1.0000
  N   N2        1.0  0.08343  0.90627  0.09989  1.0000
  N   N3        1.0  0.18830  0.18807  0.46397  1.0000
  N   N4        1.0  0.84054  0.81203  0.53612  1.0000
  N   N5        1.0  0.42104  0.45501  0.37850  1.0000
  N   N6        1.0  0.25494  0.54506  0.62147  1.0000
  Cl  Cl1       1.0  0.64863  0.83897  0.92666  1.0000
  Cl  Cl2       1.0  0.41416  0.16080  0.07319  1.0000
  O   O1        1.0  0.06007  0.08057  0.58762  1.0000
  O   O2        1.0  0.72835  0.91961  0.41253  1.0000
  O   O3        1.0  0.98204  0.41630  0.39301  1.0000
  O   O4        1.0  0.79147  0.58374  0.60728  1.0000
