data_image0
_chemical_formula_structural       HgH30C34N6Cl2O4
_chemical_formula_sum              "Hg1 H30 C34 N6 Cl2 O4"
_cell_length_a       4.98293
_cell_length_b       12.0654
_cell_length_c       15.4022
_cell_angle_alpha    82.577
_cell_angle_beta     80.6865
_cell_angle_gamma    78.0828

_space_group_name_H-M_alt    "P 1"
_space_group_IT_number       1

loop_
  _space_group_symop_operation_xyz
  'x, y, z'

loop_
  _atom_site_type_symbol
  _atom_site_label
  _atom_site_symmetry_multiplicity
  _atom_site_fract_x
  _atom_site_fract_y
  _atom_site_fract_z
  _atom_site_occupancy
  Hg  Hg1       1.0  0.36613  1.00000  0.99999  1.0000
  H   H1        1.0  0.97338  0.25402  0.95034  1.0000
  H   H2        1.0  0.17775  0.74606  0.04964  1.0000
  H   H3        1.0  0.63349  0.35254  0.85065  1.0000
  H   H4        1.0  0.83675  0.64752  0.14935  1.0000
  H   H5        1.0  0.73600  0.03378  0.73767  1.0000
  H   H6        1.0  0.50745  0.96624  0.26238  1.0000
  H   H7        1.0  0.06162  0.94884  0.84421  1.0000
  H   H8        1.0  0.85459  0.05119  0.15584  1.0000
  H   H9        1.0  0.39993  0.09800  0.67951  1.0000
  H   H10       1.0  0.17699  0.90193  0.32028  1.0000
  H   H11       1.0  0.96498  0.40040  0.54726  1.0000
  H   H12       1.0  0.91275  0.59953  0.45278  1.0000
  H   H13       1.0  0.48330  0.42974  0.73652  1.0000
  H   H14       1.0  0.64969  0.57024  0.26347  1.0000
  H   H15       1.0  0.47935  0.25262  0.43869  1.0000
  H   H16       1.0  0.17076  0.74736  0.56132  1.0000
  H   H17       1.0  0.40515  0.26309  0.26313  1.0000
  H   H18       1.0  0.93140  0.73694  0.73687  1.0000
  H   H19       1.0  0.53089  0.13182  0.32391  1.0000
  H   H20       1.0  0.98666  0.86820  0.67608  1.0000
  H   H21       1.0  0.92568  0.22832  0.29868  1.0000
  H   H22       1.0  0.45269  0.77167  0.70132  1.0000
  H   H23       1.0  0.12085  0.09505  0.26995  1.0000
  H   H24       1.0  0.48585  0.90495  0.73008  1.0000
  H   H25       1.0  0.80337  0.10435  0.43373  1.0000
  H   H26       1.0  0.34162  0.89565  0.56628  1.0000
  H   H27       1.0  0.14405  0.02385  0.42649  1.0000
  H   H28       1.0  0.59457  0.97616  0.57353  1.0000
  H   H29       1.0  0.54825  0.41902  0.37821  1.0000
  H   H30       1.0  0.34554  0.58095  0.62172  1.0000
  C   C1        1.0  0.91429  0.20914  0.90138  1.0000
  C   C2        1.0  0.02480  0.79094  0.09861  1.0000
  C   C3        1.0  0.72508  0.26320  0.84494  1.0000
  C   C4        1.0  0.83321  0.73686  0.15504  1.0000
  C   C5        1.0  0.65345  0.20216  0.78311  1.0000
  C   C6        1.0  0.63860  0.79787  0.21688  1.0000
  C   C7        1.0  0.77666  0.08646  0.78410  1.0000
  C   C8        1.0  0.64715  0.91355  0.21593  1.0000
  C   C9        1.0  0.96382  0.03863  0.84244  1.0000
  C   C10       1.0  0.84483  0.96140  0.15760  1.0000
  C   C11       1.0  0.46318  0.25613  0.71862  1.0000
  C   C12       1.0  0.43789  0.74384  0.28136  1.0000
  C   C13       1.0  0.35341  0.19034  0.66958  1.0000
  C   C14       1.0  0.21308  0.80960  0.33034  1.0000
  C   C15       1.0  0.18305  0.24130  0.60603  1.0000
  C   C16       1.0  0.03038  0.75864  0.39399  1.0000
  C   C17       1.0  0.10722  0.35980  0.59353  1.0000
  C   C18       1.0  0.06068  0.64013  0.40653  1.0000
  C   C19       1.0  0.21634  0.42637  0.64173  1.0000
  C   C20       1.0  0.28455  0.57359  0.35826  1.0000
  C   C21       1.0  0.39419  0.37505  0.70288  1.0000
  C   C22       1.0  0.47222  0.62493  0.29712  1.0000
  C   C23       1.0  0.08284  0.16516  0.55382  1.0000
  C   C24       1.0  0.80180  0.83482  0.44620  1.0000
  C   C25       1.0  0.29086  0.25780  0.40870  1.0000
  C   C26       1.0  0.95744  0.74221  0.59132  1.0000
  C   C27       1.0  0.35435  0.20298  0.32024  1.0000
  C   C28       1.0  0.87764  0.79703  0.67976  1.0000
  C   C29       1.0  0.09072  0.15803  0.31765  1.0000
  C   C30       1.0  0.56644  0.84197  0.68238  1.0000
  C   C31       1.0  0.02153  0.10967  0.41310  1.0000
  C   C32       1.0  0.54441  0.89034  0.58693  1.0000
  C   C33       1.0  0.15646  0.38337  0.39208  1.0000
  C   C34       1.0  0.93194  0.61663  0.60792  1.0000
  N   N1        1.0  0.03426  0.09890  0.89968  1.0000
  N   N2        1.0  0.03284  0.90117  0.10034  1.0000
  N   N3        1.0  0.10664  0.18845  0.46425  1.0000
  N   N4        1.0  0.75940  0.81156  0.53578  1.0000
  N   N5        1.0  0.34243  0.45342  0.37509  1.0000
  N   N6        1.0  0.17101  0.54654  0.62485  1.0000
  Cl  Cl1       1.0  0.57789  0.83479  0.92365  1.0000
  Cl  Cl2       1.0  0.33651  0.16519  0.07634  1.0000
  O   O1        1.0  0.98274  0.08182  0.59089  1.0000
  O   O2        1.0  0.65545  0.91818  0.40916  1.0000
  O   O3        1.0  0.90300  0.41588  0.39124  1.0000
  O   O4        1.0  0.71014  0.58412  0.60877  1.0000
