data_image0
_chemical_formula_structural       Ho2H10C14N2Cl6
_chemical_formula_sum              "Ho2 H10 C14 N2 Cl6"
_cell_length_a       6.91464
_cell_length_b       7.49378
_cell_length_c       11.4267
_cell_angle_alpha    78.9859
_cell_angle_beta     75.3609
_cell_angle_gamma    59.2025

_space_group_name_H-M_alt    "P 1"
_space_group_IT_number       1

loop_
  _space_group_symop_operation_xyz
  'x, y, z'

loop_
  _atom_site_type_symbol
  _atom_site_label
  _atom_site_symmetry_multiplicity
  _atom_site_fract_x
  _atom_site_fract_y
  _atom_site_fract_z
  _atom_site_occupancy
  Ho  Ho1       1.0  0.85560  0.31924  0.47134  1.0000
  Ho  Ho2       1.0  0.14439  0.68075  0.52866  1.0000
  H   H1        1.0  0.46232  0.82951  0.74316  1.0000
  H   H2        1.0  0.53767  0.17049  0.25684  1.0000
  H   H3        1.0  0.16853  0.20268  0.75871  1.0000
  H   H4        1.0  0.83147  0.79731  0.24129  1.0000
  H   H5        1.0  0.58159  0.60034  0.92828  1.0000
  H   H6        1.0  0.41842  0.39966  0.07173  1.0000
  H   H7        1.0  0.99426  0.34934  0.96054  1.0000
  H   H8        1.0  0.00575  0.65067  0.03946  1.0000
  H   H9        1.0  0.40636  0.74496  0.13256  1.0000
  H   H10       1.0  0.59366  0.25505  0.86744  1.0000
  C   C1        1.0  0.19069  0.05500  0.05796  1.0000
  C   C2        1.0  0.80932  0.94500  0.94204  1.0000
  C   C3        1.0  0.38530  0.89283  0.83177  1.0000
  C   C4        1.0  0.61470  0.10716  0.16823  1.0000
  C   C5        1.0  0.09397  0.13724  0.17324  1.0000
  C   C6        1.0  0.90603  0.86276  0.82676  1.0000
  C   C7        1.0  0.22095  0.10311  0.84026  1.0000
  C   C8        1.0  0.77905  0.89690  0.15975  1.0000
  C   C9        1.0  0.45192  0.76376  0.93627  1.0000
  C   C10       1.0  0.54808  0.23624  0.06374  1.0000
  C   C11       1.0  0.12277  0.18551  0.95294  1.0000
  C   C12       1.0  0.87724  0.81449  0.04706  1.0000
  C   C13       1.0  0.35571  0.84277  0.05004  1.0000
  C   C14       1.0  0.64430  0.15723  0.94996  1.0000
  N   N1        1.0  0.01553  0.20367  0.26839  1.0000
  N   N2        1.0  0.98446  0.79633  0.73161  1.0000
  Cl  Cl1       1.0  0.22564  0.99552  0.53707  1.0000
  Cl  Cl2       1.0  0.77435  0.00448  0.46292  1.0000
  Cl  Cl3       1.0  0.47254  0.39372  0.64564  1.0000
  Cl  Cl4       1.0  0.52745  0.60628  0.35436  1.0000
  Cl  Cl5       1.0  0.12538  0.48929  0.35863  1.0000
  Cl  Cl6       1.0  0.87460  0.51071  0.64137  1.0000
