data_image0
_chemical_formula_structural       Na2H14C8O12
_chemical_formula_sum              "Na2 H14 C8 O12"
_cell_length_a       5.87707
_cell_length_b       6.25315
_cell_length_c       9.92092
_cell_angle_alpha    89.9978
_cell_angle_beta     106.655
_cell_angle_gamma    90.0003

_space_group_name_H-M_alt    "P 1"
_space_group_IT_number       1

loop_
  _space_group_symop_operation_xyz
  'x, y, z'

loop_
  _atom_site_type_symbol
  _atom_site_label
  _atom_site_symmetry_multiplicity
  _atom_site_fract_x
  _atom_site_fract_y
  _atom_site_fract_z
  _atom_site_occupancy
  Na  Na1       1.0  1.00000  1.00000  1.00000  1.0000
  Na  Na2       1.0  1.00000  0.50000  1.00000  1.0000
  H   H1        1.0  0.59520  0.25000  0.46159  1.0000
  H   H2        1.0  0.40480  0.75000  0.53841  1.0000
  H   H3        1.0  0.98628  0.24997  0.27877  1.0000
  H   H4        1.0  0.01372  0.75003  0.72123  1.0000
  H   H5        1.0  0.01366  0.24998  0.51757  1.0000
  H   H6        1.0  0.98635  0.75002  0.48244  1.0000
  H   H7        1.0  0.11979  0.25001  0.78316  1.0000
  H   H8        1.0  0.88022  0.74999  0.21684  1.0000
  H   H9        1.0  0.83887  0.25001  0.74302  1.0000
  H   H10       1.0  0.16114  0.74999  0.25697  1.0000
  H   H11       1.0  0.56628  0.24998  0.06897  1.0000
  H   H12       1.0  0.43373  0.75001  0.93103  1.0000
  H   H13       1.0  0.57371  0.24999  0.91324  1.0000
  H   H14       1.0  0.42630  0.75000  0.08676  1.0000
  C   C1        1.0  0.16489  0.24998  0.35200  1.0000
  C   C2        1.0  0.83511  0.75002  0.64800  1.0000
  C   C3        1.0  0.18080  0.24999  0.49047  1.0000
  C   C4        1.0  0.81920  0.75001  0.50953  1.0000
  C   C5        1.0  0.35322  0.24999  0.27804  1.0000
  C   C6        1.0  0.64677  0.75001  0.72196  1.0000
  C   C7        1.0  0.39430  0.25000  0.61598  1.0000
  C   C8        1.0  0.60571  0.75000  0.38402  1.0000
  O   O1        1.0  0.57798  0.24999  0.34923  1.0000
  O   O2        1.0  0.42201  0.75001  0.65077  1.0000
  O   O3        1.0  0.29185  0.24999  0.14624  1.0000
  O   O4        1.0  0.70814  0.75001  0.85376  1.0000
  O   O5        1.0  0.60327  0.25001  0.59773  1.0000
  O   O6        1.0  0.39674  0.74999  0.40227  1.0000
  O   O7        1.0  0.36481  0.25000  0.73664  1.0000
  O   O8        1.0  0.63521  0.74999  0.26337  1.0000
  O   O9        1.0  0.98388  0.25001  0.82461  1.0000
  O   O10       1.0  0.01612  0.74999  0.17539  1.0000
  O   O11       1.0  0.67791  0.24999  0.01143  1.0000
  O   O12       1.0  0.32209  0.75001  0.98857  1.0000
