data_image0
_chemical_formula_structural       Cu4H40C34S2I4N8
_chemical_formula_sum              "Cu4 H40 C34 S2 I4 N8"
_cell_length_a       9.89578
_cell_length_b       9.89578
_cell_length_c       11.1082
_cell_angle_alpha    76.6338
_cell_angle_beta     76.6339
_cell_angle_gamma    85.213

_space_group_name_H-M_alt    "P 1"
_space_group_IT_number       1

loop_
  _space_group_symop_operation_xyz
  'x, y, z'

loop_
  _atom_site_type_symbol
  _atom_site_label
  _atom_site_symmetry_multiplicity
  _atom_site_fract_x
  _atom_site_fract_y
  _atom_site_fract_z
  _atom_site_occupancy
  Cu  Cu1       1.0  0.15232  0.37129  0.32023  1.0000
  Cu  Cu2       1.0  0.37129  0.15232  0.82023  1.0000
  Cu  Cu3       1.0  0.27020  0.17390  0.22756  1.0000
  Cu  Cu4       1.0  0.17390  0.27020  0.72756  1.0000
  H   H1        1.0  0.19466  0.69508  0.96632  1.0000
  H   H2        1.0  0.69508  0.19466  0.46632  1.0000
  H   H3        1.0  0.17821  0.51716  0.96490  1.0000
  H   H4        1.0  0.51716  0.17820  0.46490  1.0000
  H   H5        1.0  0.22820  0.55826  0.09566  1.0000
  H   H6        1.0  0.55825  0.22820  0.59566  1.0000
  H   H7        1.0  0.90360  0.57981  0.95814  1.0000
  H   H8        1.0  0.57981  0.90360  0.45814  1.0000
  H   H9        1.0  0.93551  0.75318  0.96243  1.0000
  H   H10       1.0  0.75318  0.93551  0.46243  1.0000
  H   H11       1.0  0.71491  0.74425  0.10860  1.0000
  H   H12       1.0  0.74425  0.71491  0.60860  1.0000
  H   H13       1.0  0.71612  0.55853  0.14123  1.0000
  H   H14       1.0  0.55853  0.71612  0.64123  1.0000
  H   H15       1.0  0.70578  0.49098  0.37212  1.0000
  H   H16       1.0  0.49098  0.70578  0.87212  1.0000
  H   H17       1.0  0.65059  0.66810  0.36776  1.0000
  H   H18       1.0  0.66810  0.65059  0.86776  1.0000
  H   H19       1.0  0.79232  0.59841  0.43859  1.0000
  H   H20       1.0  0.59841  0.79232  0.93859  1.0000
  H   H21       1.0  0.98843  0.83394  0.30650  1.0000
  H   H22       1.0  0.83394  0.98843  0.80650  1.0000
  H   H23       1.0  0.97797  0.94101  0.48699  1.0000
  H   H24       1.0  0.94101  0.97797  0.98699  1.0000
  H   H25       1.0  0.01307  0.79574  0.69536  1.0000
  H   H26       1.0  0.79574  0.01307  0.19536  1.0000
  H   H27       1.0  0.07359  0.54309  0.71224  1.0000
  H   H28       1.0  0.54309  0.07359  0.21224  1.0000
  H   H29       1.0  0.86418  0.33558  0.53711  1.0000
  H   H30       1.0  0.33558  0.86418  0.03710  1.0000
  H   H31       1.0  0.95235  0.18175  0.60369  1.0000
  H   H32       1.0  0.18175  0.95235  0.10369  1.0000
  H   H33       1.0  0.58188  0.39152  0.93464  1.0000
  H   H34       1.0  0.39152  0.58187  0.43463  1.0000
  H   H35       1.0  0.75205  0.35029  0.07797  1.0000
  H   H36       1.0  0.35029  0.75205  0.57797  1.0000
  H   H37       1.0  0.00088  0.29896  0.98777  1.0000
  H   H38       1.0  0.29895  0.00088  0.48777  1.0000
  H   H39       1.0  0.66766  0.36730  0.71054  1.0000
  H   H40       1.0  0.36730  0.66766  0.21054  1.0000
  C   C1        1.0  0.97427  0.60213  0.21597  1.0000
  C   C2        1.0  0.60213  0.97427  0.71597  1.0000
  C   C3        1.0  0.16283  0.59230  0.02623  1.0000
  C   C4        1.0  0.59230  0.16283  0.52623  1.0000
  C   C5        1.0  0.91100  0.64839  0.02110  1.0000
  C   C6        1.0  0.64839  0.91100  0.52110  1.0000
  C   C7        1.0  0.78015  0.64965  0.12640  1.0000
  C   C8        1.0  0.64965  0.78015  0.62640  1.0000
  C   C9        1.0  0.74173  0.59674  0.36129  1.0000
  C   C10       1.0  0.59674  0.74173  0.86129  1.0000
  C   C11       1.0  0.03596  0.62569  0.40402  1.0000
  C   C12       1.0  0.62569  0.03596  0.90402  1.0000
  C   C13       1.0  0.00408  0.76901  0.39635  1.0000
  C   C14       1.0  0.76901  0.00408  0.89635  1.0000
  C   C15       1.0  0.99671  0.82882  0.49934  1.0000
  C   C16       1.0  0.82882  0.99671  0.99934  1.0000
  C   C17       1.0  0.01738  0.74803  0.61534  1.0000
  C   C18       1.0  0.74803  0.01738  0.11534  1.0000
  C   C19       1.0  0.05088  0.60709  0.62495  1.0000
  C   C20       1.0  0.60709  0.05088  0.12495  1.0000
  C   C21       1.0  0.06134  0.54636  0.52100  1.0000
  C   C22       1.0  0.54636  0.06134  0.02101  1.0000
  C   C23       1.0  0.93412  0.29367  0.60123  1.0000
  C   C24       1.0  0.29367  0.93412  0.10122  1.0000
  C   C25       1.0  0.87879  0.31879  0.73206  1.0000
  C   C26       1.0  0.31878  0.87879  0.23205  1.0000
  C   C27       1.0  0.69137  0.36709  0.89919  1.0000
  C   C28       1.0  0.36709  0.69137  0.39919  1.0000
  C   C29       1.0  0.78527  0.34571  0.97834  1.0000
  C   C30       1.0  0.34571  0.78527  0.47834  1.0000
  C   C31       1.0  0.92415  0.31529  0.92880  1.0000
  C   C32       1.0  0.31529  0.92415  0.42880  1.0000
  C   C33       1.0  0.73948  0.35405  0.77383  1.0000
  C   C34       1.0  0.35405  0.73947  0.27383  1.0000
  S   S1        1.0  0.10636  0.36623  0.53268  1.0000
  S   S2        1.0  0.36623  0.10636  0.03268  1.0000
  I   I1        1.0  0.42465  0.36728  0.24072  1.0000
  I   I2        1.0  0.36728  0.42465  0.74072  1.0000
  I   I3        1.0  0.99782  0.20515  0.26088  1.0000
  I   I4        1.0  0.20515  0.99782  0.76088  1.0000
  N   N1        1.0  0.05432  0.56554  0.29992  1.0000
  N   N2        1.0  0.56554  0.05432  0.79992  1.0000
  N   N3        1.0  0.01899  0.59804  0.09195  1.0000
  N   N4        1.0  0.59805  0.01899  0.59195  1.0000
  N   N5        1.0  0.83586  0.64207  0.23943  1.0000
  N   N6        1.0  0.64207  0.83586  0.73943  1.0000
  N   N7        1.0  0.97069  0.30289  0.80814  1.0000
  N   N8        1.0  0.30289  0.97069  0.30814  1.0000
