data_image0
_chemical_formula_structural       Zn2H24C36N4O8
_chemical_formula_sum              "Zn2 H24 C36 N4 O8"
_cell_length_a       8.63133
_cell_length_b       10.1998
_cell_length_c       10.153
_cell_angle_alpha    78.0218
_cell_angle_beta     74.1628
_cell_angle_gamma    79.4495

_space_group_name_H-M_alt    "P 1"
_space_group_IT_number       1

loop_
  _space_group_symop_operation_xyz
  'x, y, z'

loop_
  _atom_site_type_symbol
  _atom_site_label
  _atom_site_symmetry_multiplicity
  _atom_site_fract_x
  _atom_site_fract_y
  _atom_site_fract_z
  _atom_site_occupancy
  Zn  Zn1       1.0  0.43114  0.37135  0.89609  1.0000
  Zn  Zn2       1.0  0.56886  0.62865  0.10391  1.0000
  H   H1        1.0  0.74262  0.55546  0.39727  1.0000
  H   H2        1.0  0.25738  0.44454  0.60272  1.0000
  H   H3        1.0  0.39221  0.91334  0.93335  1.0000
  H   H4        1.0  0.60778  0.08666  0.06666  1.0000
  H   H5        1.0  0.53091  0.55096  0.61723  1.0000
  H   H6        1.0  0.46909  0.44904  0.38277  1.0000
  H   H7        1.0  0.32364  0.16581  0.15754  1.0000
  H   H8        1.0  0.67636  0.83420  0.84246  1.0000
  H   H9        1.0  0.12523  0.15975  0.38779  1.0000
  H   H10       1.0  0.87477  0.84025  0.61221  1.0000
  H   H11       1.0  0.13684  0.55814  0.02245  1.0000
  H   H12       1.0  0.86316  0.44186  0.97755  1.0000
  H   H13       1.0  0.93243  0.57206  0.24340  1.0000
  H   H14       1.0  0.06757  0.42794  0.75659  1.0000
  H   H15       1.0  0.99238  0.18902  0.59306  1.0000
  H   H16       1.0  0.00762  0.81099  0.40695  1.0000
  H   H17       1.0  0.28671  0.16890  0.56636  1.0000
  H   H18       1.0  0.71330  0.83110  0.43364  1.0000
  H   H19       1.0  0.26748  0.96353  0.47337  1.0000
  H   H20       1.0  0.73253  0.03647  0.52662  1.0000
  H   H21       1.0  0.76385  0.20058  0.80299  1.0000
  H   H22       1.0  0.23615  0.79942  0.19702  1.0000
  H   H23       1.0  0.30433  0.73558  0.61598  1.0000
  H   H24       1.0  0.69567  0.26442  0.38401  1.0000
  C   C1        1.0  0.75656  0.47461  0.48387  1.0000
  C   C2        1.0  0.24344  0.52539  0.51614  1.0000
  C   C3        1.0  0.88868  0.37084  0.47300  1.0000
  C   C4        1.0  0.11131  0.62916  0.52701  1.0000
  C   C5        1.0  0.33856  0.05297  0.75560  1.0000
  C   C6        1.0  0.66145  0.94703  0.24440  1.0000
  C   C7        1.0  0.36125  0.92412  0.83408  1.0000
  C   C8        1.0  0.63874  0.07588  0.16592  1.0000
  C   C9        1.0  0.63578  0.47284  0.60636  1.0000
  C   C10       1.0  0.36420  0.52717  0.39365  1.0000
  C   C11       1.0  0.01232  0.36728  0.33961  1.0000
  C   C12       1.0  0.98768  0.63272  0.66039  1.0000
  C   C13       1.0  0.34636  0.80986  0.78453  1.0000
  C   C14       1.0  0.65364  0.19014  0.21546  1.0000
  C   C15       1.0  0.36991  0.67160  0.86934  1.0000
  C   C16       1.0  0.63009  0.32840  0.13066  1.0000
  C   C17       1.0  0.23555  0.25376  0.18277  1.0000
  C   C18       1.0  0.76445  0.74624  0.81724  1.0000
  C   C19       1.0  0.12472  0.25203  0.31133  1.0000
  C   C20       1.0  0.87528  0.74797  0.68868  1.0000
  C   C21       1.0  0.35846  0.17436  0.80774  1.0000
  C   C22       1.0  0.64154  0.82564  0.19226  1.0000
  C   C23       1.0  0.13129  0.47277  0.10703  1.0000
  C   C24       1.0  0.86871  0.52723  0.89298  1.0000
  C   C25       1.0  0.01710  0.47939  0.23239  1.0000
  C   C26       1.0  0.98289  0.52061  0.76762  1.0000
  C   C27       1.0  0.89233  0.27126  0.59130  1.0000
  C   C28       1.0  0.10767  0.72874  0.40871  1.0000
  C   C29       1.0  0.30179  0.06761  0.62657  1.0000
  C   C30       1.0  0.69822  0.93239  0.37342  1.0000
  C   C31       1.0  0.29042  0.95365  0.57568  1.0000
  C   C32       1.0  0.70959  0.04635  0.42431  1.0000
  C   C33       1.0  0.76562  0.27695  0.71006  1.0000
  C   C34       1.0  0.23438  0.72305  0.28994  1.0000
  C   C35       1.0  0.31241  0.82539  0.65435  1.0000
  C   C36       1.0  0.68760  0.17461  0.34565  1.0000
  N   N1        1.0  0.24029  0.36305  0.08173  1.0000
  N   N2        1.0  0.75971  0.63695  0.91828  1.0000
  N   N3        1.0  0.63772  0.37536  0.71781  1.0000
  N   N4        1.0  0.36227  0.62464  0.28219  1.0000
  O   O1        1.0  0.35568  0.57091  0.81820  1.0000
  O   O2        1.0  0.64432  0.42909  0.18180  1.0000
  O   O3        1.0  0.44146  0.15701  0.89824  1.0000
  O   O4        1.0  0.55854  0.84299  0.10176  1.0000
  O   O5        1.0  0.39751  0.66200  0.98733  1.0000
  O   O6        1.0  0.60248  0.33800  0.01267  1.0000
  O   O7        1.0  0.29582  0.29126  0.75944  1.0000
  O   O8        1.0  0.70419  0.70874  0.24054  1.0000
