data_image0
_chemical_formula_structural       Zn4H36C36N20O8
_chemical_formula_sum              "Zn4 H36 C36 N20 O8"
_cell_length_a       10.149
_cell_length_b       12.1849
_cell_length_c       12.1068
_cell_angle_alpha    84.6283
_cell_angle_beta     65.8411
_cell_angle_gamma    66.2868

_space_group_name_H-M_alt    "P 1"
_space_group_IT_number       1

loop_
  _space_group_symop_operation_xyz
  'x, y, z'

loop_
  _atom_site_type_symbol
  _atom_site_label
  _atom_site_symmetry_multiplicity
  _atom_site_fract_x
  _atom_site_fract_y
  _atom_site_fract_z
  _atom_site_occupancy
  Zn  Zn1       1.0  0.15703  0.86122  0.65343  1.0000
  Zn  Zn2       1.0  0.34127  0.34934  0.14139  1.0000
  Zn  Zn3       1.0  0.84297  0.13878  0.34657  1.0000
  Zn  Zn4       1.0  0.65872  0.65066  0.85861  1.0000
  H   H1        1.0  0.29557  0.98003  0.21718  1.0000
  H   H2        1.0  0.20659  0.78086  0.01776  1.0000
  H   H3        1.0  0.70443  0.01997  0.78282  1.0000
  H   H4        1.0  0.79341  0.21914  0.98224  1.0000
  H   H5        1.0  0.16455  0.00937  0.44750  1.0000
  H   H6        1.0  0.33644  0.55265  0.98976  1.0000
  H   H7        1.0  0.83545  0.99064  0.55250  1.0000
  H   H8        1.0  0.66356  0.44735  0.01024  1.0000
  H   H9        1.0  0.38848  0.64504  0.47504  1.0000
  H   H10       1.0  0.10834  0.52786  0.35808  1.0000
  H   H11       1.0  0.61152  0.35496  0.52497  1.0000
  H   H12       1.0  0.89166  0.47214  0.64192  1.0000
  H   H13       1.0  0.52270  0.60192  0.24798  1.0000
  H   H14       1.0  0.97464  0.75282  0.39997  1.0000
  H   H15       1.0  0.47730  0.39808  0.75203  1.0000
  H   H16       1.0  0.02536  0.24718  0.60003  1.0000
  H   H17       1.0  0.95103  0.83770  0.91675  1.0000
  H   H18       1.0  0.54846  0.08421  0.16142  1.0000
  H   H19       1.0  0.04896  0.16230  0.08325  1.0000
  H   H20       1.0  0.45154  0.91579  0.83858  1.0000
  H   H21       1.0  0.76133  0.83642  0.97823  1.0000
  H   H22       1.0  0.73799  0.02419  0.16188  1.0000
  H   H23       1.0  0.23866  0.16358  0.02177  1.0000
  H   H24       1.0  0.26202  0.97581  0.83812  1.0000
  H   H25       1.0  0.87899  0.60945  0.98110  1.0000
  H   H26       1.0  0.62026  0.02005  0.39074  1.0000
  H   H27       1.0  0.12101  0.39056  0.01890  1.0000
  H   H28       1.0  0.37974  0.97995  0.60926  1.0000
  H   H29       1.0  0.93473  0.67969  0.06591  1.0000
  H   H30       1.0  0.56460  0.93575  0.32003  1.0000
  H   H31       1.0  0.06527  0.32031  0.93409  1.0000
  H   H32       1.0  0.43540  0.06425  0.67997  1.0000
  H   H33       1.0  0.07153  0.60944  0.91807  1.0000
  H   H34       1.0  0.42759  0.08151  0.39206  1.0000
  H   H35       1.0  0.92847  0.39057  0.08193  1.0000
  H   H36       1.0  0.57241  0.91849  0.60794  1.0000
  C   C1        1.0  0.42015  0.78942  0.21681  1.0000
  C   C2        1.0  0.07987  0.78259  0.21037  1.0000
  C   C3        1.0  0.57984  0.21058  0.78319  1.0000
  C   C4        1.0  0.92014  0.21741  0.78963  1.0000
  C   C5        1.0  0.31769  0.90501  0.27292  1.0000
  C   C6        1.0  0.18327  0.72614  0.09398  1.0000
  C   C7        1.0  0.68231  0.09499  0.72708  1.0000
  C   C8        1.0  0.81673  0.27386  0.90602  1.0000
  C   C9        1.0  0.24562  0.92122  0.39887  1.0000
  C   C10       1.0  0.25488  0.60135  0.07851  1.0000
  C   C11       1.0  0.75438  0.07878  0.60113  1.0000
  C   C12       1.0  0.74512  0.39865  0.92149  1.0000
  C   C13       1.0  0.37148  0.71679  0.41461  1.0000
  C   C14       1.0  0.12656  0.58720  0.28515  1.0000
  C   C15       1.0  0.62852  0.28321  0.58540  1.0000
  C   C16       1.0  0.87344  0.41280  0.71485  1.0000
  C   C17       1.0  0.44687  0.69339  0.28913  1.0000
  C   C18       1.0  0.05134  0.71155  0.30784  1.0000
  C   C19       1.0  0.55313  0.30661  0.71087  1.0000
  C   C20       1.0  0.94866  0.28845  0.69216  1.0000
  C   C21       1.0  0.49769  0.77050  0.08044  1.0000
  C   C22       1.0  0.00359  0.91783  0.22833  1.0000
  C   C23       1.0  0.50231  0.22950  0.91955  1.0000
  C   C24       1.0  0.99641  0.08217  0.77167  1.0000
  C   C25       1.0  0.89878  0.76575  0.79608  1.0000
  C   C26       1.0  0.60093  0.20421  0.23399  1.0000
  C   C27       1.0  0.10122  0.23425  0.20392  1.0000
  C   C28       1.0  0.39907  0.79578  0.76601  1.0000
  C   C29       1.0  0.88602  0.78292  0.92073  1.0000
  C   C30       1.0  0.61323  0.08064  0.21629  1.0000
  C   C31       1.0  0.11398  0.21708  0.07927  1.0000
  C   C32       1.0  0.38677  0.91935  0.78370  1.0000
  C   C33       1.0  0.94660  0.66292  0.97412  1.0000
  C   C34       1.0  0.55260  0.02687  0.33729  1.0000
  C   C35       1.0  0.05340  0.33708  0.02588  1.0000
  C   C36       1.0  0.44740  0.97313  0.66271  1.0000
  N   N1        1.0  0.27312  0.82867  0.46839  1.0000
  N   N2        1.0  0.22634  0.53303  0.17259  1.0000
  N   N3        1.0  0.72688  0.17133  0.53161  1.0000
  N   N4        1.0  0.77366  0.46697  0.82741  1.0000
  N   N5        1.0  0.99419  0.79380  0.69318  1.0000
  N   N6        1.0  0.50465  0.30697  0.20852  1.0000
  N   N7        1.0  0.00581  0.20620  0.30682  1.0000
  N   N8        1.0  0.49536  0.69303  0.79148  1.0000
  N   N9        1.0  0.97122  0.76237  0.59971  1.0000
  N   N10       1.0  0.53008  0.39871  0.23983  1.0000
  N   N11       1.0  0.02878  0.23763  0.40029  1.0000
  N   N12       1.0  0.46992  0.60129  0.76017  1.0000
  N   N13       1.0  0.81837  0.71783  0.76582  1.0000
  N   N14       1.0  0.68417  0.23297  0.28010  1.0000
  N   N15       1.0  0.18163  0.28217  0.23418  1.0000
  N   N16       1.0  0.31583  0.76703  0.71990  1.0000
  N   N17       1.0  0.86609  0.71671  0.64311  1.0000
  N   N18       1.0  0.63738  0.35450  0.28289  1.0000
  N   N19       1.0  0.13391  0.28329  0.35689  1.0000
  N   N20       1.0  0.36262  0.64550  0.71711  1.0000
  O   O1        1.0  0.47949  0.85838  0.01818  1.0000
  O   O2        1.0  0.02454  0.97870  0.13899  1.0000
  O   O3        1.0  0.52051  0.14162  0.98183  1.0000
  O   O4        1.0  0.97547  0.02130  0.86101  1.0000
  O   O5        1.0  0.58108  0.65878  0.03663  1.0000
  O   O6        1.0  0.91836  0.96245  0.34067  1.0000
  O   O7        1.0  0.41892  0.34122  0.96337  1.0000
  O   O8        1.0  0.08164  0.03755  0.65933  1.0000
