data_image0
_chemical_formula_structural       Cd2H32C24S4N4O16
_chemical_formula_sum              "Cd2 H32 C24 S4 N4 O16"
_cell_length_a       5.71583
_cell_length_b       7.24209
_cell_length_c       19.1499
_cell_angle_alpha    97.4202
_cell_angle_beta     90.0007
_cell_angle_gamma    90.0005

_space_group_name_H-M_alt    "P 1"
_space_group_IT_number       1

loop_
  _space_group_symop_operation_xyz
  'x, y, z'

loop_
  _atom_site_type_symbol
  _atom_site_label
  _atom_site_symmetry_multiplicity
  _atom_site_fract_x
  _atom_site_fract_y
  _atom_site_fract_z
  _atom_site_occupancy
  Cd  Cd1       1.0  1.00000  0.00000  0.00000  1.0000
  Cd  Cd2       1.0  0.50000  0.50000  0.50000  1.0000
  H   H1        1.0  0.66104  0.21787  0.57454  1.0000
  H   H2        1.0  0.83897  0.71786  0.07454  1.0000
  H   H3        1.0  0.33897  0.78213  0.42546  1.0000
  H   H4        1.0  0.16102  0.28213  0.92546  1.0000
  H   H5        1.0  0.89923  0.34203  0.56087  1.0000
  H   H6        1.0  0.60078  0.84203  0.06088  1.0000
  H   H7        1.0  0.10078  0.65797  0.43912  1.0000
  H   H8        1.0  0.39922  0.15798  0.93912  1.0000
  H   H9        1.0  0.39497  0.30795  0.67485  1.0000
  H   H10       1.0  0.10503  0.80794  0.17486  1.0000
  H   H11       1.0  0.60503  0.69204  0.32515  1.0000
  H   H12       1.0  0.89497  0.19206  0.82515  1.0000
  H   H13       1.0  0.40642  0.41810  0.80269  1.0000
  H   H14       1.0  0.09358  0.91810  0.30269  1.0000
  H   H15       1.0  0.59358  0.58189  0.19731  1.0000
  H   H16       1.0  0.90641  0.08190  0.69731  1.0000
  H   H17       1.0  0.08407  0.66286  0.77825  1.0000
  H   H18       1.0  0.41595  0.16286  0.27824  1.0000
  H   H19       1.0  0.91593  0.33713  0.22175  1.0000
  H   H20       1.0  0.58406  0.83715  0.72176  1.0000
  H   H21       1.0  0.07349  0.55169  0.65029  1.0000
  H   H22       1.0  0.42652  0.05169  0.15028  1.0000
  H   H23       1.0  0.92651  0.44831  0.34971  1.0000
  H   H24       1.0  0.57349  0.94832  0.84971  1.0000
  H   H25       1.0  0.62587  0.26809  0.02505  1.0000
  H   H26       1.0  0.87413  0.76809  0.52505  1.0000
  H   H27       1.0  0.37412  0.73191  0.97495  1.0000
  H   H28       1.0  0.12587  0.23192  0.47495  1.0000
  H   H29       1.0  0.76774  0.30537  0.95781  1.0000
  H   H30       1.0  0.73226  0.80538  0.45781  1.0000
  H   H31       1.0  0.23225  0.69462  0.04219  1.0000
  H   H32       1.0  0.26775  0.19463  0.54219  1.0000
  C   C1        1.0  0.73524  0.41932  0.65430  1.0000
  C   C2        1.0  0.76476  0.91933  0.15430  1.0000
  C   C3        1.0  0.26476  0.58067  0.34570  1.0000
  C   C4        1.0  0.23525  0.08068  0.84570  1.0000
  C   C5        1.0  0.54643  0.38455  0.69740  1.0000
  C   C6        1.0  0.95358  0.88454  0.19740  1.0000
  C   C7        1.0  0.45357  0.61545  0.30260  1.0000
  C   C8        1.0  0.04643  0.11546  0.80260  1.0000
  C   C9        1.0  0.55279  0.44538  0.76919  1.0000
  C   C10       1.0  0.94720  0.94538  0.26919  1.0000
  C   C11       1.0  0.44720  0.55462  0.23081  1.0000
  C   C12       1.0  0.05280  0.05463  0.73081  1.0000
  C   C13       1.0  0.74790  0.54333  0.79829  1.0000
  C   C14       1.0  0.75210  0.04333  0.29829  1.0000
  C   C15       1.0  0.25210  0.45666  0.20171  1.0000
  C   C16       1.0  0.24790  0.95667  0.70171  1.0000
  C   C17       1.0  0.93429  0.58372  0.75554  1.0000
  C   C18       1.0  0.56571  0.08373  0.25554  1.0000
  C   C19       1.0  0.06572  0.41627  0.24446  1.0000
  C   C20       1.0  0.43429  0.91629  0.74446  1.0000
  C   C21       1.0  0.92734  0.52200  0.68361  1.0000
  C   C22       1.0  0.57266  0.02200  0.18361  1.0000
  C   C23       1.0  0.07266  0.47800  0.31639  1.0000
  C   C24       1.0  0.42734  0.97801  0.81639  1.0000
  S   S1        1.0  0.75945  0.60648  0.89050  1.0000
  S   S2        1.0  0.74054  0.10648  0.39050  1.0000
  S   S3        1.0  0.24054  0.39351  0.10950  1.0000
  S   S4        1.0  0.25946  0.89352  0.60950  1.0000
  N   N1        1.0  0.73171  0.34951  0.58133  1.0000
  N   N2        1.0  0.76830  0.84950  0.08133  1.0000
  N   N3        1.0  0.26829  0.65049  0.41867  1.0000
  N   N4        1.0  0.23170  0.15050  0.91867  1.0000
  O   O1        1.0  0.86421  0.79439  0.90225  1.0000
  O   O2        1.0  0.63578  0.29439  0.40226  1.0000
  O   O3        1.0  0.13578  0.20560  0.09774  1.0000
  O   O4        1.0  0.36423  0.70562  0.59774  1.0000
  O   O5        1.0  0.51600  0.59883  0.91467  1.0000
  O   O6        1.0  0.98398  0.09883  0.41468  1.0000
  O   O7        1.0  0.48399  0.40117  0.08533  1.0000
  O   O8        1.0  0.01601  0.90117  0.58533  1.0000
  O   O9        1.0  0.90847  0.46816  0.91983  1.0000
  O   O10       1.0  0.59151  0.96816  0.41983  1.0000
  O   O11       1.0  0.09152  0.53183  0.08017  1.0000
  O   O12       1.0  0.40849  0.03184  0.58017  1.0000
  O   O13       1.0  0.69822  0.20182  0.98103  1.0000
  O   O14       1.0  0.80178  0.70182  0.48103  1.0000
  O   O15       1.0  0.30177  0.79818  0.01897  1.0000
  O   O16       1.0  0.19822  0.29818  0.51897  1.0000
