data_image0
_chemical_formula_structural       Na12H28C4S12O48
_chemical_formula_sum              "Na12 H28 C4 S12 O48"
_cell_length_a       9.77833
_cell_length_b       9.86165
_cell_length_c       11.7208
_cell_angle_alpha    90
_cell_angle_beta     93.1975
_cell_angle_gamma    90

_space_group_name_H-M_alt    "P 1"
_space_group_IT_number       1

loop_
  _space_group_symop_operation_xyz
  'x, y, z'

loop_
  _atom_site_type_symbol
  _atom_site_label
  _atom_site_symmetry_multiplicity
  _atom_site_fract_x
  _atom_site_fract_y
  _atom_site_fract_z
  _atom_site_occupancy
  Na  Na1       1.0  0.91026  0.90909  0.12026  1.0000
  Na  Na2       1.0  0.58974  0.40909  0.87974  1.0000
  Na  Na3       1.0  0.08975  0.09091  0.87974  1.0000
  Na  Na4       1.0  0.41025  0.59091  0.12026  1.0000
  Na  Na5       1.0  0.03943  0.69922  0.90574  1.0000
  Na  Na6       1.0  0.46057  0.19922  0.09426  1.0000
  Na  Na7       1.0  0.96057  0.30078  0.09426  1.0000
  Na  Na8       1.0  0.53943  0.80078  0.90574  1.0000
  Na  Na9       1.0  0.43569  0.65417  0.45970  1.0000
  Na  Na10      1.0  0.06432  0.15417  0.54030  1.0000
  Na  Na11      1.0  0.56432  0.34583  0.54030  1.0000
  Na  Na12      1.0  0.93569  0.84583  0.45970  1.0000
  H   H1        1.0  0.37293  0.94310  0.24618  1.0000
  H   H2        1.0  0.12707  0.44310  0.75382  1.0000
  H   H3        1.0  0.62707  0.05690  0.75382  1.0000
  H   H4        1.0  0.87293  0.55690  0.24618  1.0000
  H   H5        1.0  0.83371  0.63056  0.75655  1.0000
  H   H6        1.0  0.66629  0.13056  0.24345  1.0000
  H   H7        1.0  0.16629  0.36944  0.24345  1.0000
  H   H8        1.0  0.33371  0.86944  0.75655  1.0000
  H   H9        1.0  0.87017  0.47741  0.76660  1.0000
  H   H10       1.0  0.62983  0.97741  0.23340  1.0000
  H   H11       1.0  0.12983  0.52259  0.23340  1.0000
  H   H12       1.0  0.37017  0.02259  0.76660  1.0000
  H   H13       1.0  0.61984  0.87821  0.55799  1.0000
  H   H14       1.0  0.88016  0.37821  0.44201  1.0000
  H   H15       1.0  0.38016  0.12179  0.44201  1.0000
  H   H16       1.0  0.11984  0.62179  0.55799  1.0000
  H   H17       1.0  0.48417  0.88913  0.62157  1.0000
  H   H18       1.0  0.01583  0.38913  0.37843  1.0000
  H   H19       1.0  0.51583  0.11087  0.37843  1.0000
  H   H20       1.0  0.98417  0.61087  0.62157  1.0000
  H   H21       1.0  0.38414  0.35751  0.36489  1.0000
  H   H22       1.0  0.11586  0.85751  0.63511  1.0000
  H   H23       1.0  0.61586  0.64249  0.63511  1.0000
  H   H24       1.0  0.88414  0.14249  0.36489  1.0000
  H   H25       1.0  0.30388  0.39290  0.47182  1.0000
  H   H26       1.0  0.19612  0.89290  0.52818  1.0000
  H   H27       1.0  0.69612  0.60711  0.52818  1.0000
  H   H28       1.0  0.80388  0.10710  0.47182  1.0000
  C   C1        1.0  0.26499  0.93795  0.21487  1.0000
  C   C2        1.0  0.23501  0.43795  0.78513  1.0000
  C   C3        1.0  0.73501  0.06205  0.78513  1.0000
  C   C4        1.0  0.76499  0.56205  0.21487  1.0000
  S   S1        1.0  0.18912  0.79272  0.28804  1.0000
  S   S2        1.0  0.31088  0.29272  0.71196  1.0000
  S   S3        1.0  0.81088  0.20728  0.71196  1.0000
  S   S4        1.0  0.68912  0.70728  0.28804  1.0000
  S   S5        1.0  0.26473  0.91438  0.06008  1.0000
  S   S6        1.0  0.23527  0.41438  0.93992  1.0000
  S   S7        1.0  0.73527  0.08562  0.93992  1.0000
  S   S8        1.0  0.76473  0.58562  0.06008  1.0000
  S   S9        1.0  0.18513  0.09805  0.25658  1.0000
  S   S10       1.0  0.31487  0.59805  0.74342  1.0000
  S   S11       1.0  0.81487  0.90195  0.74342  1.0000
  S   S12       1.0  0.68513  0.40195  0.25658  1.0000
  O   O1        1.0  0.04106  0.81607  0.28298  1.0000
  O   O2        1.0  0.45894  0.31607  0.71702  1.0000
  O   O3        1.0  0.95894  0.18393  0.71702  1.0000
  O   O4        1.0  0.54106  0.68393  0.28299  1.0000
  O   O5        1.0  0.25235  0.79591  0.40423  1.0000
  O   O6        1.0  0.24765  0.29591  0.59577  1.0000
  O   O7        1.0  0.74764  0.20409  0.59577  1.0000
  O   O8        1.0  0.75235  0.70410  0.40423  1.0000
  O   O9        1.0  0.22771  0.67229  0.22415  1.0000
  O   O10       1.0  0.27229  0.17229  0.77585  1.0000
  O   O11       1.0  0.77229  0.32771  0.77585  1.0000
  O   O12       1.0  0.72771  0.82771  0.22415  1.0000
  O   O13       1.0  0.36779  0.81020  0.04318  1.0000
  O   O14       1.0  0.13221  0.31019  0.95682  1.0000
  O   O15       1.0  0.63221  0.18980  0.95682  1.0000
  O   O16       1.0  0.86779  0.68980  0.04318  1.0000
  O   O17       1.0  0.12359  0.87567  0.02372  1.0000
  O   O18       1.0  0.37641  0.37567  0.97628  1.0000
  O   O19       1.0  0.87641  0.12433  0.97628  1.0000
  O   O20       1.0  0.62359  0.62433  0.02372  1.0000
  O   O21       1.0  0.30083  0.04585  0.01247  1.0000
  O   O22       1.0  0.19917  0.54585  0.98753  1.0000
  O   O23       1.0  0.69917  0.95415  0.98753  1.0000
  O   O24       1.0  0.80082  0.45415  0.01247  1.0000
  O   O25       1.0  0.04808  0.10180  0.19899  1.0000
  O   O26       1.0  0.45192  0.60180  0.80101  1.0000
  O   O27       1.0  0.95192  0.89820  0.80101  1.0000
  O   O28       1.0  0.54808  0.39820  0.19899  1.0000
  O   O29       1.0  0.27430  0.20756  0.21909  1.0000
  O   O30       1.0  0.22570  0.70756  0.78091  1.0000
  O   O31       1.0  0.72570  0.79244  0.78091  1.0000
  O   O32       1.0  0.77430  0.29244  0.21909  1.0000
  O   O33       1.0  0.18533  0.08877  0.38106  1.0000
  O   O34       1.0  0.31467  0.58877  0.61894  1.0000
  O   O35       1.0  0.81467  0.91123  0.61894  1.0000
  O   O36       1.0  0.68533  0.41123  0.38106  1.0000
  O   O37       1.0  0.91244  0.56827  0.76140  1.0000
  O   O38       1.0  0.58756  0.06827  0.23860  1.0000
  O   O39       1.0  0.08756  0.43173  0.23860  1.0000
  O   O40       1.0  0.41244  0.93173  0.76140  1.0000
  O   O41       1.0  0.52550  0.84501  0.55626  1.0000
  O   O42       1.0  0.97450  0.34501  0.44374  1.0000
  O   O43       1.0  0.47450  0.15499  0.44374  1.0000
  O   O44       1.0  0.02550  0.65499  0.55626  1.0000
  O   O45       1.0  0.35963  0.43345  0.41328  1.0000
  O   O46       1.0  0.14038  0.93345  0.58672  1.0000
  O   O47       1.0  0.64037  0.56655  0.58672  1.0000
  O   O48       1.0  0.85963  0.06655  0.41328  1.0000
