data_image0
_chemical_formula_structural       Cu2H32C36S4N4Cl4
_chemical_formula_sum              "Cu2 H32 C36 S4 N4 Cl4"
_cell_length_a       8.72373
_cell_length_b       11.0138
_cell_length_c       12.0843
_cell_angle_alpha    97.0572
_cell_angle_beta     103.041
_cell_angle_gamma    111.97

_space_group_name_H-M_alt    "P 1"
_space_group_IT_number       1

loop_
  _space_group_symop_operation_xyz
  'x, y, z'

loop_
  _atom_site_type_symbol
  _atom_site_label
  _atom_site_symmetry_multiplicity
  _atom_site_fract_x
  _atom_site_fract_y
  _atom_site_fract_z
  _atom_site_occupancy
  Cu  Cu1       1.0  0.50000  1.00000  0.50000  1.0000
  Cu  Cu2       1.0  0.50000  0.50000  0.00000  1.0000
  H   H1        1.0  0.72270  0.32234  0.48171  1.0000
  H   H2        1.0  0.27730  0.67766  0.51828  1.0000
  H   H3        1.0  0.63638  0.39275  0.64817  1.0000
  H   H4        1.0  0.36362  0.60725  0.35183  1.0000
  H   H5        1.0  0.67923  0.63404  0.70710  1.0000
  H   H6        1.0  0.32078  0.36596  0.29290  1.0000
  H   H7        1.0  0.78611  0.79161  0.58300  1.0000
  H   H8        1.0  0.21389  0.20840  0.41700  1.0000
  H   H9        1.0  0.80326  0.81102  0.38907  1.0000
  H   H10       1.0  0.19674  0.18898  0.61093  1.0000
  H   H11       1.0  0.84875  0.69586  0.29859  1.0000
  H   H12       1.0  0.15125  0.30414  0.70140  1.0000
  H   H13       1.0  0.89470  0.89763  0.24434  1.0000
  H   H14       1.0  0.10530  0.10237  0.75566  1.0000
  H   H15       1.0  0.99545  0.03535  0.10685  1.0000
  H   H16       1.0  0.00456  0.96466  0.89315  1.0000
  H   H17       1.0  0.31608  0.16065  0.13772  1.0000
  H   H18       1.0  0.68393  0.83935  0.86228  1.0000
  H   H19       1.0  0.52071  0.13838  0.30841  1.0000
  H   H20       1.0  0.47930  0.86162  0.69160  1.0000
  H   H21       1.0  0.87837  0.37828  0.34363  1.0000
  H   H22       1.0  0.12162  0.62172  0.65637  1.0000
  H   H23       1.0  0.95805  0.54217  0.31539  1.0000
  H   H24       1.0  0.04194  0.45783  0.68461  1.0000
  H   H25       1.0  0.91336  0.30422  0.16866  1.0000
  H   H26       1.0  0.08664  0.69579  0.83134  1.0000
  H   H27       1.0  0.99217  0.25990  0.98594  1.0000
  H   H28       1.0  0.00783  0.74010  0.01406  1.0000
  H   H29       1.0  0.83879  0.30360  0.80265  1.0000
  H   H30       1.0  0.16120  0.69639  0.19734  1.0000
  H   H31       1.0  0.63221  0.40950  0.81547  1.0000
  H   H32       1.0  0.36779  0.59050  0.18453  1.0000
  C   C1        1.0  0.81683  0.64771  0.46351  1.0000
  C   C2        1.0  0.18316  0.35229  0.53649  1.0000
  C   C3        1.0  0.80281  0.51507  0.43582  1.0000
  C   C4        1.0  0.19718  0.48493  0.56417  1.0000
  C   C5        1.0  0.73724  0.42587  0.50380  1.0000
  C   C6        1.0  0.26276  0.57413  0.49620  1.0000
  C   C7        1.0  0.69176  0.46720  0.60036  1.0000
  C   C8        1.0  0.30824  0.53280  0.39963  1.0000
  C   C9        1.0  0.71332  0.60007  0.63131  1.0000
  C   C10       1.0  0.28668  0.39993  0.36869  1.0000
  C   C11       1.0  0.77441  0.68891  0.56238  1.0000
  C   C12       1.0  0.22558  0.31109  0.43762  1.0000
  C   C13       1.0  0.87300  0.74597  0.38905  1.0000
  C   C14       1.0  0.12700  0.25403  0.61094  1.0000
  C   C15       1.0  0.15528  0.94517  0.35078  1.0000
  C   C16       1.0  0.84473  0.05483  0.64922  1.0000
  C   C17       1.0  0.03235  0.95213  0.25712  1.0000
  C   C18       1.0  0.96765  0.04787  0.74288  1.0000
  C   C19       1.0  0.08998  0.02942  0.17998  1.0000
  C   C20       1.0  0.91003  0.97059  0.82003  1.0000
  C   C21       1.0  0.26727  0.09867  0.19647  1.0000
  C   C22       1.0  0.73273  0.90134  0.80354  1.0000
  C   C23       1.0  0.38111  0.08780  0.29150  1.0000
  C   C24       1.0  0.61889  0.91220  0.70850  1.0000
  C   C25       1.0  0.84799  0.46485  0.33184  1.0000
  C   C26       1.0  0.15200  0.53515  0.66816  1.0000
  C   C27       1.0  0.73428  0.38324  0.08794  1.0000
  C   C28       1.0  0.26572  0.61676  0.91206  1.0000
  C   C29       1.0  0.85474  0.32756  0.08924  1.0000
  C   C30       1.0  0.14526  0.67245  0.91076  1.0000
  C   C31       1.0  0.89605  0.30065  0.98685  1.0000
  C   C32       1.0  0.10395  0.69935  0.01314  1.0000
  C   C33       1.0  0.81472  0.32755  0.88541  1.0000
  C   C34       1.0  0.18528  0.67245  0.11459  1.0000
  C   C35       1.0  0.69858  0.38482  0.89104  1.0000
  C   C36       1.0  0.30141  0.61518  0.10897  1.0000
  S   S1        1.0  0.10451  0.85073  0.45400  1.0000
  S   S2        1.0  0.89548  0.14926  0.54600  1.0000
  S   S3        1.0  0.65676  0.41383  0.20576  1.0000
  S   S4        1.0  0.34324  0.58617  0.79424  1.0000
  N   N1        1.0  0.32682  0.01359  0.36693  1.0000
  N   N2        1.0  0.67318  0.98641  0.63307  1.0000
  N   N3        1.0  0.66221  0.41403  0.99039  1.0000
  N   N4        1.0  0.33779  0.58597  0.00960  1.0000
  Cl  Cl1       1.0  0.45282  0.13706  0.63052  1.0000
  Cl  Cl2       1.0  0.54718  0.86294  0.36948  1.0000
  Cl  Cl3       1.0  0.71367  0.70865  0.02863  1.0000
  Cl  Cl4       1.0  0.28633  0.29135  0.97137  1.0000
