data_image0
_chemical_formula_structural       Mn2H20C30O14
_chemical_formula_sum              "Mn2 H20 C30 O14"
_cell_length_a       6.96307
_cell_length_b       7.17386
_cell_length_c       13.8578
_cell_angle_alpha    105.038
_cell_angle_beta     99.1685
_cell_angle_gamma    89.9998

_space_group_name_H-M_alt    "P 1"
_space_group_IT_number       1

loop_
  _space_group_symop_operation_xyz
  'x, y, z'

loop_
  _atom_site_type_symbol
  _atom_site_label
  _atom_site_symmetry_multiplicity
  _atom_site_fract_x
  _atom_site_fract_y
  _atom_site_fract_z
  _atom_site_occupancy
  Mn  Mn1       1.0  0.00000  0.99999  0.50000  1.0000
  Mn  Mn2       1.0  0.50000  0.50000  0.50000  1.0000
  H   H1        1.0  0.80446  0.17841  0.79112  1.0000
  H   H2        1.0  0.69626  0.38712  0.20871  1.0000
  H   H3        1.0  0.19555  0.82160  0.20889  1.0000
  H   H4        1.0  0.30375  0.61288  0.79130  1.0000
  H   H5        1.0  0.77950  0.73245  0.72270  1.0000
  H   H6        1.0  0.72044  0.00981  0.27749  1.0000
  H   H7        1.0  0.22048  0.26753  0.27729  1.0000
  H   H8        1.0  0.27954  0.99019  0.72250  1.0000
  H   H9        1.0  0.75564  0.89911  0.90131  1.0000
  H   H10       1.0  0.74455  0.99806  0.09899  1.0000
  H   H11       1.0  0.24434  0.10088  0.09868  1.0000
  H   H12       1.0  0.25544  0.00195  0.90101  1.0000
  H   H13       1.0  0.05929  0.31532  0.41153  1.0000
  H   H14       1.0  0.43972  0.90367  0.58805  1.0000
  H   H15       1.0  0.94071  0.68468  0.58847  1.0000
  H   H16       1.0  0.56028  0.09633  0.41195  1.0000
  H   H17       1.0  0.88430  0.32801  0.47080  1.0000
  H   H18       1.0  0.61562  0.85723  0.52947  1.0000
  H   H19       1.0  0.11570  0.67199  0.52920  1.0000
  H   H20       1.0  0.38439  0.14277  0.47053  1.0000
  C   C1        1.0  0.79282  0.33453  0.81541  1.0000
  C   C2        1.0  0.70796  0.51903  0.18454  1.0000
  C   C3        1.0  0.20719  0.66548  0.18459  1.0000
  C   C4        1.0  0.29205  0.48098  0.81546  1.0000
  C   C5        1.0  0.79911  0.44705  0.74639  1.0000
  C   C6        1.0  0.70140  0.70058  0.25365  1.0000
  C   C7        1.0  0.20089  0.55295  0.25361  1.0000
  C   C8        1.0  0.29860  0.29943  0.74634  1.0000
  C   C9        1.0  0.78186  0.64814  0.77786  1.0000
  C   C10       1.0  0.71844  0.87032  0.22229  1.0000
  C   C11       1.0  0.21813  0.35185  0.22214  1.0000
  C   C12       1.0  0.28156  0.12969  0.77770  1.0000
  C   C13       1.0  0.76503  0.74262  0.87779  1.0000
  C   C14       1.0  0.73530  0.86499  0.12242  1.0000
  C   C15       1.0  0.23495  0.25738  0.12221  1.0000
  C   C16       1.0  0.26469  0.13501  0.87758  1.0000
  C   C17       1.0  0.76010  0.63110  0.94601  1.0000
  C   C18       1.0  0.74057  0.68519  0.05411  1.0000
  C   C19       1.0  0.23989  0.36891  0.05400  1.0000
  C   C20       1.0  0.25943  0.31481  0.94589  1.0000
  C   C21       1.0  0.77052  0.42789  0.91356  1.0000
  C   C22       1.0  0.73039  0.51436  0.08646  1.0000
  C   C23       1.0  0.22948  0.57210  0.08644  1.0000
  C   C24       1.0  0.26962  0.48564  0.91355  1.0000
  C   C25       1.0  0.75042  0.34581  0.99999  1.0000
  C   C26       1.0  0.24960  0.65420  0.00002  1.0000
  C   C27       1.0  0.82174  0.35225  0.64013  1.0000
  C   C28       1.0  0.67798  0.71196  0.35975  1.0000
  C   C29       1.0  0.17826  0.64775  0.35987  1.0000
  C   C30       1.0  0.32202  0.28805  0.64026  1.0000
  O   O1        1.0  0.75019  0.17429  0.99997  1.0000
  O   O2        1.0  0.24985  0.82571  0.00004  1.0000
  O   O3        1.0  0.79419  0.45396  0.57416  1.0000
  O   O4        1.0  0.70699  0.87939  0.42605  1.0000
  O   O5        1.0  0.20580  0.54603  0.42584  1.0000
  O   O6        1.0  0.29302  0.12061  0.57395  1.0000
  O   O7        1.0  0.86638  0.17679  0.61758  1.0000
  O   O8        1.0  0.63105  0.55932  0.38182  1.0000
  O   O9        1.0  0.13362  0.82321  0.38242  1.0000
  O   O10       1.0  0.36895  0.44068  0.61818  1.0000
  O   O11       1.0  0.95498  0.23464  0.42296  1.0000
  O   O12       1.0  0.54434  0.81176  0.57706  1.0000
  O   O13       1.0  0.04502  0.76536  0.57704  1.0000
  O   O14       1.0  0.45565  0.18823  0.42294  1.0000
