data_image0
_chemical_formula_structural       Cd4H40C60O28
_chemical_formula_sum              "Cd4 H40 C60 O28"
_cell_length_a       6.56424
_cell_length_b       7.55043
_cell_length_c       28.5057
_cell_angle_alpha    90
_cell_angle_beta     90
_cell_angle_gamma    105.187

_space_group_name_H-M_alt    "P 1"
_space_group_IT_number       1

loop_
  _space_group_symop_operation_xyz
  'x, y, z'

loop_
  _atom_site_type_symbol
  _atom_site_label
  _atom_site_symmetry_multiplicity
  _atom_site_fract_x
  _atom_site_fract_y
  _atom_site_fract_z
  _atom_site_occupancy
  Cd  Cd1       1.0  0.31453  0.78625  0.52216  1.0000
  Cd  Cd2       1.0  0.18547  0.21375  0.02216  1.0000
  Cd  Cd3       1.0  0.68547  0.21375  0.47784  1.0000
  Cd  Cd4       1.0  0.81452  0.78624  0.97784  1.0000
  H   H1        1.0  0.34105  0.26341  0.18145  1.0000
  H   H2        1.0  0.15895  0.73658  0.68145  1.0000
  H   H3        1.0  0.65896  0.73659  0.81855  1.0000
  H   H4        1.0  0.84105  0.26342  0.31855  1.0000
  H   H5        1.0  0.47692  0.79377  0.11476  1.0000
  H   H6        1.0  0.02309  0.20622  0.61476  1.0000
  H   H7        1.0  0.52309  0.20622  0.88524  1.0000
  H   H8        1.0  0.97692  0.79379  0.38524  1.0000
  H   H9        1.0  0.54916  0.95122  0.19245  1.0000
  H   H10       1.0  0.95084  0.04877  0.69245  1.0000
  H   H11       1.0  0.45084  0.04877  0.80755  1.0000
  H   H12       1.0  0.04916  0.95124  0.30755  1.0000
  H   H13       1.0  0.57476  0.04170  0.28214  1.0000
  H   H14       1.0  0.92526  0.95830  0.78214  1.0000
  H   H15       1.0  0.42524  0.95830  0.71786  1.0000
  H   H16       1.0  0.07475  0.04171  0.21786  1.0000
  H   H17       1.0  0.56486  0.05144  0.36970  1.0000
  H   H18       1.0  0.93516  0.94856  0.86970  1.0000
  H   H19       1.0  0.43514  0.94856  0.63030  1.0000
  H   H20       1.0  0.06484  0.05144  0.13030  1.0000
  H   H21       1.0  0.37676  0.45973  0.37578  1.0000
  H   H22       1.0  0.12324  0.54026  0.87578  1.0000
  H   H23       1.0  0.62324  0.54026  0.62422  1.0000
  H   H24       1.0  0.87678  0.45974  0.12422  1.0000
  H   H25       1.0  0.64986  0.60390  0.54925  1.0000
  H   H26       1.0  0.85013  0.39610  0.04925  1.0000
  H   H27       1.0  0.35014  0.39611  0.45075  1.0000
  H   H28       1.0  0.14986  0.60389  0.95075  1.0000
  H   H29       1.0  0.71007  0.80291  0.57317  1.0000
  H   H30       1.0  0.78992  0.19708  0.07317  1.0000
  H   H31       1.0  0.28992  0.19709  0.42682  1.0000
  H   H32       1.0  0.21007  0.80291  0.92683  1.0000
  H   H33       1.0  0.95434  0.70780  0.46432  1.0000
  H   H34       1.0  0.54565  0.29220  0.96432  1.0000
  H   H35       1.0  0.04565  0.29220  0.53568  1.0000
  H   H36       1.0  0.45434  0.70779  0.03568  1.0000
  H   H37       1.0  0.89718  0.81669  0.50652  1.0000
  H   H38       1.0  0.60281  0.18331  0.00652  1.0000
  H   H39       1.0  0.10281  0.18331  0.49348  1.0000
  H   H40       1.0  0.39718  0.81668  0.99348  1.0000
  C   C1        1.0  0.38426  0.41242  0.18426  1.0000
  C   C2        1.0  0.11574  0.58757  0.68426  1.0000
  C   C3        1.0  0.61574  0.58758  0.81574  1.0000
  C   C4        1.0  0.88426  0.41243  0.31574  1.0000
  C   C5        1.0  0.40719  0.52079  0.14360  1.0000
  C   C6        1.0  0.09281  0.47920  0.64360  1.0000
  C   C7        1.0  0.59281  0.47920  0.85640  1.0000
  C   C8        1.0  0.90719  0.52081  0.35640  1.0000
  C   C9        1.0  0.46413  0.71321  0.14688  1.0000
  C   C10       1.0  0.03588  0.28678  0.64688  1.0000
  C   C11       1.0  0.53588  0.28678  0.85312  1.0000
  C   C12       1.0  0.96412  0.71322  0.35312  1.0000
  C   C13       1.0  0.50146  0.80187  0.19030  1.0000
  C   C14       1.0  0.99855  0.19812  0.69030  1.0000
  C   C15       1.0  0.49855  0.19812  0.80970  1.0000
  C   C16       1.0  0.00146  0.80189  0.30970  1.0000
  C   C17       1.0  0.47305  0.69403  0.23060  1.0000
  C   C18       1.0  0.02695  0.30597  0.73060  1.0000
  C   C19       1.0  0.52696  0.30597  0.76940  1.0000
  C   C20       1.0  0.97305  0.69403  0.26940  1.0000
  C   C21       1.0  0.48748  0.74496  0.28052  1.0000
  C   C22       1.0  0.01252  0.25503  0.78052  1.0000
  C   C23       1.0  0.51253  0.25504  0.71948  1.0000
  C   C24       1.0  0.98749  0.74496  0.21948  1.0000
  C   C25       1.0  0.53570  0.91520  0.30251  1.0000
  C   C26       1.0  0.96430  0.08480  0.80251  1.0000
  C   C27       1.0  0.46430  0.08480  0.69749  1.0000
  C   C28       1.0  0.03569  0.91520  0.19749  1.0000
  C   C29       1.0  0.52674  0.92000  0.35155  1.0000
  C   C30       1.0  0.97327  0.08000  0.85155  1.0000
  C   C31       1.0  0.47326  0.08000  0.64845  1.0000
  C   C32       1.0  0.02673  0.92000  0.14845  1.0000
  C   C33       1.0  0.47031  0.75799  0.37823  1.0000
  C   C34       1.0  0.02970  0.24200  0.87823  1.0000
  C   C35       1.0  0.52970  0.24200  0.62177  1.0000
  C   C36       1.0  0.97031  0.75799  0.12177  1.0000
  C   C37       1.0  0.42378  0.58638  0.35571  1.0000
  C   C38       1.0  0.07622  0.41362  0.85571  1.0000
  C   C39       1.0  0.57623  0.41362  0.64430  1.0000
  C   C40       1.0  0.92378  0.58638  0.14429  1.0000
  C   C41       1.0  0.43374  0.58194  0.30748  1.0000
  C   C42       1.0  0.06626  0.41806  0.80748  1.0000
  C   C43       1.0  0.56626  0.41807  0.69252  1.0000
  C   C44       1.0  0.93375  0.58193  0.19252  1.0000
  C   C45       1.0  0.38471  0.42038  0.27542  1.0000
  C   C46       1.0  0.11529  0.57962  0.77542  1.0000
  C   C47       1.0  0.61529  0.57963  0.72458  1.0000
  C   C48       1.0  0.88472  0.42038  0.22458  1.0000
  C   C49       1.0  0.41352  0.50011  0.22728  1.0000
  C   C50       1.0  0.08648  0.49988  0.72728  1.0000
  C   C51       1.0  0.58648  0.49988  0.77272  1.0000
  C   C52       1.0  0.91353  0.50012  0.27272  1.0000
  C   C53       1.0  0.35586  0.42739  0.09752  1.0000
  C   C54       1.0  0.14413  0.57260  0.59752  1.0000
  C   C55       1.0  0.64414  0.57260  0.90248  1.0000
  C   C56       1.0  0.85586  0.42740  0.40248  1.0000
  C   C57       1.0  0.44130  0.76458  0.42980  1.0000
  C   C58       1.0  0.05871  0.23542  0.92980  1.0000
  C   C59       1.0  0.55870  0.23542  0.57020  1.0000
  C   C60       1.0  0.94130  0.76458  0.07020  1.0000
  O   O1        1.0  0.32777  0.25695  0.28642  1.0000
  O   O2        1.0  0.17223  0.74304  0.78642  1.0000
  O   O3        1.0  0.67224  0.74306  0.71358  1.0000
  O   O4        1.0  0.82777  0.25695  0.21358  1.0000
  O   O5        1.0  0.32509  0.51732  0.06148  1.0000
  O   O6        1.0  0.17490  0.48268  0.56148  1.0000
  O   O7        1.0  0.67490  0.48268  0.93852  1.0000
  O   O8        1.0  0.82509  0.51732  0.43852  1.0000
  O   O9        1.0  0.33087  0.25348  0.09600  1.0000
  O   O10       1.0  0.16911  0.74651  0.59600  1.0000
  O   O11       1.0  0.66912  0.74652  0.90400  1.0000
  O   O12       1.0  0.83088  0.25349  0.40400  1.0000
  O   O13       1.0  0.48115  0.91957  0.45108  1.0000
  O   O14       1.0  0.01885  0.08043  0.95109  1.0000
  O   O15       1.0  0.51883  0.08043  0.54891  1.0000
  O   O16       1.0  0.98115  0.91957  0.04891  1.0000
  O   O17       1.0  0.36202  0.61638  0.45241  1.0000
  O   O18       1.0  0.13798  0.38361  0.95241  1.0000
  O   O19       1.0  0.63798  0.38362  0.54759  1.0000
  O   O20       1.0  0.86202  0.61638  0.04759  1.0000
  O   O21       1.0  0.65844  0.73785  0.54428  1.0000
  O   O22       1.0  0.84155  0.26215  0.04428  1.0000
  O   O23       1.0  0.34155  0.26215  0.45572  1.0000
  O   O24       1.0  0.15844  0.73785  0.95572  1.0000
  O   O25       1.0  0.01355  0.81844  0.48434  1.0000
  O   O26       1.0  0.48644  0.18156  0.98434  1.0000
  O   O27       1.0  0.98644  0.18156  0.51566  1.0000
  O   O28       1.0  0.51355  0.81844  0.01566  1.0000
