data_image0
_chemical_formula_structural       K4B4H56C40S4N4O8F12
_chemical_formula_sum              "K4 B4 H56 C40 S4 N4 O8 F12"
_cell_length_a       8.20455
_cell_length_b       9.34874
_cell_length_c       17.7586
_cell_angle_alpha    90
_cell_angle_beta     90
_cell_angle_gamma    92.7861

_space_group_name_H-M_alt    "P 1"
_space_group_IT_number       1

loop_
  _space_group_symop_operation_xyz
  'x, y, z'

loop_
  _atom_site_type_symbol
  _atom_site_label
  _atom_site_symmetry_multiplicity
  _atom_site_fract_x
  _atom_site_fract_y
  _atom_site_fract_z
  _atom_site_occupancy
  K   K1        1.0  0.25001  0.50000  0.43680  1.0000
  K   K2        1.0  0.75002  0.50000  0.56320  1.0000
  K   K3        1.0  0.25000  1.00000  0.43846  1.0000
  K   K4        1.0  0.75000  0.00000  0.56154  1.0000
  B   B1        1.0  0.87695  0.76822  0.41777  1.0000
  B   B2        1.0  0.62305  0.23178  0.41777  1.0000
  B   B3        1.0  0.12305  0.23178  0.58223  1.0000
  B   B4        1.0  0.37695  0.76821  0.58223  1.0000
  H   H1        1.0  0.60052  0.99141  0.06029  1.0000
  H   H2        1.0  0.89947  0.00859  0.06029  1.0000
  H   H3        1.0  0.39948  0.00859  0.93971  1.0000
  H   H4        1.0  0.10052  0.99141  0.93972  1.0000
  H   H5        1.0  0.60242  0.53265  0.05622  1.0000
  H   H6        1.0  0.89758  0.46736  0.05622  1.0000
  H   H7        1.0  0.39757  0.46735  0.94378  1.0000
  H   H8        1.0  0.10242  0.53264  0.94378  1.0000
  H   H9        1.0  0.57429  0.11562  0.16703  1.0000
  H   H10       1.0  0.92570  0.88439  0.16703  1.0000
  H   H11       1.0  0.42570  0.88438  0.83297  1.0000
  H   H12       1.0  0.07430  0.11562  0.83297  1.0000
  H   H13       1.0  0.59102  0.03444  0.25645  1.0000
  H   H14       1.0  0.90898  0.96556  0.25645  1.0000
  H   H15       1.0  0.40897  0.96556  0.74355  1.0000
  H   H16       1.0  0.09103  0.03444  0.74355  1.0000
  H   H17       1.0  0.39685  0.05157  0.21753  1.0000
  H   H18       1.0  0.10315  0.94843  0.21753  1.0000
  H   H19       1.0  0.60315  0.94843  0.78247  1.0000
  H   H20       1.0  0.89685  0.05157  0.78247  1.0000
  H   H21       1.0  0.54061  0.76563  0.93042  1.0000
  H   H22       1.0  0.95939  0.23438  0.93042  1.0000
  H   H23       1.0  0.45939  0.23437  0.06957  1.0000
  H   H24       1.0  0.04061  0.76562  0.06958  1.0000
  H   H25       1.0  0.71903  0.67326  0.94977  1.0000
  H   H26       1.0  0.78097  0.32674  0.94977  1.0000
  H   H27       1.0  0.28097  0.32674  0.05023  1.0000
  H   H28       1.0  0.21903  0.67326  0.05023  1.0000
  H   H29       1.0  0.72461  0.86335  0.95163  1.0000
  H   H30       1.0  0.77539  0.13666  0.95163  1.0000
  H   H31       1.0  0.27539  0.13666  0.04837  1.0000
  H   H32       1.0  0.22461  0.86334  0.04837  1.0000
  H   H33       1.0  0.39183  0.44437  0.21051  1.0000
  H   H34       1.0  0.10817  0.55563  0.21051  1.0000
  H   H35       1.0  0.60816  0.55563  0.78949  1.0000
  H   H36       1.0  0.89183  0.44437  0.78949  1.0000
  H   H37       1.0  0.58898  0.46578  0.24736  1.0000
  H   H38       1.0  0.91102  0.53422  0.24736  1.0000
  H   H39       1.0  0.41102  0.53422  0.75264  1.0000
  H   H40       1.0  0.08898  0.46578  0.75264  1.0000
  H   H41       1.0  0.56218  0.39749  0.15464  1.0000
  H   H42       1.0  0.93782  0.60251  0.15464  1.0000
  H   H43       1.0  0.43781  0.60251  0.84536  1.0000
  H   H44       1.0  0.06218  0.39749  0.84536  1.0000
  H   H45       1.0  0.82259  0.73471  0.29498  1.0000
  H   H46       1.0  0.67741  0.26529  0.29498  1.0000
  H   H47       1.0  0.17741  0.26529  0.70502  1.0000
  H   H48       1.0  0.32259  0.73471  0.70502  1.0000
  H   H49       1.0  0.71900  0.60977  0.35538  1.0000
  H   H50       1.0  0.78100  0.39023  0.35538  1.0000
  H   H51       1.0  0.28100  0.39023  0.64462  1.0000
  H   H52       1.0  0.21900  0.60977  0.64462  1.0000
  H   H53       1.0  0.61454  0.91106  0.36221  1.0000
  H   H54       1.0  0.88546  0.08894  0.36220  1.0000
  H   H55       1.0  0.38546  0.08894  0.63779  1.0000
  H   H56       1.0  0.11454  0.91106  0.63780  1.0000
  C   C1        1.0  0.51166  0.75304  0.20085  1.0000
  C   C2        1.0  0.98833  0.24696  0.20085  1.0000
  C   C3        1.0  0.48834  0.24696  0.79915  1.0000
  C   C4        1.0  0.01166  0.75304  0.79916  1.0000
  C   C5        1.0  0.53728  0.88735  0.16444  1.0000
  C   C6        1.0  0.96272  0.11265  0.16444  1.0000
  C   C7        1.0  0.46272  0.11265  0.83556  1.0000
  C   C8        1.0  0.03728  0.88735  0.83556  1.0000
  C   C9        1.0  0.58138  0.88813  0.08833  1.0000
  C   C10       1.0  0.91861  0.11187  0.08833  1.0000
  C   C11       1.0  0.41862  0.11187  0.91167  1.0000
  C   C12       1.0  0.08138  0.88813  0.91167  1.0000
  C   C13       1.0  0.60465  0.76232  0.04796  1.0000
  C   C14       1.0  0.89535  0.23768  0.04796  1.0000
  C   C15       1.0  0.39535  0.23768  0.95204  1.0000
  C   C16       1.0  0.10465  0.76232  0.95204  1.0000
  C   C17       1.0  0.58236  0.63237  0.08616  1.0000
  C   C18       1.0  0.91764  0.36763  0.08616  1.0000
  C   C19       1.0  0.41764  0.36763  0.91384  1.0000
  C   C20       1.0  0.08235  0.63237  0.91384  1.0000
  C   C21       1.0  0.53589  0.62305  0.16210  1.0000
  C   C22       1.0  0.96411  0.37695  0.16210  1.0000
  C   C23       1.0  0.46411  0.37695  0.83790  1.0000
  C   C24       1.0  0.03589  0.62305  0.83791  1.0000
  C   C25       1.0  0.52333  0.02954  0.20316  1.0000
  C   C26       1.0  0.97667  0.97046  0.20316  1.0000
  C   C27       1.0  0.47667  0.97046  0.79684  1.0000
  C   C28       1.0  0.02333  0.02954  0.79685  1.0000
  C   C29       1.0  0.65041  0.76634  0.96606  1.0000
  C   C30       1.0  0.84959  0.23366  0.96606  1.0000
  C   C31       1.0  0.34959  0.23366  0.03394  1.0000
  C   C32       1.0  0.15041  0.76634  0.03395  1.0000
  C   C33       1.0  0.51855  0.47488  0.19542  1.0000
  C   C34       1.0  0.98145  0.52512  0.19542  1.0000
  C   C35       1.0  0.48145  0.52512  0.80458  1.0000
  C   C36       1.0  0.01854  0.47488  0.80458  1.0000
  C   C37       1.0  0.75643  0.72373  0.34894  1.0000
  C   C38       1.0  0.74357  0.27627  0.34894  1.0000
  C   C39       1.0  0.24357  0.27627  0.65106  1.0000
  C   C40       1.0  0.25643  0.72373  0.65106  1.0000
  S   S1        1.0  0.45143  0.75337  0.29778  1.0000
  S   S2        1.0  0.04857  0.24663  0.29778  1.0000
  S   S3        1.0  0.54857  0.24664  0.70222  1.0000
  S   S4        1.0  0.95143  0.75337  0.70222  1.0000
  N   N1        1.0  0.60842  0.80485  0.34816  1.0000
  N   N2        1.0  0.89158  0.19515  0.34816  1.0000
  N   N3        1.0  0.39158  0.19515  0.65184  1.0000
  N   N4        1.0  0.10842  0.80485  0.65184  1.0000
  O   O1        1.0  0.40843  0.60657  0.31813  1.0000
  O   O2        1.0  0.09157  0.39343  0.31813  1.0000
  O   O3        1.0  0.59157  0.39343  0.68187  1.0000
  O   O4        1.0  0.90843  0.60657  0.68187  1.0000
  O   O5        1.0  0.33056  0.85954  0.30844  1.0000
  O   O6        1.0  0.16944  0.14046  0.30844  1.0000
  O   O7        1.0  0.66944  0.14046  0.69156  1.0000
  O   O8        1.0  0.83056  0.85954  0.69156  1.0000
  F   F1        1.0  0.01958  0.68918  0.41506  1.0000
  F   F2        1.0  0.48042  0.31082  0.41505  1.0000
  F   F3        1.0  0.98042  0.31082  0.58494  1.0000
  F   F4        1.0  0.51958  0.68918  0.58495  1.0000
  F   F5        1.0  0.80124  0.74503  0.48989  1.0000
  F   F6        1.0  0.69876  0.25497  0.48989  1.0000
  F   F7        1.0  0.19876  0.25496  0.51011  1.0000
  F   F8        1.0  0.30125  0.74503  0.51011  1.0000
  F   F9        1.0  0.92592  0.92055  0.41635  1.0000
  F   F10       1.0  0.57408  0.07945  0.41635  1.0000
  F   F11       1.0  0.07408  0.07945  0.58365  1.0000
  F   F12       1.0  0.42592  0.92055  0.58365  1.0000
