data_image0
_chemical_formula_structural       Hg4H16C28Cl4O4F8
_chemical_formula_sum              "Hg4 H16 C28 Cl4 O4 F8"
_cell_length_a       6.72146
_cell_length_b       11.4564
_cell_length_c       11.4559
_cell_angle_alpha    86.3851
_cell_angle_beta     75.0825
_cell_angle_gamma    75.0838

_space_group_name_H-M_alt    "P 1"
_space_group_IT_number       1

loop_
  _space_group_symop_operation_xyz
  'x, y, z'

loop_
  _atom_site_type_symbol
  _atom_site_label
  _atom_site_symmetry_multiplicity
  _atom_site_fract_x
  _atom_site_fract_y
  _atom_site_fract_z
  _atom_site_occupancy
  Hg  Hg1       1.0  0.05233  0.28470  0.59271  1.0000
  Hg  Hg2       1.0  0.55238  0.59268  0.28471  1.0000
  Hg  Hg3       1.0  0.50786  0.48366  0.64102  1.0000
  Hg  Hg4       1.0  0.00790  0.64101  0.48368  1.0000
  H   H1        1.0  0.06541  0.89683  0.57980  1.0000
  H   H2        1.0  0.56536  0.57985  0.89686  1.0000
  H   H3        1.0  0.37478  0.93886  0.42722  1.0000
  H   H4        1.0  0.87471  0.42726  0.93887  1.0000
  H   H5        1.0  0.31920  0.09237  0.26790  1.0000
  H   H6        1.0  0.81916  0.26792  0.09237  1.0000
  H   H7        1.0  0.95133  0.20993  0.26664  1.0000
  H   H8        1.0  0.45127  0.26666  0.20993  1.0000
  H   H9        1.0  0.64087  0.16852  0.42120  1.0000
  H   H10       1.0  0.14080  0.42120  0.16853  1.0000
  H   H11       1.0  0.56398  0.77382  0.76100  1.0000
  H   H12       1.0  0.06397  0.76103  0.77382  1.0000
  H   H13       1.0  0.37017  0.89657  0.71641  1.0000
  H   H14       1.0  0.87011  0.71646  0.89657  1.0000
  H   H15       1.0  0.49040  0.91891  0.83285  1.0000
  H   H16       1.0  0.99039  0.83287  0.91892  1.0000
  C   C1        1.0  0.79157  0.24446  0.71559  1.0000
  C   C2        1.0  0.29162  0.71558  0.24447  1.0000
  C   C3        1.0  0.58567  0.31967  0.72890  1.0000
  C   C4        1.0  0.08574  0.72890  0.31967  1.0000
  C   C5        1.0  0.41773  0.29034  0.81406  1.0000
  C   C6        1.0  0.91781  0.81404  0.29035  1.0000
  C   C7        1.0  0.44670  0.19040  0.88909  1.0000
  C   C8        1.0  0.94679  0.88908  0.19041  1.0000
  C   C9        1.0  0.65066  0.11573  0.87587  1.0000
  C   C10       1.0  0.15075  0.87585  0.11573  1.0000
  C   C11       1.0  0.82050  0.14344  0.78929  1.0000
  C   C12       1.0  0.32057  0.78927  0.14342  1.0000
  C   C13       1.0  0.83339  0.02837  0.50818  1.0000
  C   C14       1.0  0.33335  0.50820  0.02838  1.0000
  C   C15       1.0  0.04059  0.96438  0.51033  1.0000
  C   C16       1.0  0.54053  0.51036  0.96439  1.0000
  C   C17       1.0  0.21448  0.98820  0.42473  1.0000
  C   C18       1.0  0.71442  0.42477  0.98821  1.0000
  C   C19       1.0  0.18279  0.07532  0.33582  1.0000
  C   C20       1.0  0.68274  0.33586  0.07532  1.0000
  C   C21       1.0  0.97648  0.14025  0.33420  1.0000
  C   C22       1.0  0.47641  0.33423  0.14024  1.0000
  C   C23       1.0  0.80221  0.11753  0.42037  1.0000
  C   C24       1.0  0.30216  0.42039  0.11753  1.0000
  C   C25       1.0  0.64320  0.00603  0.59757  1.0000
  C   C26       1.0  0.14311  0.59759  0.00604  1.0000
  C   C27       1.0  0.51559  0.87138  0.74825  1.0000
  C   C28       1.0  0.01554  0.74827  0.87139  1.0000
  Cl  Cl1       1.0  0.31847  0.35604  0.45335  1.0000
  Cl  Cl2       1.0  0.81847  0.45332  0.35608  1.0000
  Cl  Cl3       1.0  0.40346  0.67881  0.56154  1.0000
  Cl  Cl4       1.0  0.90345  0.56152  0.67883  1.0000
  O   O1        1.0  0.46336  0.07278  0.61465  1.0000
  O   O2        1.0  0.96332  0.61467  0.07279  1.0000
  O   O3        1.0  0.69069  0.90090  0.65841  1.0000
  O   O4        1.0  0.19063  0.65843  0.90091  1.0000
  F   F1        1.0  0.21544  0.36075  0.82811  1.0000
  F   F2        1.0  0.71552  0.82809  0.36077  1.0000
  F   F3        1.0  0.28165  0.16652  0.97388  1.0000
  F   F4        1.0  0.78175  0.97388  0.16653  1.0000
  F   F5        1.0  0.68158  0.01769  0.94707  1.0000
  F   F6        1.0  0.18168  0.94706  0.01768  1.0000
  F   F7        1.0  0.01649  0.06831  0.78062  1.0000
  F   F8        1.0  0.51655  0.78058  0.06830  1.0000
