data_image0
_chemical_formula_structural       Cu2H48C44N12O12
_chemical_formula_sum              "Cu2 H48 C44 N12 O12"
_cell_length_a       8.49029
_cell_length_b       12.0352
_cell_length_c       12.143
_cell_angle_alpha    112.549
_cell_angle_beta     90
_cell_angle_gamma    90

_space_group_name_H-M_alt    "P 1"
_space_group_IT_number       1

loop_
  _space_group_symop_operation_xyz
  'x, y, z'

loop_
  _atom_site_type_symbol
  _atom_site_label
  _atom_site_symmetry_multiplicity
  _atom_site_fract_x
  _atom_site_fract_y
  _atom_site_fract_z
  _atom_site_occupancy
  Cu  Cu1       1.0  1.00000  0.50000  0.00000  1.0000
  Cu  Cu2       1.0  0.50000  0.50000  0.50000  1.0000
  H   H1        1.0  0.05513  0.57830  0.79257  1.0000
  H   H2        1.0  0.55512  0.42170  0.70743  1.0000
  H   H3        1.0  0.94487  0.42170  0.20743  1.0000
  H   H4        1.0  0.44488  0.57830  0.29257  1.0000
  H   H5        1.0  0.88719  0.52635  0.81322  1.0000
  H   H6        1.0  0.38719  0.47365  0.68677  1.0000
  H   H7        1.0  0.11281  0.47365  0.18678  1.0000
  H   H8        1.0  0.61281  0.52635  0.31323  1.0000
  H   H9        1.0  0.20770  0.40706  0.78394  1.0000
  H   H10       1.0  0.70770  0.59293  0.71606  1.0000
  H   H11       1.0  0.79230  0.59294  0.21606  1.0000
  H   H12       1.0  0.29230  0.40707  0.28394  1.0000
  H   H13       1.0  0.93049  0.25324  0.96781  1.0000
  H   H14       1.0  0.43049  0.74676  0.53219  1.0000
  H   H15       1.0  0.06951  0.74676  0.03219  1.0000
  H   H16       1.0  0.56951  0.25324  0.46781  1.0000
  H   H17       1.0  0.27327  0.20966  0.62807  1.0000
  H   H18       1.0  0.77327  0.79034  0.87193  1.0000
  H   H19       1.0  0.72673  0.79034  0.37193  1.0000
  H   H20       1.0  0.22673  0.20966  0.12807  1.0000
  H   H21       1.0  0.97407  0.04671  0.81362  1.0000
  H   H22       1.0  0.47407  0.95329  0.68639  1.0000
  H   H23       1.0  0.02593  0.95329  0.18638  1.0000
  H   H24       1.0  0.52593  0.04671  0.31361  1.0000
  H   H25       1.0  0.30273  0.00683  0.46880  1.0000
  H   H26       1.0  0.80273  0.99317  0.03120  1.0000
  H   H27       1.0  0.69727  0.99317  0.53120  1.0000
  H   H28       1.0  0.19727  0.00683  0.96880  1.0000
  H   H29       1.0  0.23270  0.76373  0.36075  1.0000
  H   H30       1.0  0.73270  0.23627  0.13925  1.0000
  H   H31       1.0  0.76730  0.23627  0.63925  1.0000
  H   H32       1.0  0.26730  0.76373  0.86075  1.0000
  H   H33       1.0  0.06958  0.62265  0.41517  1.0000
  H   H34       1.0  0.56958  0.37735  0.08483  1.0000
  H   H35       1.0  0.93042  0.37735  0.58483  1.0000
  H   H36       1.0  0.43042  0.62265  0.91517  1.0000
  H   H37       1.0  0.89301  0.69914  0.48170  1.0000
  H   H38       1.0  0.39301  0.30086  0.01830  1.0000
  H   H39       1.0  0.10699  0.30086  0.51830  1.0000
  H   H40       1.0  0.60699  0.69914  0.98170  1.0000
  H   H41       1.0  0.94237  0.58473  0.59734  1.0000
  H   H42       1.0  0.44237  0.41527  0.90266  1.0000
  H   H43       1.0  0.05763  0.41527  0.40266  1.0000
  H   H44       1.0  0.55763  0.58473  0.09734  1.0000
  H   H45       1.0  0.01904  0.72561  0.68592  1.0000
  H   H46       1.0  0.51904  0.27439  0.81408  1.0000
  H   H47       1.0  0.98097  0.27439  0.31408  1.0000
  H   H48       1.0  0.48096  0.72561  0.18592  1.0000
  C   C1        1.0  0.15929  0.32491  0.78783  1.0000
  C   C2        1.0  0.65929  0.67509  0.71217  1.0000
  C   C3        1.0  0.84071  0.67509  0.21217  1.0000
  C   C4        1.0  0.34071  0.32492  0.28783  1.0000
  C   C5        1.0  0.00304  0.23840  0.88967  1.0000
  C   C6        1.0  0.50304  0.76160  0.61033  1.0000
  C   C7        1.0  0.99696  0.76160  0.11033  1.0000
  C   C8        1.0  0.49696  0.23840  0.38967  1.0000
  C   C9        1.0  0.19414  0.21323  0.70002  1.0000
  C   C10       1.0  0.69414  0.78677  0.79998  1.0000
  C   C11       1.0  0.80586  0.78677  0.29998  1.0000
  C   C12       1.0  0.30586  0.21323  0.20002  1.0000
  C   C13       1.0  0.02969  0.12440  0.80478  1.0000
  C   C14       1.0  0.52969  0.87560  0.69521  1.0000
  C   C15       1.0  0.97031  0.87560  0.19521  1.0000
  C   C16       1.0  0.47031  0.12440  0.30479  1.0000
  C   C17       1.0  0.12527  0.10935  0.70528  1.0000
  C   C18       1.0  0.62527  0.89065  0.79472  1.0000
  C   C19       1.0  0.87473  0.89065  0.29471  1.0000
  C   C20       1.0  0.37473  0.10935  0.20528  1.0000
  C   C21       1.0  0.14395  0.99057  0.61126  1.0000
  C   C22       1.0  0.64395  0.00943  0.88874  1.0000
  C   C23       1.0  0.85605  0.00943  0.38874  1.0000
  C   C24       1.0  0.35605  0.99057  0.11126  1.0000
  C   C25       1.0  0.22942  0.95310  0.50252  1.0000
  C   C26       1.0  0.72942  0.04690  0.99748  1.0000
  C   C27       1.0  0.77058  0.04690  0.49748  1.0000
  C   C28       1.0  0.27058  0.95310  0.00252  1.0000
  C   C29       1.0  0.19598  0.83154  0.44568  1.0000
  C   C30       1.0  0.69598  0.16846  0.05432  1.0000
  C   C31       1.0  0.80403  0.16846  0.55432  1.0000
  C   C32       1.0  0.30402  0.83154  0.94568  1.0000
  C   C33       1.0  0.01856  0.68833  0.49722  1.0000
  C   C34       1.0  0.51856  0.31167  0.00279  1.0000
  C   C35       1.0  0.98144  0.31167  0.50278  1.0000
  C   C36       1.0  0.48143  0.68833  0.99722  1.0000
  C   C37       1.0  0.03681  0.64863  0.60141  1.0000
  C   C38       1.0  0.53681  0.35137  0.89859  1.0000
  C   C39       1.0  0.96319  0.35137  0.39859  1.0000
  C   C40       1.0  0.46319  0.64863  0.10141  1.0000
  C   C41       1.0  0.19252  0.58848  0.60685  1.0000
  C   C42       1.0  0.69251  0.41151  0.89316  1.0000
  C   C43       1.0  0.80749  0.41152  0.39315  1.0000
  C   C44       1.0  0.30748  0.58848  0.10684  1.0000
  N   N1        1.0  0.06405  0.33819  0.88059  1.0000
  N   N2        1.0  0.56405  0.66180  0.61941  1.0000
  N   N3        1.0  0.93595  0.66181  0.11941  1.0000
  N   N4        1.0  0.43595  0.33820  0.38059  1.0000
  N   N5        1.0  0.06374  0.89719  0.61979  1.0000
  N   N6        1.0  0.56374  0.10281  0.88021  1.0000
  N   N7        1.0  0.93626  0.10281  0.38021  1.0000
  N   N8        1.0  0.43626  0.89719  0.11979  1.0000
  N   N9        1.0  0.09719  0.80280  0.51948  1.0000
  N   N10       1.0  0.59719  0.19720  0.98052  1.0000
  N   N11       1.0  0.90281  0.19721  0.48052  1.0000
  N   N12       1.0  0.40281  0.80279  0.01948  1.0000
  O   O1        1.0  0.77743  0.44375  0.98722  1.0000
  O   O2        1.0  0.27743  0.55625  0.51278  1.0000
  O   O3        1.0  0.22257  0.55625  0.01278  1.0000
  O   O4        1.0  0.72257  0.44375  0.48722  1.0000
  O   O5        1.0  0.96433  0.59249  0.84736  1.0000
  O   O6        1.0  0.46433  0.40750  0.65264  1.0000
  O   O7        1.0  0.03567  0.40751  0.15264  1.0000
  O   O8        1.0  0.53567  0.59250  0.34736  1.0000
  O   O9        1.0  0.22565  0.57228  0.70154  1.0000
  O   O10       1.0  0.72565  0.42772  0.79846  1.0000
  O   O11       1.0  0.77436  0.42772  0.29846  1.0000
  O   O12       1.0  0.27435  0.57228  0.20154  1.0000
