data_image0
_chemical_formula_structural       Co2H48C44N12O12
_chemical_formula_sum              "Co2 H48 C44 N12 O12"
_cell_length_a       8.41196
_cell_length_b       11.4729
_cell_length_c       12.219
_cell_angle_alpha    112.014
_cell_angle_beta     90
_cell_angle_gamma    90

_space_group_name_H-M_alt    "P 1"
_space_group_IT_number       1

loop_
  _space_group_symop_operation_xyz
  'x, y, z'

loop_
  _atom_site_type_symbol
  _atom_site_label
  _atom_site_symmetry_multiplicity
  _atom_site_fract_x
  _atom_site_fract_y
  _atom_site_fract_z
  _atom_site_occupancy
  Co  Co1       1.0  1.00000  0.99999  0.99998  1.0000
  Co  Co2       1.0  0.49998  0.50002  0.00002  1.0000
  H   H1        1.0  0.92028  0.01876  0.23412  1.0000
  H   H2        1.0  0.42019  0.48118  0.76592  1.0000
  H   H3        1.0  0.07973  0.98120  0.76584  1.0000
  H   H4        1.0  0.57976  0.51884  0.23410  1.0000
  H   H5        1.0  0.96320  0.16856  0.43898  1.0000
  H   H6        1.0  0.46299  0.33131  0.56099  1.0000
  H   H7        1.0  0.03684  0.83140  0.56098  1.0000
  H   H8        1.0  0.53700  0.66872  0.43903  1.0000
  H   H9        1.0  0.27546  0.37624  0.29631  1.0000
  H   H10       1.0  0.77552  0.12378  0.70366  1.0000
  H   H11       1.0  0.72455  0.62372  0.70365  1.0000
  H   H12       1.0  0.22448  0.87629  0.29641  1.0000
  H   H13       1.0  0.21033  0.22337  0.09814  1.0000
  H   H14       1.0  0.71046  0.27662  0.90180  1.0000
  H   H15       1.0  0.78966  0.77660  0.90182  1.0000
  H   H16       1.0  0.28950  0.72344  0.09826  1.0000
  H   H17       1.0  0.29947  0.53718  0.49532  1.0000
  H   H18       1.0  0.79960  0.96281  0.50462  1.0000
  H   H19       1.0  0.70053  0.46278  0.50464  1.0000
  H   H20       1.0  0.20043  0.03722  0.49543  1.0000
  H   H21       1.0  0.22887  0.64251  0.73333  1.0000
  H   H22       1.0  0.72904  0.85754  0.26658  1.0000
  H   H23       1.0  0.77113  0.35746  0.26661  1.0000
  H   H24       1.0  0.27101  0.14250  0.73346  1.0000
  H   H25       1.0  0.88664  0.50904  0.79280  1.0000
  H   H26       1.0  0.38665  0.99081  0.20714  1.0000
  H   H27       1.0  0.11336  0.49092  0.20714  1.0000
  H   H28       1.0  0.61338  0.00921  0.79290  1.0000
  H   H29       1.0  0.06121  0.58683  0.86691  1.0000
  H   H30       1.0  0.56132  0.91321  0.13302  1.0000
  H   H31       1.0  0.93877  0.41315  0.13304  1.0000
  H   H32       1.0  0.43870  0.08680  0.86702  1.0000
  H   H33       1.0  0.02009  0.30069  0.77853  1.0000
  H   H34       1.0  0.51984  0.19931  0.22158  1.0000
  H   H35       1.0  0.97994  0.69929  0.22146  1.0000
  H   H36       1.0  0.48022  0.80070  0.77846  1.0000
  H   H37       1.0  0.94314  0.39900  0.91446  1.0000
  H   H38       1.0  0.44319  0.10098  0.08553  1.0000
  H   H39       1.0  0.05682  0.60098  0.08550  1.0000
  H   H40       1.0  0.55680  0.89904  0.91452  1.0000
  H   H41       1.0  0.93678  0.79631  0.06854  1.0000
  H   H42       1.0  0.43688  0.70385  0.93158  1.0000
  H   H43       1.0  0.06321  0.20369  0.93144  1.0000
  H   H44       1.0  0.56308  0.29615  0.06844  1.0000
  H   H45       1.0  0.11204  0.80519  0.01295  1.0000
  H   H46       1.0  0.61219  0.69477  0.98698  1.0000
  H   H47       1.0  0.88794  0.19479  0.98702  1.0000
  H   H48       1.0  0.38777  0.30526  0.01306  1.0000
  C   C1        1.0  0.99585  0.10042  0.25207  1.0000
  C   C2        1.0  0.49571  0.39950  0.74795  1.0000
  C   C3        1.0  0.00417  0.89956  0.74789  1.0000
  C   C4        1.0  0.50425  0.60052  0.25209  1.0000
  C   C5        1.0  0.02268  0.18363  0.36624  1.0000
  C   C6        1.0  0.52247  0.31628  0.63376  1.0000
  C   C7        1.0  0.97735  0.81632  0.63372  1.0000
  C   C8        1.0  0.47751  0.68375  0.36628  1.0000
  C   C9        1.0  0.12161  0.28888  0.38777  1.0000
  C   C10       1.0  0.62151  0.21107  0.61219  1.0000
  C   C11       1.0  0.87841  0.71107  0.61219  1.0000
  C   C12       1.0  0.37848  0.78896  0.38785  1.0000
  C   C13       1.0  0.19383  0.29966  0.28822  1.0000
  C   C14       1.0  0.69379  0.20030  0.71173  1.0000
  C   C15       1.0  0.80619  0.70031  0.71174  1.0000
  C   C16       1.0  0.30619  0.79974  0.28831  1.0000
  C   C17       1.0  0.15882  0.21361  0.17585  1.0000
  C   C18       1.0  0.65883  0.28636  0.82412  1.0000
  C   C19       1.0  0.84118  0.78637  0.82411  1.0000
  C   C20       1.0  0.34114  0.71369  0.17593  1.0000
  C   C21       1.0  0.13988  0.38311  0.50678  1.0000
  C   C22       1.0  0.63991  0.11684  0.49320  1.0000
  C   C23       1.0  0.86015  0.61684  0.49318  1.0000
  C   C24       1.0  0.36013  0.88320  0.50685  1.0000
  C   C25       1.0  0.22621  0.49809  0.54616  1.0000
  C   C26       1.0  0.72630  0.00190  0.45378  1.0000
  C   C27       1.0  0.77381  0.50187  0.45379  1.0000
  C   C28       1.0  0.27372  0.99814  0.54628  1.0000
  C   C29       1.0  0.19262  0.55408  0.66545  1.0000
  C   C30       1.0  0.69272  0.94592  0.33448  1.0000
  C   C31       1.0  0.80738  0.44588  0.33449  1.0000
  C   C32       1.0  0.30732  0.05411  0.66557  1.0000
  C   C33       1.0  0.01441  0.49745  0.80464  1.0000
  C   C34       1.0  0.51440  0.00251  0.19534  1.0000
  C   C35       1.0  0.98559  0.50252  0.19530  1.0000
  C   C36       1.0  0.48563  0.99750  0.80470  1.0000
  C   C37       1.0  0.03794  0.39228  0.85023  1.0000
  C   C38       1.0  0.53789  0.10775  0.14984  1.0000
  C   C39       1.0  0.96205  0.60771  0.14975  1.0000
  C   C40       1.0  0.46214  0.89225  0.85018  1.0000
  C   C41       1.0  0.19491  0.38951  0.91048  1.0000
  C   C42       1.0  0.69492  0.11055  0.08966  1.0000
  C   C43       1.0  0.80505  0.61051  0.08954  1.0000
  C   C44       1.0  0.30507  0.88943  0.91033  1.0000
  N   N1        1.0  0.05926  0.11523  0.15593  1.0000
  N   N2        1.0  0.55919  0.38469  0.84407  1.0000
  N   N3        1.0  0.94073  0.88474  0.84403  1.0000
  N   N4        1.0  0.44076  0.61534  0.15597  1.0000
  N   N5        1.0  0.05915  0.37038  0.59761  1.0000
  N   N6        1.0  0.55912  0.12957  0.40240  1.0000
  N   N7        1.0  0.94088  0.62957  0.40236  1.0000
  N   N8        1.0  0.44090  0.87045  0.59764  1.0000
  N   N9        1.0  0.09338  0.47431  0.69201  1.0000
  N   N10       1.0  0.59334  0.02565  0.30797  1.0000
  N   N11       1.0  0.90663  0.52565  0.30794  1.0000
  N   N12       1.0  0.40669  0.97437  0.69207  1.0000
  O   O1        1.0  0.27919  0.48954  0.94581  1.0000
  O   O2        1.0  0.77917  0.01049  0.05428  1.0000
  O   O3        1.0  0.72076  0.51049  0.05422  1.0000
  O   O4        1.0  0.22082  0.98950  0.94570  1.0000
  O   O5        1.0  0.22997  0.28770  0.92404  1.0000
  O   O6        1.0  0.73000  0.21233  0.07605  1.0000
  O   O7        1.0  0.77000  0.71233  0.07598  1.0000
  O   O8        1.0  0.26998  0.78765  0.92392  1.0000
  O   O9        1.0  0.03193  0.84971  0.07446  1.0000
  O   O10       1.0  0.53193  0.65034  0.92556  1.0000
  O   O11       1.0  0.96806  0.15028  0.92551  1.0000
  O   O12       1.0  0.46804  0.34968  0.07447  1.0000
