data_image0
_chemical_formula_structural       Mn2H48C44N12O12
_chemical_formula_sum              "Mn2 H48 C44 N12 O12"
_cell_length_a       8.47272
_cell_length_b       11.5937
_cell_length_c       12.455
_cell_angle_alpha    112.823
_cell_angle_beta     90
_cell_angle_gamma    90

_space_group_name_H-M_alt    "P 1"
_space_group_IT_number       1

loop_
  _space_group_symop_operation_xyz
  'x, y, z'

loop_
  _atom_site_type_symbol
  _atom_site_label
  _atom_site_symmetry_multiplicity
  _atom_site_fract_x
  _atom_site_fract_y
  _atom_site_fract_z
  _atom_site_occupancy
  Mn  Mn1       1.0  1.00000  0.00000  0.99999  1.0000
  Mn  Mn2       1.0  0.49999  0.50000  0.00001  1.0000
  H   H1        1.0  0.94300  0.80199  0.05902  1.0000
  H   H2        1.0  0.44707  0.70541  0.93726  1.0000
  H   H3        1.0  0.05700  0.19801  0.94097  1.0000
  H   H4        1.0  0.55292  0.29459  0.06275  1.0000
  H   H5        1.0  0.92297  0.38742  0.90670  1.0000
  H   H6        1.0  0.43487  0.10500  0.08284  1.0000
  H   H7        1.0  0.07703  0.61258  0.09329  1.0000
  H   H8        1.0  0.56513  0.89500  0.91717  1.0000
  H   H9        1.0  0.00806  0.29162  0.77337  1.0000
  H   H10       1.0  0.51418  0.19521  0.21913  1.0000
  H   H11       1.0  0.99193  0.70837  0.22663  1.0000
  H   H12       1.0  0.48583  0.80480  0.78088  1.0000
  H   H13       1.0  0.87360  0.49864  0.78853  1.0000
  H   H14       1.0  0.38066  0.98641  0.19329  1.0000
  H   H15       1.0  0.12640  0.50136  0.21147  1.0000
  H   H16       1.0  0.61935  0.01359  0.80672  1.0000
  H   H17       1.0  0.04174  0.57728  0.86965  1.0000
  H   H18       1.0  0.55148  0.91000  0.11427  1.0000
  H   H19       1.0  0.95826  0.42271  0.13034  1.0000
  H   H20       1.0  0.44853  0.09000  0.88574  1.0000
  H   H21       1.0  0.22161  0.63594  0.74610  1.0000
  H   H22       1.0  0.72561  0.84799  0.23901  1.0000
  H   H23       1.0  0.77840  0.36405  0.25389  1.0000
  H   H24       1.0  0.27440  0.15201  0.76100  1.0000
  H   H25       1.0  0.29773  0.53732  0.51206  1.0000
  H   H26       1.0  0.79999  0.94586  0.47361  1.0000
  H   H27       1.0  0.70227  0.46267  0.48793  1.0000
  H   H28       1.0  0.20002  0.05414  0.52640  1.0000
  H   H29       1.0  0.96702  0.16725  0.44035  1.0000
  H   H30       1.0  0.47641  0.31886  0.54306  1.0000
  H   H31       1.0  0.03296  0.83275  0.55964  1.0000
  H   H32       1.0  0.52361  0.68115  0.45694  1.0000
  H   H33       1.0  0.92489  0.02131  0.23673  1.0000
  H   H34       1.0  0.43995  0.46718  0.74877  1.0000
  H   H35       1.0  0.07510  0.97869  0.76326  1.0000
  H   H36       1.0  0.56003  0.53282  0.25123  1.0000
  H   H37       1.0  0.26531  0.38557  0.30900  1.0000
  H   H38       1.0  0.76398  0.09269  0.67265  1.0000
  H   H39       1.0  0.73469  0.61442  0.69099  1.0000
  H   H40       1.0  0.23602  0.90732  0.32736  1.0000
  H   H41       1.0  0.20461  0.23553  0.11123  1.0000
  H   H42       1.0  0.70772  0.24604  0.87230  1.0000
  H   H43       1.0  0.79540  0.76446  0.88876  1.0000
  H   H44       1.0  0.29227  0.75396  0.12771  1.0000
  H   H45       1.0  0.12255  0.81075  0.00841  1.0000
  H   H46       1.0  0.62713  0.69142  0.98373  1.0000
  H   H47       1.0  0.87745  0.18925  0.99159  1.0000
  H   H48       1.0  0.37286  0.30858  0.01628  1.0000
  C   C1        1.0  0.17277  0.38493  0.91112  1.0000
  C   C2        1.0  0.68567  0.11177  0.08571  1.0000
  C   C3        1.0  0.82723  0.61508  0.08888  1.0000
  C   C4        1.0  0.31432  0.88823  0.91428  1.0000
  C   C5        1.0  0.02020  0.38259  0.84648  1.0000
  C   C6        1.0  0.53008  0.10678  0.14350  1.0000
  C   C7        1.0  0.97980  0.61741  0.15351  1.0000
  C   C8        1.0  0.46993  0.89322  0.85651  1.0000
  C   C9        1.0  0.99949  0.48849  0.80428  1.0000
  C   C10       1.0  0.50718  0.99747  0.18033  1.0000
  C   C11       1.0  0.00051  0.51151  0.19571  1.0000
  C   C12       1.0  0.49283  0.00254  0.81967  1.0000
  C   C13       1.0  0.18595  0.54931  0.67624  1.0000
  C   C14       1.0  0.68916  0.93399  0.30917  1.0000
  C   C15       1.0  0.81405  0.45069  0.32376  1.0000
  C   C16       1.0  0.31085  0.06601  0.69084  1.0000
  C   C17       1.0  0.22248  0.49682  0.55870  1.0000
  C   C18       1.0  0.72489  0.98622  0.42677  1.0000
  C   C19       1.0  0.77752  0.50317  0.44129  1.0000
  C   C20       1.0  0.27512  0.01379  0.57324  1.0000
  C   C21       1.0  0.13600  0.38285  0.51409  1.0000
  C   C22       1.0  0.63914  0.10036  0.47067  1.0000
  C   C23       1.0  0.86399  0.61714  0.48591  1.0000
  C   C24       1.0  0.36087  0.89964  0.52933  1.0000
  C   C25       1.0  0.11960  0.29161  0.39490  1.0000
  C   C26       1.0  0.62376  0.19222  0.58949  1.0000
  C   C27       1.0  0.88039  0.70838  0.60509  1.0000
  C   C28       1.0  0.37625  0.80779  0.41052  1.0000
  C   C29       1.0  0.02442  0.18473  0.36993  1.0000
  C   C30       1.0  0.53264  0.30091  0.61365  1.0000
  C   C31       1.0  0.97557  0.81527  0.63006  1.0000
  C   C32       1.0  0.46737  0.69910  0.38635  1.0000
  C   C33       1.0  0.99866  0.10351  0.25613  1.0000
  C   C34       1.0  0.51052  0.38272  0.72800  1.0000
  C   C35       1.0  0.00132  0.89649  0.74386  1.0000
  C   C36       1.0  0.48947  0.61729  0.27201  1.0000
  C   C37       1.0  0.18830  0.30647  0.29823  1.0000
  C   C38       1.0  0.69136  0.17444  0.68481  1.0000
  C   C39       1.0  0.81170  0.69353  0.70176  1.0000
  C   C40       1.0  0.30865  0.82556  0.31520  1.0000
  C   C41       1.0  0.15521  0.22187  0.18611  1.0000
  C   C42       1.0  0.66045  0.26030  0.79692  1.0000
  C   C43       1.0  0.84479  0.77812  0.81388  1.0000
  C   C44       1.0  0.33955  0.73970  0.20309  1.0000
  N   N1        1.0  0.05972  0.12066  0.16217  1.0000
  N   N2        1.0  0.57118  0.36314  0.81983  1.0000
  N   N3        1.0  0.94028  0.87933  0.83783  1.0000
  N   N4        1.0  0.42882  0.63686  0.18018  1.0000
  N   N5        1.0  0.05248  0.36729  0.60020  1.0000
  N   N6        1.0  0.55638  0.11626  0.38462  1.0000
  N   N7        1.0  0.94752  0.63270  0.39979  1.0000
  N   N8        1.0  0.44364  0.88374  0.61539  1.0000
  N   N9        1.0  0.08505  0.46854  0.69688  1.0000
  N   N10       1.0  0.58906  0.01511  0.28841  1.0000
  N   N11       1.0  0.91495  0.53146  0.30311  1.0000
  N   N12       1.0  0.41096  0.98489  0.71160  1.0000
  O   O1        1.0  0.26049  0.48059  0.93854  1.0000
  O   O2        1.0  0.77753  0.01718  0.05736  1.0000
  O   O3        1.0  0.73950  0.51942  0.06147  1.0000
  O   O4        1.0  0.22246  0.98282  0.94264  1.0000
  O   O5        1.0  0.20242  0.28991  0.93666  1.0000
  O   O6        1.0  0.71377  0.21066  0.06644  1.0000
  O   O7        1.0  0.79759  0.71009  0.06333  1.0000
  O   O8        1.0  0.28623  0.78934  0.93356  1.0000
  O   O9        1.0  0.03368  0.85876  0.06021  1.0000
  O   O10       1.0  0.53626  0.64742  0.93354  1.0000
  O   O11       1.0  0.96632  0.14124  0.93978  1.0000
  O   O12       1.0  0.46373  0.35258  0.06648  1.0000
