data_image0
_chemical_formula_structural       Ni2H48C44N12O12
_chemical_formula_sum              "Ni2 H48 C44 N12 O12"
_cell_length_a       8.59663
_cell_length_b       11.5396
_cell_length_c       12.113
_cell_angle_alpha    111.421
_cell_angle_beta     90
_cell_angle_gamma    90

_space_group_name_H-M_alt    "P 1"
_space_group_IT_number       1

loop_
  _space_group_symop_operation_xyz
  'x, y, z'

loop_
  _atom_site_type_symbol
  _atom_site_label
  _atom_site_symmetry_multiplicity
  _atom_site_fract_x
  _atom_site_fract_y
  _atom_site_fract_z
  _atom_site_occupancy
  Ni  Ni1       1.0  0.00000  0.50000  1.00000  1.0000
  Ni  Ni2       1.0  0.50000  0.00000  0.00000  1.0000
  H   H1        1.0  0.93521  0.30167  0.06163  1.0000
  H   H2        1.0  0.43522  0.19833  0.93837  1.0000
  H   H3        1.0  0.06478  0.69833  0.93837  1.0000
  H   H4        1.0  0.56479  0.80167  0.06163  1.0000
  H   H5        1.0  0.92725  0.52725  0.24547  1.0000
  H   H6        1.0  0.42725  0.97275  0.75453  1.0000
  H   H7        1.0  0.07275  0.47275  0.75453  1.0000
  H   H8        1.0  0.57275  0.02725  0.24547  1.0000
  H   H9        1.0  0.96919  0.67756  0.45133  1.0000
  H   H10       1.0  0.46919  0.82244  0.54867  1.0000
  H   H11       1.0  0.03081  0.32244  0.54867  1.0000
  H   H12       1.0  0.53081  0.17757  0.45133  1.0000
  H   H13       1.0  0.27494  0.88179  0.30420  1.0000
  H   H14       1.0  0.77493  0.61821  0.69580  1.0000
  H   H15       1.0  0.72506  0.11821  0.69579  1.0000
  H   H16       1.0  0.22506  0.38179  0.30420  1.0000
  H   H17       1.0  0.21151  0.72809  0.10539  1.0000
  H   H18       1.0  0.71151  0.77191  0.89461  1.0000
  H   H19       1.0  0.78849  0.27191  0.89461  1.0000
  H   H20       1.0  0.28849  0.22809  0.10539  1.0000
  H   H21       1.0  0.29709  0.04221  0.50406  1.0000
  H   H22       1.0  0.79709  0.45779  0.49594  1.0000
  H   H23       1.0  0.70291  0.95779  0.49593  1.0000
  H   H24       1.0  0.20291  0.54221  0.50407  1.0000
  H   H25       1.0  0.22471  0.14478  0.74274  1.0000
  H   H26       1.0  0.72472  0.35522  0.25726  1.0000
  H   H27       1.0  0.77529  0.85522  0.25726  1.0000
  H   H28       1.0  0.27528  0.64478  0.74274  1.0000
  H   H29       1.0  0.88832  0.01037  0.79917  1.0000
  H   H30       1.0  0.38832  0.48963  0.20083  1.0000
  H   H31       1.0  0.11168  0.98963  0.20083  1.0000
  H   H32       1.0  0.61168  0.51037  0.79917  1.0000
  H   H33       1.0  0.05928  0.08318  0.87707  1.0000
  H   H34       1.0  0.55928  0.41682  0.12293  1.0000
  H   H35       1.0  0.94072  0.91682  0.12293  1.0000
  H   H36       1.0  0.44072  0.58318  0.87707  1.0000
  H   H37       1.0  0.94040  0.89229  0.91703  1.0000
  H   H38       1.0  0.44040  0.60771  0.08297  1.0000
  H   H39       1.0  0.05960  0.10772  0.08297  1.0000
  H   H40       1.0  0.55960  0.39229  0.91703  1.0000
  H   H41       1.0  0.01808  0.79995  0.77925  1.0000
  H   H42       1.0  0.51808  0.70005  0.22075  1.0000
  H   H43       1.0  0.98192  0.20006  0.22075  1.0000
  H   H44       1.0  0.48192  0.29995  0.77925  1.0000
  H   H45       1.0  0.11347  0.31193  0.01501  1.0000
  H   H46       1.0  0.61347  0.18807  0.98499  1.0000
  H   H47       1.0  0.88654  0.68807  0.98499  1.0000
  H   H48       1.0  0.38654  0.81193  0.01501  1.0000
  C   C1        1.0  0.00235  0.60777  0.26281  1.0000
  C   C2        1.0  0.50235  0.89223  0.73719  1.0000
  C   C3        1.0  0.99765  0.39223  0.73719  1.0000
  C   C4        1.0  0.49765  0.10777  0.26281  1.0000
  C   C5        1.0  0.02786  0.69074  0.37715  1.0000
  C   C6        1.0  0.52785  0.80926  0.62285  1.0000
  C   C7        1.0  0.97214  0.30926  0.62285  1.0000
  C   C8        1.0  0.47214  0.19074  0.37715  1.0000
  C   C9        1.0  0.12485  0.79465  0.39665  1.0000
  C   C10       1.0  0.62485  0.70535  0.60335  1.0000
  C   C11       1.0  0.87514  0.20535  0.60335  1.0000
  C   C12       1.0  0.37514  0.29465  0.39665  1.0000
  C   C13       1.0  0.19594  0.80538  0.29652  1.0000
  C   C14       1.0  0.69593  0.69462  0.70348  1.0000
  C   C15       1.0  0.80406  0.19462  0.70348  1.0000
  C   C16       1.0  0.30406  0.30538  0.29652  1.0000
  C   C17       1.0  0.16181  0.71902  0.18449  1.0000
  C   C18       1.0  0.66181  0.78098  0.81551  1.0000
  C   C19       1.0  0.83819  0.28098  0.81551  1.0000
  C   C20       1.0  0.33819  0.21902  0.18449  1.0000
  C   C21       1.0  0.14176  0.88851  0.51532  1.0000
  C   C22       1.0  0.64176  0.61149  0.48468  1.0000
  C   C23       1.0  0.85824  0.11149  0.48468  1.0000
  C   C24       1.0  0.35824  0.38851  0.51532  1.0000
  C   C25       1.0  0.22475  0.00293  0.55496  1.0000
  C   C26       1.0  0.72475  0.49707  0.44504  1.0000
  C   C27       1.0  0.77525  0.99707  0.44504  1.0000
  C   C28       1.0  0.27525  0.50293  0.55496  1.0000
  C   C29       1.0  0.18979  0.05757  0.67451  1.0000
  C   C30       1.0  0.68979  0.44243  0.32549  1.0000
  C   C31       1.0  0.81021  0.94243  0.32549  1.0000
  C   C32       1.0  0.31021  0.55757  0.67451  1.0000
  C   C33       1.0  0.01255  0.99702  0.81197  1.0000
  C   C34       1.0  0.51255  0.50298  0.18803  1.0000
  C   C35       1.0  0.98744  0.00298  0.18803  1.0000
  C   C36       1.0  0.48744  0.49702  0.81197  1.0000
  C   C37       1.0  0.03366  0.88873  0.85368  1.0000
  C   C38       1.0  0.53366  0.61127  0.14632  1.0000
  C   C39       1.0  0.96634  0.11128  0.14632  1.0000
  C   C40       1.0  0.46634  0.38872  0.85368  1.0000
  C   C41       1.0  0.18798  0.88678  0.91432  1.0000
  C   C42       1.0  0.68798  0.61322  0.08568  1.0000
  C   C43       1.0  0.81202  0.11322  0.08569  1.0000
  C   C44       1.0  0.31202  0.38678  0.91432  1.0000
  N   N1        1.0  0.06532  0.62200  0.16639  1.0000
  N   N2        1.0  0.56532  0.87800  0.83361  1.0000
  N   N3        1.0  0.93467  0.37800  0.83361  1.0000
  N   N4        1.0  0.43468  0.12200  0.16639  1.0000
  N   N5        1.0  0.06171  0.87480  0.60585  1.0000
  N   N6        1.0  0.56171  0.62520  0.39415  1.0000
  N   N7        1.0  0.93829  0.12520  0.39415  1.0000
  N   N8        1.0  0.43829  0.37480  0.60585  1.0000
  N   N9        1.0  0.09278  0.97745  0.70049  1.0000
  N   N10       1.0  0.59278  0.52255  0.29951  1.0000
  N   N11       1.0  0.90722  0.02255  0.29951  1.0000
  N   N12       1.0  0.40722  0.47745  0.70049  1.0000
  O   O1        1.0  0.22110  0.78808  0.93451  1.0000
  O   O2        1.0  0.72110  0.71192  0.06549  1.0000
  O   O3        1.0  0.77891  0.21192  0.06549  1.0000
  O   O4        1.0  0.27891  0.28808  0.93451  1.0000
  O   O5        1.0  0.27219  0.98360  0.94272  1.0000
  O   O6        1.0  0.77219  0.51640  0.05728  1.0000
  O   O7        1.0  0.72781  0.01640  0.05728  1.0000
  O   O8        1.0  0.22781  0.48360  0.94272  1.0000
  O   O9        1.0  0.02629  0.35757  0.06773  1.0000
  O   O10       1.0  0.52629  0.14243  0.93227  1.0000
  O   O11       1.0  0.97371  0.64243  0.93227  1.0000
  O   O12       1.0  0.47371  0.85757  0.06773  1.0000
