data_image0
_chemical_formula_structural       ZnH16C18N14O2
_chemical_formula_sum              "Zn1 H16 C18 N14 O2"
_cell_length_a       7.39019
_cell_length_b       7.59983
_cell_length_c       9.3963
_cell_angle_alpha    99.282
_cell_angle_beta     97.1518
_cell_angle_gamma    110.427

_space_group_name_H-M_alt    "P 1"
_space_group_IT_number       1

loop_
  _space_group_symop_operation_xyz
  'x, y, z'

loop_
  _atom_site_type_symbol
  _atom_site_label
  _atom_site_symmetry_multiplicity
  _atom_site_fract_x
  _atom_site_fract_y
  _atom_site_fract_z
  _atom_site_occupancy
  Zn  Zn1       1.0  0.50000  0.50000  0.50000  1.0000
  H   H1        1.0  0.73260  0.88134  0.47003  1.0000
  H   H2        1.0  0.26740  0.11866  0.52997  1.0000
  H   H3        1.0  0.81488  0.73386  0.38612  1.0000
  H   H4        1.0  0.18512  0.26614  0.61388  1.0000
  H   H5        1.0  0.38128  0.04795  0.28073  1.0000
  H   H6        1.0  0.61871  0.95205  0.71927  1.0000
  H   H7        1.0  0.46746  0.58260  0.17488  1.0000
  H   H8        1.0  0.53254  0.41741  0.82513  1.0000
  H   H9        1.0  0.10236  0.08876  0.81672  1.0000
  H   H10       1.0  0.89764  0.91124  0.18328  1.0000
  H   H11       1.0  0.92242  0.78187  0.63367  1.0000
  H   H12       1.0  0.07758  0.21813  0.36633  1.0000
  H   H13       1.0  0.15567  0.48118  0.91128  1.0000
  H   H14       1.0  0.84433  0.51882  0.08872  1.0000
  H   H15       1.0  0.33718  0.78770  0.09415  1.0000
  H   H16       1.0  0.66283  0.21230  0.90585  1.0000
  C   C1        1.0  0.38457  0.15894  0.22072  1.0000
  C   C2        1.0  0.61543  0.84106  0.77928  1.0000
  C   C3        1.0  0.42306  0.42871  0.16390  1.0000
  C   C4        1.0  0.57695  0.57129  0.83610  1.0000
  C   C5        1.0  0.22691  0.95554  0.96735  1.0000
  C   C6        1.0  0.77309  0.04446  0.03265  1.0000
  C   C7        1.0  0.11349  0.95541  0.83675  1.0000
  C   C8        1.0  0.88651  0.04459  0.16325  1.0000
  C   C9        1.0  0.01237  0.78294  0.73481  1.0000
  C   C10       1.0  0.98763  0.21707  0.26519  1.0000
  C   C11       1.0  0.02247  0.60979  0.76100  1.0000
  C   C12       1.0  0.97753  0.39021  0.23900  1.0000
  C   C13       1.0  0.14324  0.61390  0.89060  1.0000
  C   C14       1.0  0.85676  0.38610  0.10940  1.0000
  C   C15       1.0  0.24468  0.78576  0.99372  1.0000
  C   C16       1.0  0.75532  0.21424  0.00628  1.0000
  C   C17       1.0  0.90482  0.42674  0.65820  1.0000
  C   C18       1.0  0.09518  0.57326  0.34180  1.0000
  N   N1        1.0  0.44932  0.34680  0.28001  1.0000
  N   N2        1.0  0.55068  0.65320  0.72000  1.0000
  N   N3        1.0  0.34465  0.30272  0.03686  1.0000
  N   N4        1.0  0.65535  0.69728  0.96314  1.0000
  N   N5        1.0  0.32053  0.13053  0.07451  1.0000
  N   N6        1.0  0.67947  0.86947  0.92549  1.0000
  N   N7        1.0  0.73307  0.38744  0.56467  1.0000
  N   N8        1.0  0.26693  0.61256  0.43533  1.0000
  N   N9        1.0  0.67059  0.20043  0.49821  1.0000
  N   N10       1.0  0.32941  0.79957  0.50179  1.0000
  N   N11       1.0  0.79809  0.12950  0.54780  1.0000
  N   N12       1.0  0.20191  0.87050  0.45220  1.0000
  N   N13       1.0  0.94791  0.26723  0.64838  1.0000
  N   N14       1.0  0.05209  0.73277  0.35162  1.0000
  O   O1        1.0  0.69679  0.74237  0.42293  1.0000
  O   O2        1.0  0.30321  0.25762  0.57707  1.0000
