data_image0
_chemical_formula_structural       CdH16C18N14O2
_chemical_formula_sum              "Cd1 H16 C18 N14 O2"
_cell_length_a       7.55236
_cell_length_b       7.70028
_cell_length_c       9.52116
_cell_angle_alpha    98.2638
_cell_angle_beta     97.3002
_cell_angle_gamma    111.126

_space_group_name_H-M_alt    "P 1"
_space_group_IT_number       1

loop_
  _space_group_symop_operation_xyz
  'x, y, z'

loop_
  _atom_site_type_symbol
  _atom_site_label
  _atom_site_symmetry_multiplicity
  _atom_site_fract_x
  _atom_site_fract_y
  _atom_site_fract_z
  _atom_site_occupancy
  Cd  Cd1       1.0  0.50000  0.50000  0.50000  1.0000
  H   H1        1.0  0.25843  0.11137  0.53960  1.0000
  H   H2        1.0  0.74156  0.88863  0.46040  1.0000
  H   H3        1.0  0.18003  0.25449  0.62437  1.0000
  H   H4        1.0  0.81997  0.74551  0.37563  1.0000
  H   H5        1.0  0.38162  0.03523  0.26842  1.0000
  H   H6        1.0  0.61838  0.96477  0.73158  1.0000
  H   H7        1.0  0.45878  0.56118  0.15707  1.0000
  H   H8        1.0  0.54121  0.43881  0.84293  1.0000
  H   H9        1.0  0.09160  0.06922  0.81279  1.0000
  H   H10       1.0  0.90840  0.93077  0.18721  1.0000
  H   H11       1.0  0.91712  0.76583  0.63496  1.0000
  H   H12       1.0  0.08287  0.23416  0.36504  1.0000
  H   H13       1.0  0.15784  0.47503  0.90972  1.0000
  H   H14       1.0  0.84217  0.52497  0.09028  1.0000
  H   H15       1.0  0.33500  0.77887  0.08687  1.0000
  H   H16       1.0  0.66501  0.22113  0.91312  1.0000
  C   C1        1.0  0.38188  0.14426  0.20804  1.0000
  C   C2        1.0  0.61812  0.85574  0.79196  1.0000
  C   C3        1.0  0.41540  0.40922  0.14856  1.0000
  C   C4        1.0  0.58459  0.59079  0.85144  1.0000
  C   C5        1.0  0.21986  0.94087  0.96131  1.0000
  C   C6        1.0  0.78014  0.05913  0.03869  1.0000
  C   C7        1.0  0.10451  0.93854  0.83354  1.0000
  C   C8        1.0  0.89549  0.06146  0.16646  1.0000
  C   C9        1.0  0.00660  0.76782  0.73469  1.0000
  C   C10       1.0  0.99340  0.23218  0.26531  1.0000
  C   C11       1.0  0.02143  0.59865  0.76163  1.0000
  C   C12       1.0  0.97857  0.40135  0.23838  1.0000
  C   C13       1.0  0.14266  0.60487  0.88872  1.0000
  C   C14       1.0  0.85734  0.39513  0.11128  1.0000
  C   C15       1.0  0.24137  0.77513  0.98856  1.0000
  C   C16       1.0  0.75864  0.22487  0.01143  1.0000
  C   C17       1.0  0.90806  0.41809  0.66100  1.0000
  C   C18       1.0  0.09194  0.58191  0.33901  1.0000
  N   N1        1.0  0.44672  0.32982  0.26367  1.0000
  N   N2        1.0  0.55327  0.67018  0.73633  1.0000
  N   N3        1.0  0.33433  0.28391  0.02513  1.0000
  N   N4        1.0  0.66567  0.71610  0.97487  1.0000
  N   N5        1.0  0.31313  0.11448  0.06447  1.0000
  N   N6        1.0  0.68687  0.88553  0.93553  1.0000
  N   N7        1.0  0.74081  0.38095  0.56862  1.0000
  N   N8        1.0  0.25919  0.61905  0.43138  1.0000
  N   N9        1.0  0.67962  0.19830  0.50017  1.0000
  N   N10       1.0  0.32038  0.80170  0.49983  1.0000
  N   N11       1.0  0.80437  0.12768  0.54831  1.0000
  N   N12       1.0  0.19563  0.87232  0.45169  1.0000
  N   N13       1.0  0.95019  0.26127  0.64950  1.0000
  N   N14       1.0  0.04981  0.73873  0.35050  1.0000
  O   O1        1.0  0.29825  0.24563  0.59324  1.0000
  O   O2        1.0  0.70175  0.75437  0.40676  1.0000
