data_image0
_chemical_formula_structural       Sb4H52C24N4O8F12
_chemical_formula_sum              "Sb4 H52 C24 N4 O8 F12"
_cell_length_a       5.81186
_cell_length_b       6.15769
_cell_length_c       28.594
_cell_angle_alpha    90
_cell_angle_beta     90
_cell_angle_gamma    90

_space_group_name_H-M_alt    "P 1"
_space_group_IT_number       1

loop_
  _space_group_symop_operation_xyz
  'x, y, z'

loop_
  _atom_site_type_symbol
  _atom_site_label
  _atom_site_symmetry_multiplicity
  _atom_site_fract_x
  _atom_site_fract_y
  _atom_site_fract_z
  _atom_site_occupancy
  Sb  Sb1       1.0  0.56723  0.22246  0.70195  1.0000
  Sb  Sb2       1.0  0.93278  0.77755  0.20195  1.0000
  Sb  Sb3       1.0  0.43278  0.72245  0.79806  1.0000
  Sb  Sb4       1.0  0.06722  0.27754  0.29805  1.0000
  H   H1        1.0  0.90219  0.57201  0.59472  1.0000
  H   H2        1.0  0.59782  0.42801  0.09472  1.0000
  H   H3        1.0  0.09780  0.07200  0.90528  1.0000
  H   H4        1.0  0.40218  0.92800  0.40528  1.0000
  H   H5        1.0  0.06069  0.81705  0.58873  1.0000
  H   H6        1.0  0.43933  0.18297  0.08872  1.0000
  H   H7        1.0  0.93931  0.31704  0.91127  1.0000
  H   H8        1.0  0.56067  0.68295  0.41127  1.0000
  H   H9        1.0  0.14217  0.45849  0.66117  1.0000
  H   H10       1.0  0.35784  0.54153  0.16117  1.0000
  H   H11       1.0  0.85783  0.95848  0.83883  1.0000
  H   H12       1.0  0.64216  0.04151  0.33883  1.0000
  H   H13       1.0  0.40908  0.60381  0.56582  1.0000
  H   H14       1.0  0.09093  0.39619  0.06582  1.0000
  H   H15       1.0  0.59092  0.10382  0.93418  1.0000
  H   H16       1.0  0.90908  0.89617  0.43417  1.0000
  H   H17       1.0  0.32386  0.24464  0.60345  1.0000
  H   H18       1.0  0.17612  0.75536  0.10344  1.0000
  H   H19       1.0  0.67612  0.74464  0.89656  1.0000
  H   H20       1.0  0.82387  0.25535  0.39656  1.0000
  H   H21       1.0  0.36214  0.21339  0.54269  1.0000
  H   H22       1.0  0.13784  0.78661  0.04268  1.0000
  H   H23       1.0  0.63785  0.71340  0.95732  1.0000
  H   H24       1.0  0.86215  0.28660  0.45732  1.0000
  H   H25       1.0  0.07996  0.21312  0.56702  1.0000
  H   H26       1.0  0.42002  0.78690  0.06702  1.0000
  H   H27       1.0  0.92002  0.71312  0.93298  1.0000
  H   H28       1.0  0.57997  0.28688  0.43298  1.0000
  H   H29       1.0  0.97677  0.51905  0.50704  1.0000
  H   H30       1.0  0.52324  0.48097  0.00704  1.0000
  H   H31       1.0  0.02324  0.01905  0.99296  1.0000
  H   H32       1.0  0.47678  0.98095  0.49296  1.0000
  H   H33       1.0  0.26347  0.51016  0.48574  1.0000
  H   H34       1.0  0.23654  0.48985  0.98574  1.0000
  H   H35       1.0  0.73654  0.01017  0.01426  1.0000
  H   H36       1.0  0.76348  0.98984  0.51426  1.0000
  H   H37       1.0  0.14448  0.75946  0.50571  1.0000
  H   H38       1.0  0.35553  0.24055  0.00570  1.0000
  H   H39       1.0  0.85552  0.25947  0.99429  1.0000
  H   H40       1.0  0.64449  0.74053  0.49429  1.0000
  H   H41       1.0  0.98741  0.91746  0.66679  1.0000
  H   H42       1.0  0.51261  0.08255  0.16679  1.0000
  H   H43       1.0  0.01258  0.41746  0.83321  1.0000
  H   H44       1.0  0.48739  0.58253  0.33320  1.0000
  H   H45       1.0  0.04021  0.76049  0.71256  1.0000
  H   H46       1.0  0.45980  0.23953  0.21255  1.0000
  H   H47       1.0  0.95978  0.26049  0.78744  1.0000
  H   H48       1.0  0.54019  0.73952  0.28744  1.0000
  H   H49       1.0  0.82350  0.69533  0.67460  1.0000
  H   H50       1.0  0.67653  0.30468  0.17460  1.0000
  H   H51       1.0  0.17650  0.19533  0.82540  1.0000
  H   H52       1.0  0.32347  0.80466  0.32540  1.0000
  C   C1        1.0  0.07564  0.64314  0.59735  1.0000
  C   C2        1.0  0.42437  0.35687  0.09735  1.0000
  C   C3        1.0  0.92435  0.14314  0.90265  1.0000
  C   C4        1.0  0.57563  0.85685  0.40265  1.0000
  C   C5        1.0  0.15297  0.62620  0.64853  1.0000
  C   C6        1.0  0.34704  0.37381  0.14853  1.0000
  C   C7        1.0  0.84702  0.12619  0.85147  1.0000
  C   C8        1.0  0.65295  0.87380  0.35147  1.0000
  C   C9        1.0  0.23539  0.53343  0.56178  1.0000
  C   C10       1.0  0.26462  0.46657  0.06177  1.0000
  C   C11       1.0  0.76461  0.03344  0.93823  1.0000
  C   C12       1.0  0.73539  0.96655  0.43822  1.0000
  C   C13       1.0  0.25160  0.28819  0.56932  1.0000
  C   C14       1.0  0.24839  0.71181  0.06932  1.0000
  C   C15       1.0  0.74838  0.78820  0.93068  1.0000
  C   C16       1.0  0.75161  0.21180  0.43068  1.0000
  C   C17       1.0  0.15117  0.58389  0.51229  1.0000
  C   C18       1.0  0.34883  0.41612  0.01229  1.0000
  C   C19       1.0  0.84883  0.08390  0.98771  1.0000
  C   C20       1.0  0.65118  0.91610  0.48771  1.0000
  C   C21       1.0  0.39647  0.71707  0.65479  1.0000
  C   C22       1.0  0.10355  0.28292  0.15478  1.0000
  C   C23       1.0  0.60353  0.21706  0.84522  1.0000
  C   C24       1.0  0.89644  0.78290  0.34521  1.0000
  N   N1        1.0  0.99218  0.75717  0.67774  1.0000
  N   N2        1.0  0.50783  0.24284  0.17774  1.0000
  N   N3        1.0  0.00781  0.25717  0.82226  1.0000
  N   N4        1.0  0.49216  0.74283  0.32226  1.0000
  O   O1        1.0  0.41637  0.92066  0.65207  1.0000
  O   O2        1.0  0.08366  0.07934  0.15208  1.0000
  O   O3        1.0  0.58363  0.42066  0.84793  1.0000
  O   O4        1.0  0.91633  0.57934  0.34792  1.0000
  O   O5        1.0  0.56295  0.58407  0.66083  1.0000
  O   O6        1.0  0.93706  0.41592  0.16082  1.0000
  O   O7        1.0  0.43705  0.08407  0.83918  1.0000
  O   O8        1.0  0.06294  0.91591  0.33917  1.0000
  F   F1        1.0  0.70059  0.97914  0.74108  1.0000
  F   F2        1.0  0.79943  0.02090  0.24107  1.0000
  F   F3        1.0  0.29943  0.47911  0.75893  1.0000
  F   F4        1.0  0.20058  0.52087  0.25893  1.0000
  F   F5        1.0  0.77783  0.40530  0.74127  1.0000
  F   F6        1.0  0.72217  0.59472  0.24127  1.0000
  F   F7        1.0  0.22219  0.90529  0.75873  1.0000
  F   F8        1.0  0.27783  0.09470  0.25873  1.0000
  F   F9        1.0  0.83482  0.18812  0.65956  1.0000
  F   F10       1.0  0.66520  0.81188  0.15956  1.0000
  F   F11       1.0  0.16519  0.68812  0.84044  1.0000
  F   F12       1.0  0.33480  0.31186  0.34044  1.0000
