data_image0
_chemical_formula_structural       Cd4H12C18N14Cl6
_chemical_formula_sum              "Cd4 H12 C18 N14 Cl6"
_cell_length_a       6.87433
_cell_length_b       7.38335
_cell_length_c       14.118
_cell_angle_alpha    90.0002
_cell_angle_beta     94.1715
_cell_angle_gamma    90.0001

_space_group_name_H-M_alt    "P 1"
_space_group_IT_number       1

loop_
  _space_group_symop_operation_xyz
  'x, y, z'

loop_
  _atom_site_type_symbol
  _atom_site_label
  _atom_site_symmetry_multiplicity
  _atom_site_fract_x
  _atom_site_fract_y
  _atom_site_fract_z
  _atom_site_occupancy
  Cd  Cd1       1.0  0.29299  0.87297  0.84145  1.0000
  Cd  Cd2       1.0  0.70701  0.37297  0.15855  1.0000
  Cd  Cd3       1.0  0.83516  0.11841  0.92208  1.0000
  Cd  Cd4       1.0  0.16484  0.61841  0.07792  1.0000
  H   H1        1.0  0.91386  0.51453  0.78995  1.0000
  H   H2        1.0  0.08613  0.01451  0.21005  1.0000
  H   H3        1.0  0.02383  0.47142  0.62716  1.0000
  H   H4        1.0  0.97617  0.97141  0.37284  1.0000
  H   H5        1.0  0.42605  0.38814  0.52024  1.0000
  H   H6        1.0  0.57396  0.88815  0.47976  1.0000
  H   H7        1.0  0.32077  0.41886  0.68314  1.0000
  H   H8        1.0  0.67923  0.91888  0.31686  1.0000
  H   H9        1.0  0.12432  0.42273  0.32428  1.0000
  H   H10       1.0  0.87569  0.92273  0.67572  1.0000
  H   H11       1.0  0.54856  0.30841  0.38581  1.0000
  H   H12       1.0  0.45144  0.80840  0.61419  1.0000
  C   C1        1.0  0.55292  0.48003  0.84441  1.0000
  C   C2        1.0  0.44707  0.98003  0.15559  1.0000
  C   C3        1.0  0.61032  0.47058  0.74680  1.0000
  C   C4        1.0  0.38968  0.97058  0.25320  1.0000
  C   C5        1.0  0.80841  0.48481  0.73080  1.0000
  C   C6        1.0  0.19159  0.98480  0.26920  1.0000
  C   C7        1.0  0.87042  0.46178  0.64021  1.0000
  C   C8        1.0  0.12958  0.96176  0.35979  1.0000
  C   C9        1.0  0.73384  0.42573  0.56452  1.0000
  C   C10       1.0  0.26616  0.92572  0.43548  1.0000
  C   C11       1.0  0.53450  0.41396  0.57886  1.0000
  C   C12       1.0  0.46550  0.91396  0.42114  1.0000
  C   C13       1.0  0.47400  0.43518  0.67023  1.0000
  C   C14       1.0  0.52600  0.93518  0.32976  1.0000
  C   C15       1.0  0.99476  0.40384  0.36304  1.0000
  C   C16       1.0  0.00525  0.90384  0.63697  1.0000
  C   C17       1.0  0.70128  0.34539  0.39189  1.0000
  C   C18       1.0  0.29872  0.84539  0.60811  1.0000
  N   N1        1.0  0.40478  0.57521  0.87700  1.0000
  N   N2        1.0  0.59522  0.07521  0.12300  1.0000
  N   N3        1.0  0.40729  0.53661  0.97008  1.0000
  N   N4        1.0  0.59271  0.03661  0.02992  1.0000
  N   N5        1.0  0.55089  0.42548  0.99359  1.0000
  N   N6        1.0  0.44910  0.92548  0.00641  1.0000
  N   N7        1.0  0.64480  0.38698  0.91642  1.0000
  N   N8        1.0  0.35519  0.88698  0.08358  1.0000
  N   N9        1.0  0.80099  0.40173  0.47257  1.0000
  N   N10       1.0  0.19902  0.90173  0.52743  1.0000
  N   N11       1.0  0.99062  0.43915  0.45481  1.0000
  N   N12       1.0  0.00939  0.93915  0.54519  1.0000
  N   N13       1.0  0.81979  0.34487  0.32134  1.0000
  N   N14       1.0  0.18022  0.84486  0.67866  1.0000
  Cl  Cl1       1.0  0.13731  0.19342  0.83319  1.0000
  Cl  Cl2       1.0  0.86269  0.69342  0.16681  1.0000
  Cl  Cl3       1.0  0.97662  0.76942  0.92533  1.0000
  Cl  Cl4       1.0  0.02338  0.26941  0.07466  1.0000
  Cl  Cl5       1.0  0.61482  0.99295  0.77760  1.0000
  Cl  Cl6       1.0  0.38518  0.49295  0.22240  1.0000
