data_image0
_chemical_formula_structural       Zn4H24C36N28Cl4
_chemical_formula_sum              "Zn4 H24 C36 N28 Cl4"
_cell_length_a       9.50585
_cell_length_b       10.5917
_cell_length_c       11.2035
_cell_angle_alpha    90.0001
_cell_angle_beta     94.8495
_cell_angle_gamma    90

_space_group_name_H-M_alt    "P 1"
_space_group_IT_number       1

loop_
  _space_group_symop_operation_xyz
  'x, y, z'

loop_
  _atom_site_type_symbol
  _atom_site_label
  _atom_site_symmetry_multiplicity
  _atom_site_fract_x
  _atom_site_fract_y
  _atom_site_fract_z
  _atom_site_occupancy
  Zn  Zn1       1.0  0.22374  0.08601  0.41923  1.0000
  Zn  Zn2       1.0  0.27626  0.58601  0.58077  1.0000
  Zn  Zn3       1.0  0.77626  0.91399  0.58077  1.0000
  Zn  Zn4       1.0  0.72374  0.41399  0.41923  1.0000
  H   H1        1.0  0.03959  0.16141  0.65365  1.0000
  H   H2        1.0  0.46041  0.66140  0.34635  1.0000
  H   H3        1.0  0.96041  0.83859  0.34635  1.0000
  H   H4        1.0  0.53959  0.33860  0.65365  1.0000
  H   H5        1.0  0.43580  0.98766  0.63259  1.0000
  H   H6        1.0  0.06420  0.48767  0.36741  1.0000
  H   H7        1.0  0.56420  0.01234  0.36741  1.0000
  H   H8        1.0  0.93580  0.51234  0.63259  1.0000
  H   H9        1.0  0.24489  0.96008  0.98496  1.0000
  H   H10       1.0  0.25511  0.46008  0.01504  1.0000
  H   H11       1.0  0.75511  0.03992  0.01504  1.0000
  H   H12       1.0  0.74489  0.53992  0.98496  1.0000
  H   H13       1.0  0.15945  0.00878  0.18137  1.0000
  H   H14       1.0  0.34055  0.50878  0.81863  1.0000
  H   H15       1.0  0.84055  0.99122  0.81863  1.0000
  H   H16       1.0  0.65945  0.49122  0.18137  1.0000
  H   H17       1.0  0.95810  0.34672  0.03356  1.0000
  H   H18       1.0  0.54190  0.84672  0.96644  1.0000
  H   H19       1.0  0.04190  0.65328  0.96644  1.0000
  H   H20       1.0  0.45810  0.15328  0.03356  1.0000
  H   H21       1.0  0.04610  0.29852  0.83657  1.0000
  H   H22       1.0  0.45390  0.79851  0.16343  1.0000
  H   H23       1.0  0.95390  0.70149  0.16343  1.0000
  H   H24       1.0  0.54610  0.20149  0.83657  1.0000
  C   C1        1.0  0.14218  0.11848  0.67613  1.0000
  C   C2        1.0  0.35782  0.61847  0.32387  1.0000
  C   C3        1.0  0.85782  0.88152  0.32387  1.0000
  C   C4        1.0  0.64218  0.38153  0.67613  1.0000
  C   C5        1.0  0.34320  0.02784  0.66828  1.0000
  C   C6        1.0  0.15679  0.52784  0.33172  1.0000
  C   C7        1.0  0.65679  0.97216  0.33172  1.0000
  C   C8        1.0  0.84320  0.47216  0.66828  1.0000
  C   C9        1.0  0.14908  0.12523  0.89989  1.0000
  C   C10       1.0  0.35091  0.62523  0.10011  1.0000
  C   C11       1.0  0.85092  0.87477  0.10011  1.0000
  C   C12       1.0  0.64909  0.37477  0.89989  1.0000
  C   C13       1.0  0.18239  0.04462  0.99674  1.0000
  C   C14       1.0  0.31761  0.54462  0.00326  1.0000
  C   C15       1.0  0.81761  0.95538  0.00326  1.0000
  C   C16       1.0  0.68240  0.45538  0.99674  1.0000
  C   C17       1.0  0.13370  0.07312  0.10690  1.0000
  C   C18       1.0  0.36630  0.57312  0.89310  1.0000
  C   C19       1.0  0.86630  0.92688  0.89310  1.0000
  C   C20       1.0  0.63370  0.42688  0.10691  1.0000
  C   C21       1.0  0.05219  0.18161  0.12115  1.0000
  C   C22       1.0  0.44781  0.68161  0.87885  1.0000
  C   C23       1.0  0.94781  0.81839  0.87885  1.0000
  C   C24       1.0  0.55219  0.31839  0.12115  1.0000
  C   C25       1.0  0.01964  0.26150  0.02241  1.0000
  C   C26       1.0  0.48036  0.76150  0.97759  1.0000
  C   C27       1.0  0.98036  0.73850  0.97759  1.0000
  C   C28       1.0  0.51964  0.23850  0.02241  1.0000
  C   C29       1.0  0.06802  0.23395  0.91155  1.0000
  C   C30       1.0  0.43199  0.73395  0.08845  1.0000
  C   C31       1.0  0.93198  0.76605  0.08845  1.0000
  C   C32       1.0  0.56801  0.26605  0.91155  1.0000
  C   C33       1.0  0.99951  0.21422  0.23606  1.0000
  C   C34       1.0  0.50049  0.71422  0.76394  1.0000
  C   C35       1.0  0.00049  0.78578  0.76394  1.0000
  C   C36       1.0  0.49951  0.28578  0.23606  1.0000
  N   N1        1.0  0.23072  0.07634  0.59839  1.0000
  N   N2        1.0  0.26928  0.57634  0.40161  1.0000
  N   N3        1.0  0.76928  0.92366  0.40161  1.0000
  N   N4        1.0  0.73072  0.42366  0.59839  1.0000
  N   N5        1.0  0.32929  0.03745  0.78416  1.0000
  N   N6        1.0  0.17071  0.53745  0.21584  1.0000
  N   N7        1.0  0.67071  0.96255  0.21584  1.0000
  N   N8        1.0  0.82929  0.46255  0.78416  1.0000
  N   N9        1.0  0.20076  0.09551  0.78783  1.0000
  N   N10       1.0  0.29924  0.59551  0.21217  1.0000
  N   N11       1.0  0.79924  0.90449  0.21217  1.0000
  N   N12       1.0  0.70076  0.40449  0.78783  1.0000
  N   N13       1.0  0.04838  0.17279  0.34732  1.0000
  N   N14       1.0  0.45162  0.67278  0.65268  1.0000
  N   N15       1.0  0.95162  0.82721  0.65268  1.0000
  N   N16       1.0  0.54838  0.32721  0.34732  1.0000
  N   N17       1.0  0.96976  0.22785  0.42649  1.0000
  N   N18       1.0  0.53024  0.72785  0.57351  1.0000
  N   N19       1.0  0.03024  0.77215  0.57351  1.0000
  N   N20       1.0  0.46976  0.27215  0.42649  1.0000
  N   N21       1.0  0.87730  0.29958  0.36412  1.0000
  N   N22       1.0  0.62270  0.79958  0.63588  1.0000
  N   N23       1.0  0.12270  0.70042  0.63587  1.0000
  N   N24       1.0  0.37730  0.20042  0.36412  1.0000
  N   N25       1.0  0.89194  0.29406  0.24628  1.0000
  N   N26       1.0  0.60806  0.79406  0.75372  1.0000
  N   N27       1.0  0.10806  0.70594  0.75372  1.0000
  N   N28       1.0  0.39194  0.20594  0.24628  1.0000
  Cl  Cl1       1.0  0.26344  0.89125  0.35517  1.0000
  Cl  Cl2       1.0  0.23656  0.39125  0.64483  1.0000
  Cl  Cl3       1.0  0.73656  0.10875  0.64483  1.0000
  Cl  Cl4       1.0  0.76344  0.60875  0.35517  1.0000
