data_image0
_chemical_formula_structural       Ag4H36C36N16O16
_chemical_formula_sum              "Ag4 H36 C36 N16 O16"
_cell_length_a       7.46714
_cell_length_b       10.5526
_cell_length_c       15.062
_cell_angle_alpha    90
_cell_angle_beta     90
_cell_angle_gamma    104.443

_space_group_name_H-M_alt    "P 1"
_space_group_IT_number       1

loop_
  _space_group_symop_operation_xyz
  'x, y, z'

loop_
  _atom_site_type_symbol
  _atom_site_label
  _atom_site_symmetry_multiplicity
  _atom_site_fract_x
  _atom_site_fract_y
  _atom_site_fract_z
  _atom_site_occupancy
  Ag  Ag1       1.0  0.75009  0.79121  0.34548  1.0000
  Ag  Ag2       1.0  0.74991  0.20879  0.84548  1.0000
  Ag  Ag3       1.0  0.24991  0.20879  0.65452  1.0000
  Ag  Ag4       1.0  0.25009  0.79121  0.15452  1.0000
  H   H1        1.0  0.33416  0.38029  0.86172  1.0000
  H   H2        1.0  0.16584  0.61971  0.36172  1.0000
  H   H3        1.0  0.66584  0.61971  0.13828  1.0000
  H   H4        1.0  0.83416  0.38029  0.63828  1.0000
  H   H5        1.0  0.41314  0.57112  0.96587  1.0000
  H   H6        1.0  0.08686  0.42888  0.46587  1.0000
  H   H7        1.0  0.58686  0.42888  0.03413  1.0000
  H   H8        1.0  0.91314  0.57112  0.53413  1.0000
  H   H9        1.0  0.48196  0.79858  0.90987  1.0000
  H   H10       1.0  0.01803  0.20142  0.40987  1.0000
  H   H11       1.0  0.51804  0.20142  0.09013  1.0000
  H   H12       1.0  0.98197  0.79858  0.59013  1.0000
  H   H13       1.0  0.46402  0.84672  0.74873  1.0000
  H   H14       1.0  0.03598  0.15328  0.24873  1.0000
  H   H15       1.0  0.53598  0.15328  0.25126  1.0000
  H   H16       1.0  0.96402  0.84672  0.75126  1.0000
  H   H17       1.0  0.56804  0.64851  0.50193  1.0000
  H   H18       1.0  0.93196  0.35150  0.00193  1.0000
  H   H19       1.0  0.43196  0.35149  0.49807  1.0000
  H   H20       1.0  0.06804  0.64851  0.99807  1.0000
  H   H21       1.0  0.65603  0.79756  0.56432  1.0000
  H   H22       1.0  0.84397  0.20244  0.06432  1.0000
  H   H23       1.0  0.34398  0.20244  0.43568  1.0000
  H   H24       1.0  0.15602  0.79756  0.93568  1.0000
  H   H25       1.0  0.40718  0.79204  0.39851  1.0000
  H   H26       1.0  0.09282  0.20796  0.89851  1.0000
  H   H27       1.0  0.59282  0.20797  0.60149  1.0000
  H   H28       1.0  0.90718  0.79203  0.10149  1.0000
  H   H29       1.0  0.75911  0.98797  0.47034  1.0000
  H   H30       1.0  0.74089  0.01203  0.97034  1.0000
  H   H31       1.0  0.24089  0.01203  0.52966  1.0000
  H   H32       1.0  0.25911  0.98797  0.02966  1.0000
  H   H33       1.0  0.62025  0.00796  0.37034  1.0000
  H   H34       1.0  0.87975  0.99205  0.87034  1.0000
  H   H35       1.0  0.37976  0.99205  0.62966  1.0000
  H   H36       1.0  0.12025  0.00795  0.12966  1.0000
  C   C1        1.0  0.34517  0.50773  0.74736  1.0000
  C   C2        1.0  0.15482  0.49227  0.24736  1.0000
  C   C3        1.0  0.65483  0.49227  0.25264  1.0000
  C   C4        1.0  0.84517  0.50773  0.75264  1.0000
  C   C5        1.0  0.35683  0.48063  0.83820  1.0000
  C   C6        1.0  0.14316  0.51937  0.33820  1.0000
  C   C7        1.0  0.64316  0.51937  0.16180  1.0000
  C   C8        1.0  0.85683  0.48063  0.66180  1.0000
  C   C9        1.0  0.40437  0.58742  0.89476  1.0000
  C   C10       1.0  0.09563  0.41258  0.39476  1.0000
  C   C11       1.0  0.59563  0.41258  0.10524  1.0000
  C   C12       1.0  0.90438  0.58742  0.60524  1.0000
  C   C13       1.0  0.44225  0.71796  0.86295  1.0000
  C   C14       1.0  0.05775  0.28204  0.36294  1.0000
  C   C15       1.0  0.55775  0.28204  0.13705  1.0000
  C   C16       1.0  0.94225  0.71796  0.63705  1.0000
  C   C17       1.0  0.43110  0.74691  0.77364  1.0000
  C   C18       1.0  0.06890  0.25310  0.27364  1.0000
  C   C19       1.0  0.56890  0.25310  0.22636  1.0000
  C   C20       1.0  0.93110  0.74690  0.72635  1.0000
  C   C21       1.0  0.38061  0.63858  0.71714  1.0000
  C   C22       1.0  0.11939  0.36142  0.21714  1.0000
  C   C23       1.0  0.61939  0.36142  0.28286  1.0000
  C   C24       1.0  0.88061  0.63858  0.78286  1.0000
  C   C25       1.0  0.54723  0.74513  0.51904  1.0000
  C   C26       1.0  0.95277  0.25488  0.01903  1.0000
  C   C27       1.0  0.45278  0.25488  0.48096  1.0000
  C   C28       1.0  0.04723  0.74513  0.98097  1.0000
  C   C29       1.0  0.53138  0.82554  0.43906  1.0000
  C   C30       1.0  0.96862  0.17446  0.93906  1.0000
  C   C31       1.0  0.46862  0.17446  0.56094  1.0000
  C   C32       1.0  0.03138  0.82554  0.06094  1.0000
  C   C33       1.0  0.64959  0.94582  0.42324  1.0000
  C   C34       1.0  0.85041  0.05418  0.92324  1.0000
  C   C35       1.0  0.35042  0.05418  0.57676  1.0000
  C   C36       1.0  0.14959  0.94582  0.07676  1.0000
  N   N1        1.0  0.35521  0.62395  0.62743  1.0000
  N   N2        1.0  0.14479  0.37604  0.12743  1.0000
  N   N3        1.0  0.64479  0.37605  0.37256  1.0000
  N   N4        1.0  0.85521  0.62395  0.87257  1.0000
  N   N5        1.0  0.30986  0.49821  0.60222  1.0000
  N   N6        1.0  0.19013  0.50179  0.10222  1.0000
  N   N7        1.0  0.69014  0.50179  0.39778  1.0000
  N   N8        1.0  0.80986  0.49821  0.89778  1.0000
  N   N9        1.0  0.30367  0.42679  0.67433  1.0000
  N   N10       1.0  0.19633  0.57321  0.17433  1.0000
  N   N11       1.0  0.69632  0.57321  0.32567  1.0000
  N   N12       1.0  0.80367  0.42679  0.82567  1.0000
  N   N13       1.0  0.16288  0.92735  0.33105  1.0000
  N   N14       1.0  0.33712  0.07265  0.83105  1.0000
  N   N15       1.0  0.83712  0.07264  0.66895  1.0000
  N   N16       1.0  0.66288  0.92735  0.16895  1.0000
  O   O1        1.0  0.36636  0.72042  0.56583  1.0000
  O   O2        1.0  0.13364  0.27958  0.06583  1.0000
  O   O3        1.0  0.63364  0.27958  0.43417  1.0000
  O   O4        1.0  0.86636  0.72042  0.93417  1.0000
  O   O5        1.0  0.05957  0.81519  0.30583  1.0000
  O   O6        1.0  0.44043  0.18481  0.80583  1.0000
  O   O7        1.0  0.94043  0.18480  0.69417  1.0000
  O   O8        1.0  0.55957  0.81519  0.19417  1.0000
  O   O9        1.0  0.10910  0.98948  0.39216  1.0000
  O   O10       1.0  0.39090  0.01052  0.89216  1.0000
  O   O11       1.0  0.89091  0.01052  0.60784  1.0000
  O   O12       1.0  0.60909  0.98948  0.10785  1.0000
  O   O13       1.0  0.31583  0.96963  0.29227  1.0000
  O   O14       1.0  0.18417  0.03037  0.79227  1.0000
  O   O15       1.0  0.68417  0.03036  0.70773  1.0000
  O   O16       1.0  0.81583  0.96963  0.20773  1.0000
