data_image0
_chemical_formula_structural       Cd6H48C64N12Cl8O8
_chemical_formula_sum              "Cd6 H48 C64 N12 Cl8 O8"
_cell_length_a       9.40193
_cell_length_b       11.1027
_cell_length_c       18.31
_cell_angle_alpha    102.898
_cell_angle_beta     90
_cell_angle_gamma    115.049

_space_group_name_H-M_alt    "P 1"
_space_group_IT_number       1

loop_
  _space_group_symop_operation_xyz
  'x, y, z'

loop_
  _atom_site_type_symbol
  _atom_site_label
  _atom_site_symmetry_multiplicity
  _atom_site_fract_x
  _atom_site_fract_y
  _atom_site_fract_z
  _atom_site_occupancy
  Cd  Cd1       1.0  0.32440  0.00021  0.74990  1.0000
  Cd  Cd2       1.0  0.67560  0.99979  0.25010  1.0000
  Cd  Cd3       1.0  0.25062  0.27297  0.88392  1.0000
  Cd  Cd4       1.0  0.97790  0.72716  0.61606  1.0000
  Cd  Cd5       1.0  0.74938  0.72703  0.11608  1.0000
  Cd  Cd6       1.0  0.02210  0.27285  0.38394  1.0000
  H   H1        1.0  0.20975  0.31605  0.71944  1.0000
  H   H2        1.0  0.89409  0.68413  0.78054  1.0000
  H   H3        1.0  0.79025  0.68395  0.28056  1.0000
  H   H4        1.0  0.10591  0.31587  0.21946  1.0000
  H   H5        1.0  0.04554  0.38540  0.64287  1.0000
  H   H6        1.0  0.66050  0.61472  0.85712  1.0000
  H   H7        1.0  0.95446  0.61460  0.35713  1.0000
  H   H8        1.0  0.33949  0.38527  0.14288  1.0000
  H   H9        1.0  0.81627  0.41335  0.69771  1.0000
  H   H10       1.0  0.40330  0.58664  0.80226  1.0000
  H   H11       1.0  0.18372  0.58664  0.30229  1.0000
  H   H12       1.0  0.59670  0.41336  0.19774  1.0000
  H   H13       1.0  0.75782  0.37678  0.82547  1.0000
  H   H14       1.0  0.38133  0.62329  0.67454  1.0000
  H   H15       1.0  0.24218  0.62322  0.17453  1.0000
  H   H16       1.0  0.61867  0.37671  0.32546  1.0000
  H   H17       1.0  0.72676  0.35233  0.93122  1.0000
  H   H18       1.0  0.37474  0.64775  0.56886  1.0000
  H   H19       1.0  0.27325  0.64767  0.06878  1.0000
  H   H20       1.0  0.62527  0.35225  0.43114  1.0000
  H   H21       1.0  0.70766  0.33160  0.06229  1.0000
  H   H22       1.0  0.37592  0.66798  0.43771  1.0000
  H   H23       1.0  0.29234  0.66840  0.93771  1.0000
  H   H24       1.0  0.62408  0.33202  0.56229  1.0000
  H   H25       1.0  0.90358  0.27295  0.12349  1.0000
  H   H26       1.0  0.63032  0.72642  0.37637  1.0000
  H   H27       1.0  0.09642  0.72705  0.87651  1.0000
  H   H28       1.0  0.36968  0.27358  0.62363  1.0000
  H   H29       1.0  0.11631  0.24614  0.04733  1.0000
  H   H30       1.0  0.87014  0.75377  0.45253  1.0000
  H   H31       1.0  0.88370  0.75386  0.95267  1.0000
  H   H32       1.0  0.12986  0.24623  0.54747  1.0000
  H   H33       1.0  0.88430  0.99407  0.80456  1.0000
  H   H34       1.0  0.89031  0.00585  0.69539  1.0000
  H   H35       1.0  0.11570  0.00593  0.19544  1.0000
  H   H36       1.0  0.10969  0.99414  0.30461  1.0000
  H   H37       1.0  0.84662  0.94466  0.92919  1.0000
  H   H38       1.0  0.90220  0.05501  0.57068  1.0000
  H   H39       1.0  0.15338  0.05534  0.07081  1.0000
  H   H40       1.0  0.09780  0.94499  0.42932  1.0000
  H   H41       1.0  0.58771  0.90260  0.98194  1.0000
  H   H42       1.0  0.68556  0.09730  0.51784  1.0000
  H   H43       1.0  0.41229  0.09740  0.01806  1.0000
  H   H44       1.0  0.31444  0.90270  0.48216  1.0000
  H   H45       1.0  0.38390  0.93474  0.90799  1.0000
  H   H46       1.0  0.44974  0.06565  0.59182  1.0000
  H   H47       1.0  0.61610  0.06526  0.09201  1.0000
  H   H48       1.0  0.55026  0.93435  0.40818  1.0000
  C   C1        1.0  0.10955  0.33285  0.74077  1.0000
  C   C2        1.0  0.77706  0.66726  0.75921  1.0000
  C   C3        1.0  0.89045  0.66715  0.25923  1.0000
  C   C4        1.0  0.22294  0.33274  0.24079  1.0000
  C   C5        1.0  0.01876  0.37027  0.69883  1.0000
  C   C6        1.0  0.64888  0.62982  0.80116  1.0000
  C   C7        1.0  0.98124  0.62973  0.30116  1.0000
  C   C8        1.0  0.35112  0.37018  0.19884  1.0000
  C   C9        1.0  0.89062  0.38613  0.72990  1.0000
  C   C10       1.0  0.50485  0.61386  0.77007  1.0000
  C   C11       1.0  0.10938  0.61387  0.27010  1.0000
  C   C12       1.0  0.49514  0.38613  0.22993  1.0000
  C   C13       1.0  0.85968  0.36689  0.80181  1.0000
  C   C14       1.0  0.49310  0.63316  0.69817  1.0000
  C   C15       1.0  0.14032  0.63311  0.19819  1.0000
  C   C16       1.0  0.50689  0.36683  0.30183  1.0000
  C   C17       1.0  0.95855  0.33255  0.84173  1.0000
  C   C18       1.0  0.62632  0.66749  0.65825  1.0000
  C   C19       1.0  0.04145  0.66744  0.15827  1.0000
  C   C20       1.0  0.37368  0.33251  0.34175  1.0000
  C   C21       1.0  0.93598  0.31552  0.91995  1.0000
  C   C22       1.0  0.62076  0.68452  0.58003  1.0000
  C   C23       1.0  0.06403  0.68448  0.08005  1.0000
  C   C24       1.0  0.37924  0.31549  0.41997  1.0000
  C   C25       1.0  0.81302  0.33033  0.95829  1.0000
  C   C26       1.0  0.48293  0.66968  0.54174  1.0000
  C   C27       1.0  0.18698  0.66967  0.04171  1.0000
  C   C28       1.0  0.51708  0.33033  0.45826  1.0000
  C   C29       1.0  0.80102  0.31642  0.03210  1.0000
  C   C30       1.0  0.48455  0.68325  0.46787  1.0000
  C   C31       1.0  0.19898  0.68358  0.96790  1.0000
  C   C32       1.0  0.51545  0.31676  0.53213  1.0000
  C   C33       1.0  0.91023  0.28597  0.06614  1.0000
  C   C34       1.0  0.62408  0.71352  0.43374  1.0000
  C   C35       1.0  0.08977  0.71402  0.93386  1.0000
  C   C36       1.0  0.37592  0.28648  0.56626  1.0000
  C   C37       1.0  0.02798  0.27100  0.02422  1.0000
  C   C38       1.0  0.75697  0.72882  0.47567  1.0000
  C   C39       1.0  0.97202  0.72900  0.97578  1.0000
  C   C40       1.0  0.24303  0.27118  0.52433  1.0000
  C   C41       1.0  0.49710  0.55504  0.97999  1.0000
  C   C42       1.0  0.94200  0.44499  0.52002  1.0000
  C   C43       1.0  0.50290  0.44496  0.02002  1.0000
  C   C44       1.0  0.05801  0.55501  0.47998  1.0000
  C   C45       1.0  0.65149  0.98787  0.78838  1.0000
  C   C46       1.0  0.66378  0.01223  0.71147  1.0000
  C   C47       1.0  0.34851  0.01213  0.21162  1.0000
  C   C48       1.0  0.33622  0.98777  0.28853  1.0000
  C   C49       1.0  0.77333  0.97953  0.82783  1.0000
  C   C50       1.0  0.79395  0.02037  0.67205  1.0000
  C   C51       1.0  0.22667  0.02047  0.17217  1.0000
  C   C52       1.0  0.20605  0.97963  0.32795  1.0000
  C   C53       1.0  0.75207  0.95133  0.89843  1.0000
  C   C54       1.0  0.80100  0.04848  0.60141  1.0000
  C   C55       1.0  0.24793  0.04867  0.10157  1.0000
  C   C56       1.0  0.19900  0.95152  0.39860  1.0000
  C   C57       1.0  0.61000  0.93121  0.92853  1.0000
  C   C58       1.0  0.67924  0.06880  0.57129  1.0000
  C   C59       1.0  0.39000  0.06879  0.07147  1.0000
  C   C60       1.0  0.32076  0.93120  0.42872  1.0000
  C   C61       1.0  0.49646  0.94586  0.88719  1.0000
  C   C62       1.0  0.55107  0.05437  0.61262  1.0000
  C   C63       1.0  0.50354  0.05414  0.11281  1.0000
  C   C64       1.0  0.44893  0.94562  0.38738  1.0000
  N   N1        1.0  0.08027  0.31480  0.81017  1.0000
  N   N2        1.0  0.76579  0.68531  0.68982  1.0000
  N   N3        1.0  0.91974  0.68520  0.18983  1.0000
  N   N4        1.0  0.23421  0.31469  0.31018  1.0000
  N   N5        1.0  0.04098  0.28619  0.95365  1.0000
  N   N6        1.0  0.75501  0.71381  0.54628  1.0000
  N   N7        1.0  0.95902  0.71381  0.04635  1.0000
  N   N8        1.0  0.24499  0.28619  0.45372  1.0000
  N   N9        1.0  0.51722  0.97439  0.81960  1.0000
  N   N10       1.0  0.54314  0.02588  0.68022  1.0000
  N   N11       1.0  0.48278  0.02561  0.18040  1.0000
  N   N12       1.0  0.45686  0.97412  0.31978  1.0000
  Cl  Cl1       1.0  0.15458  0.00976  0.86421  1.0000
  Cl  Cl2       1.0  0.14498  0.99039  0.63563  1.0000
  Cl  Cl3       1.0  0.84543  0.99024  0.13580  1.0000
  Cl  Cl4       1.0  0.85502  0.00961  0.36437  1.0000
  Cl  Cl5       1.0  0.44552  0.27303  0.78274  1.0000
  Cl  Cl6       1.0  0.17288  0.72729  0.71720  1.0000
  Cl  Cl7       1.0  0.55448  0.72697  0.21726  1.0000
  Cl  Cl8       1.0  0.82713  0.27271  0.28280  1.0000
  O   O1        1.0  0.59287  0.67993  0.00679  1.0000
  O   O2        1.0  0.91269  0.32006  0.49320  1.0000
  O   O3        1.0  0.40713  0.32007  0.99321  1.0000
  O   O4        1.0  0.08731  0.67994  0.50679  1.0000
  O   O5        1.0  0.39720  0.51291  0.92303  1.0000
  O   O6        1.0  0.88431  0.48719  0.57698  1.0000
  O   O7        1.0  0.60280  0.48709  0.07697  1.0000
  O   O8        1.0  0.11570  0.51281  0.42302  1.0000
