data_image0
_chemical_formula_structural       Cd4H32C52N8Cl4O8
_chemical_formula_sum              "Cd4 H32 C52 N8 Cl4 O8"
_cell_length_a       8.59737
_cell_length_b       8.65049
_cell_length_c       18.206
_cell_angle_alpha    99.8532
_cell_angle_beta     99.0956
_cell_angle_gamma    108.046

_space_group_name_H-M_alt    "P 1"
_space_group_IT_number       1

loop_
  _space_group_symop_operation_xyz
  'x, y, z'

loop_
  _atom_site_type_symbol
  _atom_site_label
  _atom_site_symmetry_multiplicity
  _atom_site_fract_x
  _atom_site_fract_y
  _atom_site_fract_z
  _atom_site_occupancy
  Cd  Cd1       1.0  0.21612  0.57952  0.55481  1.0000
  Cd  Cd2       1.0  0.02433  0.16197  0.94540  1.0000
  Cd  Cd3       1.0  0.78387  0.42048  0.44519  1.0000
  Cd  Cd4       1.0  0.97568  0.83803  0.05460  1.0000
  H   H1        1.0  0.52448  0.90220  0.53192  1.0000
  H   H2        1.0  0.37056  0.49271  0.96810  1.0000
  H   H3        1.0  0.47551  0.09780  0.46808  1.0000
  H   H4        1.0  0.62944  0.50729  0.03190  1.0000
  H   H5        1.0  0.73460  0.17836  0.60823  1.0000
  H   H6        1.0  0.57054  0.62645  0.89182  1.0000
  H   H7        1.0  0.26541  0.82163  0.39177  1.0000
  H   H8        1.0  0.42946  0.37355  0.10818  1.0000
  H   H9        1.0  0.74380  0.26110  0.74967  1.0000
  H   H10       1.0  0.51134  0.49381  0.75035  1.0000
  H   H11       1.0  0.25620  0.73890  0.25033  1.0000
  H   H12       1.0  0.48866  0.50619  0.24965  1.0000
  H   H13       1.0  0.63239  0.19227  0.86184  1.0000
  H   H14       1.0  0.32947  0.27018  0.63816  1.0000
  H   H15       1.0  0.36761  0.80773  0.13816  1.0000
  H   H16       1.0  0.67053  0.72982  0.36184  1.0000
  H   H17       1.0  0.41721  0.00556  0.91499  1.0000
  H   H18       1.0  0.08969  0.00156  0.58506  1.0000
  H   H19       1.0  0.58279  0.99444  0.08501  1.0000
  H   H20       1.0  0.91031  0.99844  0.41494  1.0000
  H   H21       1.0  0.98001  0.42201  0.66791  1.0000
  H   H22       1.0  0.75374  0.81207  0.83219  1.0000
  H   H23       1.0  0.01999  0.57799  0.33209  1.0000
  H   H24       1.0  0.24626  0.18793  0.16781  1.0000
  H   H25       1.0  0.96001  0.48715  0.80694  1.0000
  H   H26       1.0  0.67956  0.65256  0.69318  1.0000
  H   H27       1.0  0.03998  0.51285  0.19306  1.0000
  H   H28       1.0  0.32044  0.34745  0.30682  1.0000
  H   H29       1.0  0.16638  0.74970  0.89472  1.0000
  H   H30       1.0  0.85424  0.77093  0.60539  1.0000
  H   H31       1.0  0.83362  0.25030  0.10529  1.0000
  H   H32       1.0  0.14575  0.22907  0.39461  1.0000
  C   C1        1.0  0.52997  0.94567  0.59254  1.0000
  C   C2        1.0  0.35332  0.43744  0.90749  1.0000
  C   C3        1.0  0.47003  0.05433  0.40746  1.0000
  C   C4        1.0  0.64669  0.56255  0.09251  1.0000
  C   C5        1.0  0.64910  0.09910  0.63597  1.0000
  C   C6        1.0  0.46333  0.51311  0.86406  1.0000
  C   C7        1.0  0.35090  0.90090  0.36403  1.0000
  C   C8        1.0  0.53667  0.48689  0.13594  1.0000
  C   C9        1.0  0.65333  0.14435  0.71307  1.0000
  C   C10       1.0  0.43124  0.44002  0.78698  1.0000
  C   C11       1.0  0.34667  0.85565  0.28693  1.0000
  C   C12       1.0  0.56876  0.55999  0.21302  1.0000
  C   C13       1.0  0.53867  0.03797  0.74617  1.0000
  C   C14       1.0  0.29144  0.29221  0.75386  1.0000
  C   C15       1.0  0.46133  0.96203  0.25383  1.0000
  C   C16       1.0  0.70856  0.70779  0.24614  1.0000
  C   C17       1.0  0.42043  0.88725  0.69712  1.0000
  C   C18       1.0  0.18983  0.22308  0.80292  1.0000
  C   C19       1.0  0.57957  0.11275  0.30288  1.0000
  C   C20       1.0  0.81017  0.77692  0.19708  1.0000
  C   C21       1.0  0.53682  0.07801  0.82553  1.0000
  C   C22       1.0  0.25173  0.21089  0.67449  1.0000
  C   C23       1.0  0.46318  0.92199  0.17447  1.0000
  C   C24       1.0  0.74827  0.78911  0.32551  1.0000
  C   C25       1.0  0.42019  0.97476  0.85474  1.0000
  C   C26       1.0  0.11923  0.06489  0.64532  1.0000
  C   C27       1.0  0.57981  0.02524  0.14526  1.0000
  C   C28       1.0  0.88077  0.93511  0.35468  1.0000
  C   C29       1.0  0.29688  0.82361  0.80700  1.0000
  C   C30       1.0  0.01594  0.98936  0.69307  1.0000
  C   C31       1.0  0.70312  0.17640  0.19301  1.0000
  C   C32       1.0  0.98406  0.01064  0.30693  1.0000
  C   C33       1.0  0.29721  0.77739  0.72826  1.0000
  C   C34       1.0  0.04864  0.06871  0.77180  1.0000
  C   C35       1.0  0.70278  0.22261  0.27174  1.0000
  C   C36       1.0  0.95136  0.93129  0.22820  1.0000
  C   C37       1.0  0.06748  0.53444  0.70909  1.0000
  C   C38       1.0  0.82489  0.85827  0.79101  1.0000
  C   C39       1.0  0.93252  0.46556  0.29091  1.0000
  C   C40       1.0  0.17511  0.14173  0.20900  1.0000
  C   C41       1.0  0.05668  0.57123  0.78592  1.0000
  C   C42       1.0  0.78472  0.77034  0.71420  1.0000
  C   C43       1.0  0.94332  0.42877  0.21408  1.0000
  C   C44       1.0  0.21528  0.22966  0.28580  1.0000
  C   C45       1.0  0.17179  0.71582  0.83488  1.0000
  C   C46       1.0  0.88024  0.83631  0.66522  1.0000
  C   C47       1.0  0.82820  0.28418  0.16512  1.0000
  C   C48       1.0  0.11976  0.16369  0.33478  1.0000
  C   C49       1.0  0.47270  0.52446  0.46136  1.0000
  C   C50       1.0  0.06312  0.51146  0.03872  1.0000
  C   C51       1.0  0.52730  0.47554  0.53864  1.0000
  C   C52       1.0  0.93688  0.48853  0.96128  1.0000
  N   N1        1.0  0.41894  0.84455  0.62191  1.0000
  N   N2        1.0  0.22265  0.29693  0.87815  1.0000
  N   N3        1.0  0.58106  0.15545  0.37809  1.0000
  N   N4        1.0  0.77735  0.70307  0.12185  1.0000
  N   N5        1.0  0.18373  0.63424  0.68141  1.0000
  N   N6        1.0  0.95238  0.00228  0.81868  1.0000
  N   N7        1.0  0.81627  0.36576  0.31859  1.0000
  N   N8        1.0  0.04763  0.99772  0.18132  1.0000
  Cl  Cl1       1.0  0.97934  0.28733  0.51724  1.0000
  Cl  Cl2       1.0  0.76976  0.96140  0.98272  1.0000
  Cl  Cl3       1.0  0.02066  0.71267  0.48276  1.0000
  Cl  Cl4       1.0  0.23024  0.03859  0.01728  1.0000
  O   O1        1.0  0.34384  0.56729  0.45253  1.0000
  O   O2        1.0  0.11434  0.39183  0.04776  1.0000
  O   O3        1.0  0.65617  0.43271  0.54747  1.0000
  O   O4        1.0  0.88566  0.60817  0.95224  1.0000
  O   O5        1.0  0.56025  0.51753  0.41192  1.0000
  O   O6        1.0  0.10611  0.64821  0.08808  1.0000
  O   O7        1.0  0.43976  0.48247  0.58808  1.0000
  O   O8        1.0  0.89389  0.35179  0.91192  1.0000
