data_image0
_chemical_formula_structural       Mn2H28C30N4O8
_chemical_formula_sum              "Mn2 H28 C30 N4 O8"
_cell_length_a       8.04778
_cell_length_b       9.55232
_cell_length_c       10.1185
_cell_angle_alpha    107.885
_cell_angle_beta     95.1672
_cell_angle_gamma    104.962

_space_group_name_H-M_alt    "P 1"
_space_group_IT_number       1

loop_
  _space_group_symop_operation_xyz
  'x, y, z'

loop_
  _atom_site_type_symbol
  _atom_site_label
  _atom_site_symmetry_multiplicity
  _atom_site_fract_x
  _atom_site_fract_y
  _atom_site_fract_z
  _atom_site_occupancy
  Mn  Mn1       1.0  0.65614  0.97566  0.64577  1.0000
  Mn  Mn2       1.0  0.34387  0.02434  0.35423  1.0000
  H   H1        1.0  0.85143  0.92347  0.38887  1.0000
  H   H2        1.0  0.14858  0.07653  0.61113  1.0000
  H   H3        1.0  0.86143  0.72490  0.17652  1.0000
  H   H4        1.0  0.13857  0.27509  0.82348  1.0000
  H   H5        1.0  0.84221  0.55550  0.98964  1.0000
  H   H6        1.0  0.15778  0.44449  0.01036  1.0000
  H   H7        1.0  0.82864  0.33482  0.77625  1.0000
  H   H8        1.0  0.17136  0.66518  0.22375  1.0000
  H   H9        1.0  0.45351  0.03357  0.89247  1.0000
  H   H10       1.0  0.54648  0.96643  0.10753  1.0000
  H   H11       1.0  0.44790  0.23713  0.11145  1.0000
  H   H12       1.0  0.55209  0.76287  0.88855  1.0000
  H   H13       1.0  0.43706  0.40762  0.27481  1.0000
  H   H14       1.0  0.56294  0.59238  0.72519  1.0000
  H   H15       1.0  0.44931  0.62463  0.48829  1.0000
  H   H16       1.0  0.55070  0.37537  0.51171  1.0000
  H   H17       1.0  0.92384  0.39474  0.50016  1.0000
  H   H18       1.0  0.07616  0.60526  0.49984  1.0000
  H   H19       1.0  0.01578  0.24332  0.46657  1.0000
  H   H20       1.0  0.98422  0.75668  0.53343  1.0000
  H   H21       1.0  0.81897  0.32176  0.23704  1.0000
  H   H22       1.0  0.18103  0.67824  0.76296  1.0000
  H   H23       1.0  0.04932  0.38793  0.29086  1.0000
  H   H24       1.0  0.95068  0.61207  0.70914  1.0000
  H   H25       1.0  0.96064  0.16395  0.06912  1.0000
  H   H26       1.0  0.03936  0.83604  0.93088  1.0000
  H   H27       1.0  0.82604  0.04914  0.15109  1.0000
  H   H28       1.0  0.17396  0.95086  0.84892  1.0000
  C   C1        1.0  0.76031  0.80827  0.36109  1.0000
  C   C2        1.0  0.23969  0.19172  0.63891  1.0000
  C   C3        1.0  0.76520  0.69294  0.23933  1.0000
  C   C4        1.0  0.23480  0.30706  0.76067  1.0000
  C   C5        1.0  0.64871  0.54388  0.20249  1.0000
  C   C6        1.0  0.35129  0.45612  0.79751  1.0000
  C   C7        1.0  0.64651  0.41784  0.07278  1.0000
  C   C8        1.0  0.35348  0.58216  0.92721  1.0000
  C   C9        1.0  0.75451  0.44182  0.97497  1.0000
  C   C10       1.0  0.24548  0.55818  0.02503  1.0000
  C   C11       1.0  0.74816  0.31942  0.85493  1.0000
  C   C12       1.0  0.25183  0.68058  0.14507  1.0000
  C   C13       1.0  0.53832  0.15144  0.91971  1.0000
  C   C14       1.0  0.46168  0.84856  0.08029  1.0000
  C   C15       1.0  0.53623  0.26695  0.04212  1.0000
  C   C16       1.0  0.46377  0.73305  0.95787  1.0000
  C   C17       1.0  0.53304  0.51949  0.29536  1.0000
  C   C18       1.0  0.46695  0.48051  0.70464  1.0000
  C   C19       1.0  0.53756  0.64128  0.41504  1.0000
  C   C20       1.0  0.46245  0.35872  0.58496  1.0000
  C   C21       1.0  0.73712  0.17628  0.43372  1.0000
  C   C22       1.0  0.26289  0.82372  0.56628  1.0000
  C   C23       1.0  0.91092  0.28009  0.42358  1.0000
  C   C24       1.0  0.08908  0.71992  0.57641  1.0000
  C   C25       1.0  0.93097  0.29272  0.27878  1.0000
  C   C26       1.0  0.06904  0.70728  0.72122  1.0000
  C   C27       1.0  0.94520  0.14514  0.16986  1.0000
  C   C28       1.0  0.05480  0.85486  0.83014  1.0000
  C   C29       1.0  0.10085  0.10192  0.22157  1.0000
  C   C30       1.0  0.89915  0.89807  0.77843  1.0000
  N   N1        1.0  0.64754  0.78498  0.44822  1.0000
  N   N2        1.0  0.35247  0.21502  0.55178  1.0000
  N   N3        1.0  0.64113  0.17547  0.82604  1.0000
  N   N4        1.0  0.35887  0.82453  0.17396  1.0000
  O   O1        1.0  0.73456  0.13695  0.54295  1.0000
  O   O2        1.0  0.26544  0.86305  0.45705  1.0000
  O   O3        1.0  0.60417  0.14098  0.33807  1.0000
  O   O4        1.0  0.39583  0.85902  0.66193  1.0000
  O   O5        1.0  0.07314  0.98509  0.26321  1.0000
  O   O6        1.0  0.92686  0.01491  0.73680  1.0000
  O   O7        1.0  0.25562  0.18497  0.23045  1.0000
  O   O8        1.0  0.74438  0.81503  0.76956  1.0000
