data_image0
_chemical_formula_structural       U3Ag2H12C16O26
_chemical_formula_sum              "U3 Ag2 H12 C16 O26"
_cell_length_a       8.83233
_cell_length_b       9.88194
_cell_length_c       10.3487
_cell_angle_alpha    112.521
_cell_angle_beta     100.501
_cell_angle_gamma    110.117

_space_group_name_H-M_alt    "P 1"
_space_group_IT_number       1

loop_
  _space_group_symop_operation_xyz
  'x, y, z'

loop_
  _atom_site_type_symbol
  _atom_site_label
  _atom_site_symmetry_multiplicity
  _atom_site_fract_x
  _atom_site_fract_y
  _atom_site_fract_z
  _atom_site_occupancy
  U   U1        1.0  0.33213  0.18910  0.72581  1.0000
  U   U2        1.0  0.66788  0.81089  0.27420  1.0000
  U   U3        1.0  0.00001  0.50000  0.50001  1.0000
  Ag  Ag1       1.0  0.35549  0.84931  0.90056  1.0000
  Ag  Ag2       1.0  0.64450  0.15068  0.09944  1.0000
  H   H1        1.0  0.21260  0.85046  0.46393  1.0000
  H   H2        1.0  0.78741  0.14955  0.53607  1.0000
  H   H3        1.0  0.11621  0.93916  0.39818  1.0000
  H   H4        1.0  0.88378  0.06083  0.60183  1.0000
  H   H5        1.0  0.52460  0.49742  0.62412  1.0000
  H   H6        1.0  0.47540  0.50258  0.37588  1.0000
  H   H7        1.0  0.70735  0.79643  0.62143  1.0000
  H   H8        1.0  0.29265  0.20356  0.37856  1.0000
  H   H9        1.0  0.95329  0.87899  0.90870  1.0000
  H   H10       1.0  0.04670  0.12101  0.09130  1.0000
  H   H11       1.0  0.88239  0.60866  0.84227  1.0000
  H   H12       1.0  0.11761  0.39135  0.15773  1.0000
  C   C1        1.0  0.65604  0.50793  0.64875  1.0000
  C   C2        1.0  0.34396  0.49206  0.35125  1.0000
  C   C3        1.0  0.80344  0.76452  0.66836  1.0000
  C   C4        1.0  0.19656  0.23547  0.33164  1.0000
  C   C5        1.0  0.81904  0.79725  0.83124  1.0000
  C   C6        1.0  0.18096  0.20276  0.16876  1.0000
  C   C7        1.0  0.76431  0.62401  0.81669  1.0000
  C   C8        1.0  0.23568  0.37599  0.18331  1.0000
  C   C9        1.0  0.65010  0.33976  0.59191  1.0000
  C   C10       1.0  0.34993  0.66026  0.40809  1.0000
  C   C11       1.0  0.97673  0.85646  0.66201  1.0000
  C   C12       1.0  0.02328  0.14352  0.33799  1.0000
  C   C13       1.0  0.70156  0.87217  0.88313  1.0000
  C   C14       1.0  0.29844  0.12782  0.11687  1.0000
  C   C15       1.0  0.67712  0.59141  0.92256  1.0000
  C   C16       1.0  0.32289  0.40861  0.07745  1.0000
  O   O1        1.0  0.43797  0.09386  0.80063  1.0000
  O   O2        1.0  0.56202  0.90615  0.19937  1.0000
  O   O3        1.0  0.22059  0.27407  0.64151  1.0000
  O   O4        1.0  0.77941  0.72593  0.35849  1.0000
  O   O5        1.0  0.12746  0.54841  0.68394  1.0000
  O   O6        1.0  0.87255  0.45159  0.31606  1.0000
  O   O7        1.0  0.53434  0.22643  0.59692  1.0000
  O   O8        1.0  0.46565  0.77355  0.40308  1.0000
  O   O9        1.0  0.76992  0.32225  0.54478  1.0000
  O   O10       1.0  0.23008  0.67775  0.45522  1.0000
  O   O11       1.0  0.02965  0.00602  0.69377  1.0000
  O   O12       1.0  0.97035  0.99398  0.30623  1.0000
  O   O13       1.0  0.06452  0.77849  0.63131  1.0000
  O   O14       1.0  0.93548  0.22151  0.36869  1.0000
  O   O15       1.0  0.54037  0.77522  0.81941  1.0000
  O   O16       1.0  0.45963  0.22478  0.18059  1.0000
  O   O17       1.0  0.77642  0.02273  0.98293  1.0000
  O   O18       1.0  0.22358  0.97727  0.01707  1.0000
  O   O19       1.0  0.56450  0.44558  0.87740  1.0000
  O   O20       1.0  0.43549  0.55441  0.12260  1.0000
  O   O21       1.0  0.72839  0.70946  0.05291  1.0000
  O   O22       1.0  0.27160  0.29053  0.94708  1.0000
  O   O23       1.0  0.74853  0.59012  0.57834  1.0000
  O   O24       1.0  0.25147  0.40987  0.42167  1.0000
  O   O25       1.0  0.21003  0.95571  0.48010  1.0000
  O   O26       1.0  0.78997  0.04429  0.51990  1.0000
