data_image0
_chemical_formula_structural       U3H14C16O26
_chemical_formula_sum              "U3 H14 C16 O26"
_cell_length_a       8.66726
_cell_length_b       8.41039
_cell_length_c       10.542
_cell_angle_alpha    68.0801
_cell_angle_beta     79.6081
_cell_angle_gamma    91.494

_space_group_name_H-M_alt    "P 1"
_space_group_IT_number       1

loop_
  _space_group_symop_operation_xyz
  'x, y, z'

loop_
  _atom_site_type_symbol
  _atom_site_label
  _atom_site_symmetry_multiplicity
  _atom_site_fract_x
  _atom_site_fract_y
  _atom_site_fract_z
  _atom_site_occupancy
  U   U1        1.0  0.49998  0.99999  0.00001  1.0000
  U   U2        1.0  0.77092  0.68529  0.60897  1.0000
  U   U3        1.0  0.22910  0.31474  0.39103  1.0000
  H   H1        1.0  0.93185  0.17059  0.25854  1.0000
  H   H2        1.0  0.06816  0.82941  0.74145  1.0000
  H   H3        1.0  0.50994  0.89496  0.70401  1.0000
  H   H4        1.0  0.49005  0.10504  0.29600  1.0000
  H   H5        1.0  0.43417  0.78099  0.63426  1.0000
  H   H6        1.0  0.56584  0.21903  0.36573  1.0000
  H   H7        1.0  0.58800  0.47076  0.13943  1.0000
  H   H8        1.0  0.41202  0.52923  0.86057  1.0000
  H   H9        1.0  0.63017  0.58655  0.36059  1.0000
  H   H10       1.0  0.36982  0.41345  0.63942  1.0000
  H   H11       1.0  0.90966  0.80750  0.13077  1.0000
  H   H12       1.0  0.09034  0.19250  0.86923  1.0000
  H   H13       1.0  0.92542  0.58874  0.04063  1.0000
  H   H14       1.0  0.07458  0.41127  0.95937  1.0000
  C   C1        1.0  0.66765  0.59089  0.09505  1.0000
  C   C2        1.0  0.33237  0.40912  0.90495  1.0000
  C   C3        1.0  0.68065  0.70115  0.26632  1.0000
  C   C4        1.0  0.31935  0.29885  0.73368  1.0000
  C   C5        1.0  0.85272  0.68202  0.20947  1.0000
  C   C6        1.0  0.14728  0.31798  0.79053  1.0000
  C   C7        1.0  0.83241  0.55837  0.13366  1.0000
  C   C8        1.0  0.16760  0.44163  0.86633  1.0000
  C   C9        1.0  0.67210  0.67350  0.93866  1.0000
  C   C10       1.0  0.32790  0.32650  0.06135  1.0000
  C   C11       1.0  0.64764  0.85891  0.29910  1.0000
  C   C12       1.0  0.35236  0.14108  0.70090  1.0000
  C   C13       1.0  0.95847  0.62013  0.31613  1.0000
  C   C14       1.0  0.04152  0.37988  0.68388  1.0000
  C   C15       1.0  0.83046  0.37324  0.23377  1.0000
  C   C16       1.0  0.16957  0.62677  0.76620  1.0000
  O   O1        1.0  0.31484  0.86679  0.06073  1.0000
  O   O2        1.0  0.68515  0.13322  0.93928  1.0000
  O   O3        1.0  0.89624  0.85534  0.61620  1.0000
  O   O4        1.0  0.10375  0.14466  0.38380  1.0000
  O   O5        1.0  0.63911  0.52043  0.60224  1.0000
  O   O6        1.0  0.36087  0.47956  0.39777  1.0000
  O   O7        1.0  0.63957  0.82853  0.89225  1.0000
  O   O8        1.0  0.36041  0.17145  0.10776  1.0000
  O   O9        1.0  0.70526  0.58380  0.86628  1.0000
  O   O10       1.0  0.29476  0.41619  0.13372  1.0000
  O   O11       1.0  0.56197  0.96274  0.22739  1.0000
  O   O12       1.0  0.43802  0.03724  0.77261  1.0000
  O   O13       1.0  0.70113  0.88116  0.39548  1.0000
  O   O14       1.0  0.29888  0.11883  0.60450  1.0000
  O   O15       1.0  0.94385  0.67125  0.41602  1.0000
  O   O16       1.0  0.05614  0.32876  0.58398  1.0000
  O   O17       1.0  0.05958  0.52254  0.29421  1.0000
  O   O18       1.0  0.94040  0.47746  0.70580  1.0000
  O   O19       1.0  0.74964  0.31539  0.35301  1.0000
  O   O20       1.0  0.25035  0.68459  0.64700  1.0000
  O   O21       1.0  0.92161  0.27805  0.18029  1.0000
  O   O22       1.0  0.07840  0.72197  0.81970  1.0000
  O   O23       1.0  0.60286  0.70919  0.15503  1.0000
  O   O24       1.0  0.39714  0.29081  0.84497  1.0000
  O   O25       1.0  0.53119  0.80531  0.66369  1.0000
  O   O26       1.0  0.46879  0.19468  0.33629  1.0000
