data_image0
_chemical_formula_structural       U2H16Pb2C16O26
_chemical_formula_sum              "U2 H16 Pb2 C16 O26"
_cell_length_a       8.81482
_cell_length_b       9.10216
_cell_length_c       10.1166
_cell_angle_alpha    67.2233
_cell_angle_beta     85.5918
_cell_angle_gamma    70.6251

_space_group_name_H-M_alt    "P 1"
_space_group_IT_number       1

loop_
  _space_group_symop_operation_xyz
  'x, y, z'

loop_
  _atom_site_type_symbol
  _atom_site_label
  _atom_site_symmetry_multiplicity
  _atom_site_fract_x
  _atom_site_fract_y
  _atom_site_fract_z
  _atom_site_occupancy
  U   U1        1.0  0.71597  0.65314  0.27737  1.0000
  U   U2        1.0  0.28404  0.34686  0.72263  1.0000
  H   H1        1.0  0.78265  0.92797  0.02620  1.0000
  H   H2        1.0  0.21734  0.07203  0.97380  1.0000
  H   H3        1.0  0.84285  0.96428  0.15502  1.0000
  H   H4        1.0  0.15714  0.03573  0.84497  1.0000
  H   H5        1.0  0.15026  0.86800  0.73983  1.0000
  H   H6        1.0  0.84972  0.13203  0.26015  1.0000
  H   H7        1.0  0.01785  0.84328  0.85713  1.0000
  H   H8        1.0  0.98214  0.15675  0.14286  1.0000
  H   H9        1.0  0.60088  0.81177  0.49750  1.0000
  H   H10       1.0  0.39912  0.18822  0.50251  1.0000
  H   H11       1.0  0.45343  0.90673  0.78453  1.0000
  H   H12       1.0  0.54657  0.09326  0.21547  1.0000
  H   H13       1.0  0.59614  0.55807  0.89766  1.0000
  H   H14       1.0  0.40385  0.44191  0.10235  1.0000
  H   H15       1.0  0.83404  0.57722  0.76185  1.0000
  H   H16       1.0  0.16597  0.42277  0.23815  1.0000
  Pb  Pb1       1.0  0.80532  0.11740  0.61939  1.0000
  Pb  Pb2       1.0  0.19469  0.88260  0.38064  1.0000
  C   C1        1.0  0.69559  0.78408  0.57659  1.0000
  C   C2        1.0  0.30441  0.21591  0.42342  1.0000
  C   C3        1.0  0.57670  0.82483  0.78192  1.0000
  C   C4        1.0  0.42330  0.17516  0.21809  1.0000
  C   C5        1.0  0.57777  0.65390  0.78801  1.0000
  C   C6        1.0  0.42224  0.34608  0.21199  1.0000
  C   C7        1.0  0.72352  0.61030  0.69771  1.0000
  C   C8        1.0  0.27649  0.38968  0.30229  1.0000
  C   C9        1.0  0.84706  0.79706  0.49790  1.0000
  C   C10       1.0  0.15295  0.20294  0.50211  1.0000
  C   C11       1.0  0.67310  0.81554  0.90565  1.0000
  C   C12       1.0  0.32689  0.18447  0.09435  1.0000
  C   C13       1.0  0.42374  0.66630  0.71777  1.0000
  C   C14       1.0  0.57626  0.33369  0.28223  1.0000
  C   C15       1.0  0.74627  0.45907  0.65808  1.0000
  C   C16       1.0  0.25373  0.54093  0.34191  1.0000
  O   O1        1.0  0.52292  0.78931  0.30730  1.0000
  O   O2        1.0  0.47708  0.21068  0.69270  1.0000
  O   O3        1.0  0.90244  0.51598  0.24255  1.0000
  O   O4        1.0  0.09757  0.48402  0.75746  1.0000
  O   O5        1.0  0.87648  0.73565  0.40107  1.0000
  O   O6        1.0  0.12355  0.26436  0.59893  1.0000
  O   O7        1.0  0.93743  0.86155  0.53140  1.0000
  O   O8        1.0  0.06255  0.13848  0.46860  1.0000
  O   O9        1.0  0.63634  0.73723  0.03132  1.0000
  O   O10       1.0  0.36367  0.26276  0.96868  1.0000
  O   O11       1.0  0.77643  0.89133  0.87853  1.0000
  O   O12       1.0  0.22356  0.10868  0.12146  1.0000
  O   O13       1.0  0.41758  0.52645  0.72231  1.0000
  O   O14       1.0  0.58243  0.47354  0.27769  1.0000
  O   O15       1.0  0.31702  0.80760  0.65588  1.0000
  O   O16       1.0  0.68298  0.19240  0.34410  1.0000
  O   O17       1.0  0.73082  0.48245  0.52417  1.0000
  O   O18       1.0  0.26920  0.51757  0.47582  1.0000
  O   O19       1.0  0.78363  0.31631  0.75759  1.0000
  O   O20       1.0  0.21636  0.68368  0.24240  1.0000
  O   O21       1.0  0.63966  0.90180  0.64594  1.0000
  O   O22       1.0  0.36034  0.09819  0.35406  1.0000
  O   O23       1.0  0.76815  0.91806  0.12791  1.0000
  O   O24       1.0  0.23185  0.08193  0.87209  1.0000
  O   O25       1.0  0.06408  0.92589  0.79021  1.0000
  O   O26       1.0  0.93590  0.07414  0.20977  1.0000
