data_image0
_chemical_formula_structural       U2H12Pb2C16O24
_chemical_formula_sum              "U2 H12 Pb2 C16 O24"
_cell_length_a       8.74596
_cell_length_b       9.00183
_cell_length_c       9.05488
_cell_angle_alpha    105.782
_cell_angle_beta     108.86
_cell_angle_gamma    103.957

_space_group_name_H-M_alt    "P 1"
_space_group_IT_number       1

loop_
  _space_group_symop_operation_xyz
  'x, y, z'

loop_
  _atom_site_type_symbol
  _atom_site_label
  _atom_site_symmetry_multiplicity
  _atom_site_fract_x
  _atom_site_fract_y
  _atom_site_fract_z
  _atom_site_occupancy
  U   U1        1.0  0.15657  0.36540  0.25105  1.0000
  U   U2        1.0  0.84342  0.63459  0.74894  1.0000
  H   H1        1.0  0.64524  0.26591  0.99395  1.0000
  H   H2        1.0  0.35477  0.73410  0.00605  1.0000
  H   H3        1.0  0.75785  0.25471  0.88743  1.0000
  H   H4        1.0  0.24217  0.74531  0.11259  1.0000
  H   H5        1.0  0.01570  0.08324  0.76124  1.0000
  H   H6        1.0  0.98429  0.91675  0.23876  1.0000
  H   H7        1.0  0.07353  0.16781  0.49722  1.0000
  H   H8        1.0  0.92646  0.83218  0.50277  1.0000
  H   H9        1.0  0.42730  0.38411  0.78630  1.0000
  H   H10       1.0  0.57268  0.61588  0.21369  1.0000
  H   H11       1.0  0.31086  0.39667  0.98083  1.0000
  H   H12       1.0  0.68912  0.60331  0.01915  1.0000
  Pb  Pb1       1.0  0.44919  0.92547  0.72764  1.0000
  Pb  Pb2       1.0  0.55087  0.07453  0.27244  1.0000
  C   C1        1.0  0.15648  0.13940  0.80281  1.0000
  C   C2        1.0  0.84351  0.86060  0.19718  1.0000
  C   C3        1.0  0.20685  0.18920  0.58225  1.0000
  C   C4        1.0  0.79314  0.81079  0.41774  1.0000
  C   C5        1.0  0.28796  0.36061  0.72591  1.0000
  C   C6        1.0  0.71203  0.63938  0.27408  1.0000
  C   C7        1.0  0.21132  0.33066  0.85075  1.0000
  C   C8        1.0  0.78867  0.66933  0.14924  1.0000
  C   C9        1.0  0.24357  0.10292  0.95566  1.0000
  C   C10       1.0  0.75643  0.89709  0.04434  1.0000
  C   C11       1.0  0.30620  0.15452  0.47501  1.0000
  C   C12       1.0  0.69382  0.84549  0.52500  1.0000
  C   C13       1.0  0.28350  0.51467  0.68676  1.0000
  C   C14       1.0  0.71648  0.48533  0.31322  1.0000
  C   C15       1.0  0.05369  0.37379  0.85047  1.0000
  C   C16       1.0  0.94631  0.62621  0.14953  1.0000
  O   O1        1.0  0.34430  0.50823  0.25551  1.0000
  O   O2        1.0  0.65570  0.49176  0.74449  1.0000
  O   O3        1.0  0.96822  0.21746  0.24094  1.0000
  O   O4        1.0  0.03176  0.78253  0.75904  1.0000
  O   O5        1.0  0.19279  0.14134  0.07237  1.0000
  O   O6        1.0  0.80720  0.85866  0.92762  1.0000
  O   O7        1.0  0.36335  0.04573  0.96632  1.0000
  O   O8        1.0  0.63666  0.95429  0.03370  1.0000
  O   O9        1.0  0.34212  0.25913  0.40797  1.0000
  O   O10       1.0  0.65786  0.74086  0.59202  1.0000
  O   O11       1.0  0.34656  0.02801  0.45308  1.0000
  O   O12       1.0  0.65350  0.97203  0.54697  1.0000
  O   O13       1.0  0.22721  0.50468  0.53360  1.0000
  O   O14       1.0  0.77279  0.49532  0.46640  1.0000
  O   O15       1.0  0.34886  0.65147  0.80987  1.0000
  O   O16       1.0  0.65114  0.34853  0.19012  1.0000
  O   O17       1.0  0.99584  0.33815  0.95465  1.0000
  O   O18       1.0  0.00415  0.66185  0.04534  1.0000
  O   O19       1.0  0.98568  0.43496  0.74817  1.0000
  O   O20       1.0  0.01431  0.56504  0.25184  1.0000
  O   O21       1.0  0.20274  0.07552  0.66806  1.0000
  O   O22       1.0  0.79726  0.92447  0.33194  1.0000
  O   O23       1.0  0.63780  0.21761  0.87773  1.0000
  O   O24       1.0  0.36222  0.78240  0.12228  1.0000
