data_image0
_chemical_formula_structural       Cu2H20C20N6O6
_chemical_formula_sum              "Cu2 H20 C20 N6 O6"
_cell_length_a       6.96869
_cell_length_b       9.02478
_cell_length_c       11.2256
_cell_angle_alpha    93.0062
_cell_angle_beta     96.12
_cell_angle_gamma    106.079

_space_group_name_H-M_alt    "P 1"
_space_group_IT_number       1

loop_
  _space_group_symop_operation_xyz
  'x, y, z'

loop_
  _atom_site_type_symbol
  _atom_site_label
  _atom_site_symmetry_multiplicity
  _atom_site_fract_x
  _atom_site_fract_y
  _atom_site_fract_z
  _atom_site_occupancy
  Cu  Cu1       1.0  0.00286  0.20896  0.04891  1.0000
  Cu  Cu2       1.0  0.99713  0.79105  0.95109  1.0000
  H   H1        1.0  0.57001  0.65233  0.69057  1.0000
  H   H2        1.0  0.42999  0.34767  0.30943  1.0000
  H   H3        1.0  0.36565  0.63923  0.77473  1.0000
  H   H4        1.0  0.63436  0.36077  0.22528  1.0000
  H   H5        1.0  0.58309  0.59389  0.83906  1.0000
  H   H6        1.0  0.41692  0.40610  0.16094  1.0000
  H   H7        1.0  0.37381  0.94917  0.77152  1.0000
  H   H8        1.0  0.62619  0.05083  0.22847  1.0000
  H   H9        1.0  0.99175  0.11454  0.29793  1.0000
  H   H10       1.0  0.00825  0.88546  0.70207  1.0000
  H   H11       1.0  0.96899  0.22962  0.49889  1.0000
  H   H12       1.0  0.03101  0.77039  0.50111  1.0000
  H   H13       1.0  0.05083  0.66902  0.34219  1.0000
  H   H14       1.0  0.94918  0.33098  0.65781  1.0000
  H   H15       1.0  0.06508  0.53437  0.14993  1.0000
  H   H16       1.0  0.93492  0.46563  0.85007  1.0000
  H   H17       1.0  0.32514  0.35430  0.92436  1.0000
  H   H18       1.0  0.67486  0.64571  0.07564  1.0000
  H   H19       1.0  0.22611  0.48650  0.96832  1.0000
  H   H20       1.0  0.77389  0.51350  0.03168  1.0000
  C   C1        1.0  0.53024  0.67232  0.78116  1.0000
  C   C2        1.0  0.46976  0.32768  0.21884  1.0000
  C   C3        1.0  0.61219  0.83743  0.83011  1.0000
  C   C4        1.0  0.38781  0.16257  0.16988  1.0000
  C   C5        1.0  0.52061  0.95639  0.81835  1.0000
  C   C6        1.0  0.47939  0.04361  0.18165  1.0000
  C   C7        1.0  0.65487  0.08524  0.88569  1.0000
  C   C8        1.0  0.34513  0.91476  0.11431  1.0000
  C   C9        1.0  0.64577  0.24265  0.91825  1.0000
  C   C10       1.0  0.35423  0.75735  0.08175  1.0000
  C   C11       1.0  0.00207  0.23708  0.31259  1.0000
  C   C12       1.0  0.99793  0.76292  0.68741  1.0000
  C   C13       1.0  0.99078  0.30337  0.42494  1.0000
  C   C14       1.0  0.00923  0.69663  0.57506  1.0000
  C   C15       1.0  0.00673  0.46234  0.44100  1.0000
  C   C16       1.0  0.99328  0.53766  0.55900  1.0000
  C   C17       1.0  0.03647  0.54570  0.33932  1.0000
  C   C18       1.0  0.96354  0.45430  0.66069  1.0000
  C   C19       1.0  0.04539  0.47099  0.22955  1.0000
  C   C20       1.0  0.95461  0.52901  0.77046  1.0000
  N   N1        1.0  0.81852  0.04563  0.93372  1.0000
  N   N2        1.0  0.18147  0.95437  0.06628  1.0000
  N   N3        1.0  0.79428  0.89657  0.90045  1.0000
  N   N4        1.0  0.20572  0.10343  0.09955  1.0000
  N   N5        1.0  0.02662  0.31869  0.21562  1.0000
  N   N6        1.0  0.97338  0.68131  0.78438  1.0000
  O   O1        1.0  0.79201  0.32292  0.99902  1.0000
  O   O2        1.0  0.20799  0.67708  0.00098  1.0000
  O   O3        1.0  0.50970  0.29416  0.87023  1.0000
  O   O4        1.0  0.49030  0.70583  0.12977  1.0000
  O   O5        1.0  0.19985  0.37410  0.94706  1.0000
  O   O6        1.0  0.80014  0.62590  0.05293  1.0000
