data_image0
_chemical_formula_structural       Cd4H56C48N8O18
_chemical_formula_sum              "Cd4 H56 C48 N8 O18"
_cell_length_a       10.3382
_cell_length_b       10.3759
_cell_length_c       14.1909
_cell_angle_alpha    102.17
_cell_angle_beta     111.152
_cell_angle_gamma    102.221

_space_group_name_H-M_alt    "P 1"
_space_group_IT_number       1

loop_
  _space_group_symop_operation_xyz
  'x, y, z'

loop_
  _atom_site_type_symbol
  _atom_site_label
  _atom_site_symmetry_multiplicity
  _atom_site_fract_x
  _atom_site_fract_y
  _atom_site_fract_z
  _atom_site_occupancy
  Cd  Cd1       1.0  0.62876  0.94546  0.10944  1.0000
  Cd  Cd2       1.0  0.83519  0.01914  0.39050  1.0000
  Cd  Cd3       1.0  0.37124  0.05454  0.89056  1.0000
  Cd  Cd4       1.0  0.16481  0.98086  0.60950  1.0000
  H   H1        1.0  0.49484  0.34433  0.03228  1.0000
  H   H2        1.0  0.31228  0.96322  0.46835  1.0000
  H   H3        1.0  0.50516  0.65567  0.96772  1.0000
  H   H4        1.0  0.68772  0.03678  0.53165  1.0000
  H   H5        1.0  0.62350  0.34039  0.97902  1.0000
  H   H6        1.0  0.36096  0.14432  0.52123  1.0000
  H   H7        1.0  0.37650  0.65961  0.02098  1.0000
  H   H8        1.0  0.63904  0.85568  0.47877  1.0000
  H   H9        1.0  0.81044  0.54180  0.14936  1.0000
  H   H10       1.0  0.39262  0.16046  0.35025  1.0000
  H   H11       1.0  0.18956  0.45820  0.85064  1.0000
  H   H12       1.0  0.60738  0.83954  0.64975  1.0000
  H   H13       1.0  0.67083  0.58273  0.05839  1.0000
  H   H14       1.0  0.52483  0.11207  0.44123  1.0000
  H   H15       1.0  0.32917  0.41727  0.94161  1.0000
  H   H16       1.0  0.47517  0.88793  0.55877  1.0000
  H   H17       1.0  0.52429  0.55242  0.16694  1.0000
  H   H18       1.0  0.38552  0.85811  0.33378  1.0000
  H   H19       1.0  0.47571  0.44758  0.83305  1.0000
  H   H20       1.0  0.61448  0.14189  0.66622  1.0000
  H   H21       1.0  0.67217  0.52575  0.26260  1.0000
  H   H22       1.0  0.26320  0.91028  0.23799  1.0000
  H   H23       1.0  0.32783  0.47425  0.73740  1.0000
  H   H24       1.0  0.73680  0.08972  0.76201  1.0000
  H   H25       1.0  0.93681  0.86773  0.12782  1.0000
  H   H26       1.0  0.73994  0.30952  0.37226  1.0000
  H   H27       1.0  0.06319  0.13227  0.87218  1.0000
  H   H28       1.0  0.26006  0.69048  0.62774  1.0000
  H   H29       1.0  0.59898  0.86598  0.84987  1.0000
  H   H30       1.0  0.01584  0.24922  0.65024  1.0000
  H   H31       1.0  0.40102  0.13402  0.15013  1.0000
  H   H32       1.0  0.98416  0.75078  0.34976  1.0000
  H   H33       1.0  0.81799  0.80146  0.79799  1.0000
  H   H34       1.0  0.00369  0.51927  0.70162  1.0000
  H   H35       1.0  0.18200  0.19854  0.20201  1.0000
  H   H36       1.0  0.99631  0.48073  0.29838  1.0000
  H   H37       1.0  0.13988  0.85245  0.04480  1.0000
  H   H38       1.0  0.80898  0.59500  0.45506  1.0000
  H   H39       1.0  0.86012  0.14755  0.95519  1.0000
  H   H40       1.0  0.19102  0.40500  0.54494  1.0000
  H   H41       1.0  0.06183  0.77909  0.90509  1.0000
  H   H42       1.0  0.87452  0.65573  0.59477  1.0000
  H   H43       1.0  0.93817  0.22091  0.09491  1.0000
  H   H44       1.0  0.12548  0.34427  0.40523  1.0000
  H   H45       1.0  0.80242  0.54433  0.86029  1.0000
  H   H46       1.0  0.68394  0.44223  0.63983  1.0000
  H   H47       1.0  0.19758  0.45567  0.13971  1.0000
  H   H48       1.0  0.31606  0.55777  0.36017  1.0000
  H   H49       1.0  0.23283  0.68993  0.11790  1.0000
  H   H50       1.0  0.57295  0.61519  0.38204  1.0000
  H   H51       1.0  0.76717  0.31007  0.88210  1.0000
  H   H52       1.0  0.42705  0.38481  0.61796  1.0000
  H   H53       1.0  0.95934  0.10371  0.26324  1.0000
  H   H54       1.0  0.84031  0.19556  0.23668  1.0000
  H   H55       1.0  0.04066  0.89629  0.73676  1.0000
  H   H56       1.0  0.15969  0.80444  0.76332  1.0000
  C   C1        1.0  0.66615  0.26889  0.11112  1.0000
  C   C2        1.0  0.15777  0.05503  0.38920  1.0000
  C   C3        1.0  0.33385  0.73111  0.88887  1.0000
  C   C4        1.0  0.84223  0.94497  0.61080  1.0000
  C   C5        1.0  0.61306  0.36919  0.05453  1.0000
  C   C6        1.0  0.31482  0.05879  0.44591  1.0000
  C   C7        1.0  0.38694  0.63081  0.94547  1.0000
  C   C8        1.0  0.68518  0.94121  0.55409  1.0000
  C   C9        1.0  0.69174  0.52310  0.11457  1.0000
  C   C10       1.0  0.40890  0.07713  0.38546  1.0000
  C   C11       1.0  0.30826  0.47690  0.88543  1.0000
  C   C12       1.0  0.59110  0.92287  0.61454  1.0000
  C   C13       1.0  0.64445  0.57744  0.20130  1.0000
  C   C14       1.0  0.37627  0.94341  0.29905  1.0000
  C   C15       1.0  0.35555  0.42256  0.79870  1.0000
  C   C16       1.0  0.62373  0.05659  0.70095  1.0000
  C   C17       1.0  0.70782  0.73379  0.25450  1.0000
  C   C18       1.0  0.47933  0.95299  0.24524  1.0000
  C   C19       1.0  0.29218  0.26621  0.74550  1.0000
  C   C20       1.0  0.52067  0.04701  0.75476  1.0000
  C   C21       1.0  0.87396  0.85915  0.04565  1.0000
  C   C22       1.0  0.81336  0.32836  0.45436  1.0000
  C   C23       1.0  0.12604  0.14085  0.95435  1.0000
  C   C24       1.0  0.18664  0.67164  0.54564  1.0000
  C   C25       1.0  0.70197  0.85654  0.89962  1.0000
  C   C26       1.0  0.95658  0.30218  0.60034  1.0000
  C   C27       1.0  0.29803  0.14346  0.10038  1.0000
  C   C28       1.0  0.04342  0.69782  0.39966  1.0000
  C   C29       1.0  0.80766  0.82094  0.87268  1.0000
  C   C30       1.0  0.94845  0.43455  0.62710  1.0000
  C   C31       1.0  0.19234  0.17906  0.12733  1.0000
  C   C32       1.0  0.05155  0.56544  0.37290  1.0000
  C   C33       1.0  0.04311  0.77701  0.97627  1.0000
  C   C34       1.0  0.80144  0.56654  0.52358  1.0000
  C   C35       1.0  0.95689  0.22299  0.02373  1.0000
  C   C36       1.0  0.19856  0.43346  0.47642  1.0000
  C   C37       1.0  0.88989  0.52526  0.92156  1.0000
  C   C38       1.0  0.60362  0.46837  0.57852  1.0000
  C   C39       1.0  0.11012  0.47474  0.07844  1.0000
  C   C40       1.0  0.39638  0.53163  0.42148  1.0000
  C   C41       1.0  0.02026  0.63327  0.98809  1.0000
  C   C42       1.0  0.64552  0.53218  0.51185  1.0000
  C   C43       1.0  0.97975  0.36674  0.01191  1.0000
  C   C44       1.0  0.35449  0.46782  0.48815  1.0000
  C   C45       1.0  0.13013  0.60669  0.06680  1.0000
  C   C46       1.0  0.54038  0.56339  0.43309  1.0000
  C   C47       1.0  0.86987  0.39331  0.93320  1.0000
  C   C48       1.0  0.45962  0.43661  0.56691  1.0000
  N   N1        1.0  0.74492  0.88021  0.00759  1.0000
  N   N2        1.0  0.87207  0.23737  0.49246  1.0000
  N   N3        1.0  0.25508  0.11979  0.99241  1.0000
  N   N4        1.0  0.12793  0.76263  0.50754  1.0000
  N   N5        1.0  0.91591  0.82345  0.96619  1.0000
  N   N6        1.0  0.85765  0.44949  0.53361  1.0000
  N   N7        1.0  0.08409  0.17655  0.03381  1.0000
  N   N8        1.0  0.14235  0.55051  0.46639  1.0000
  O   O1        1.0  0.58481  0.14078  0.06733  1.0000
  O   O2        1.0  0.07286  0.01705  0.43293  1.0000
  O   O3        1.0  0.41519  0.85922  0.93267  1.0000
  O   O4        1.0  0.92714  0.98295  0.56707  1.0000
  O   O5        1.0  0.78509  0.31273  0.19421  1.0000
  O   O6        1.0  0.11896  0.09099  0.30608  1.0000
  O   O7        1.0  0.21491  0.68727  0.80579  1.0000
  O   O8        1.0  0.88104  0.90901  0.69392  1.0000
  O   O9        1.0  0.75643  0.80935  0.20723  1.0000
  O   O10       1.0  0.60223  0.04840  0.29182  1.0000
  O   O11       1.0  0.24357  0.19066  0.79277  1.0000
  O   O12       1.0  0.39777  0.95159  0.70818  1.0000
  O   O13       1.0  0.71101  0.78458  0.34595  1.0000
  O   O14       1.0  0.43854  0.86504  0.15390  1.0000
  O   O15       1.0  0.28899  0.21542  0.65405  1.0000
  O   O16       1.0  0.56146  0.13496  0.84610  1.0000
  O   O17       1.0  0.85682  0.10664  0.24981  1.0000
  O   O18       1.0  0.14319  0.89336  0.75019  1.0000
