data_image0
_chemical_formula_structural       Cd2H48C32Br4N24
_chemical_formula_sum              "Cd2 H48 C32 Br4 N24"
_cell_length_a       7.70099
_cell_length_b       8.76392
_cell_length_c       18.2237
_cell_angle_alpha    90
_cell_angle_beta     90
_cell_angle_gamma    113.533

_space_group_name_H-M_alt    "P 1"
_space_group_IT_number       1

loop_
  _space_group_symop_operation_xyz
  'x, y, z'

loop_
  _atom_site_type_symbol
  _atom_site_label
  _atom_site_symmetry_multiplicity
  _atom_site_fract_x
  _atom_site_fract_y
  _atom_site_fract_z
  _atom_site_occupancy
  Cd  Cd1       1.0  0.00000  0.00000  0.50000  1.0000
  Cd  Cd2       1.0  0.50000  0.50000  0.00000  1.0000
  H   H1        1.0  0.45882  0.14613  0.57029  1.0000
  H   H2        1.0  0.04119  0.35387  0.07029  1.0000
  H   H3        1.0  0.54119  0.85387  0.42971  1.0000
  H   H4        1.0  0.95881  0.64614  0.92971  1.0000
  H   H5        1.0  0.13726  0.43363  0.54763  1.0000
  H   H6        1.0  0.36274  0.06637  0.04763  1.0000
  H   H7        1.0  0.86273  0.56637  0.45237  1.0000
  H   H8        1.0  0.63726  0.93363  0.95237  1.0000
  H   H9        1.0  0.81043  0.52037  0.58475  1.0000
  H   H10       1.0  0.68957  0.97963  0.08475  1.0000
  H   H11       1.0  0.18957  0.47963  0.41525  1.0000
  H   H12       1.0  0.31044  0.02037  0.91525  1.0000
  H   H13       1.0  0.71088  0.57206  0.66390  1.0000
  H   H14       1.0  0.78912  0.92794  0.16390  1.0000
  H   H15       1.0  0.28912  0.42794  0.33610  1.0000
  H   H16       1.0  0.21088  0.07206  0.83610  1.0000
  H   H17       1.0  0.74872  0.24095  0.63532  1.0000
  H   H18       1.0  0.75128  0.25905  0.13532  1.0000
  H   H19       1.0  0.25128  0.75905  0.36468  1.0000
  H   H20       1.0  0.24872  0.74095  0.86468  1.0000
  H   H21       1.0  0.62101  0.27588  0.70999  1.0000
  H   H22       1.0  0.87899  0.22412  0.20999  1.0000
  H   H23       1.0  0.37899  0.72412  0.29001  1.0000
  H   H24       1.0  0.12101  0.77588  0.79001  1.0000
  H   H25       1.0  0.04684  0.46605  0.67903  1.0000
  H   H26       1.0  0.45316  0.03395  0.17903  1.0000
  H   H27       1.0  0.95316  0.53395  0.32097  1.0000
  H   H28       1.0  0.54684  0.96605  0.82097  1.0000
  H   H29       1.0  0.92326  0.51433  0.75136  1.0000
  H   H30       1.0  0.57674  0.98567  0.25136  1.0000
  H   H31       1.0  0.07674  0.48567  0.24864  1.0000
  H   H32       1.0  0.42326  0.01433  0.74864  1.0000
  H   H33       1.0  0.83947  0.23538  0.80706  1.0000
  H   H34       1.0  0.66053  0.26462  0.30706  1.0000
  H   H35       1.0  0.16053  0.76462  0.19294  1.0000
  H   H36       1.0  0.33947  0.73538  0.69294  1.0000
  H   H37       1.0  0.93917  0.17178  0.73102  1.0000
  H   H38       1.0  0.56083  0.32822  0.23102  1.0000
  H   H39       1.0  0.06083  0.82822  0.26899  1.0000
  H   H40       1.0  0.43917  0.67178  0.76899  1.0000
  H   H41       1.0  0.05852  0.39337  0.90977  1.0000
  H   H42       1.0  0.44148  0.10664  0.40977  1.0000
  H   H43       1.0  0.94148  0.60663  0.09023  1.0000
  H   H44       1.0  0.55852  0.89337  0.59023  1.0000
  H   H45       1.0  0.56754  0.42073  0.81415  1.0000
  H   H46       1.0  0.93246  0.07926  0.31415  1.0000
  H   H47       1.0  0.43246  0.57927  0.18585  1.0000
  H   H48       1.0  0.06754  0.92073  0.68585  1.0000
  C   C1        1.0  0.41180  0.24733  0.57251  1.0000
  C   C2        1.0  0.08820  0.25267  0.07251  1.0000
  C   C3        1.0  0.58820  0.75267  0.42749  1.0000
  C   C4        1.0  0.91180  0.74733  0.92749  1.0000
  C   C5        1.0  0.25174  0.39586  0.56101  1.0000
  C   C6        1.0  0.24826  0.10414  0.06101  1.0000
  C   C7        1.0  0.74826  0.60414  0.43899  1.0000
  C   C8        1.0  0.75174  0.89586  0.93899  1.0000
  C   C9        1.0  0.70436  0.46889  0.62849  1.0000
  C   C10       1.0  0.79564  0.03111  0.12849  1.0000
  C   C11       1.0  0.29564  0.53111  0.37151  1.0000
  C   C12       1.0  0.20437  0.96889  0.87151  1.0000
  C   C13       1.0  0.74123  0.33722  0.67252  1.0000
  C   C14       1.0  0.75877  0.16278  0.17252  1.0000
  C   C15       1.0  0.25877  0.66278  0.32748  1.0000
  C   C16       1.0  0.24123  0.83722  0.82748  1.0000
  C   C17       1.0  0.92500  0.41243  0.71631  1.0000
  C   C18       1.0  0.57500  0.08757  0.21631  1.0000
  C   C19       1.0  0.07500  0.58757  0.28369  1.0000
  C   C20       1.0  0.42501  0.91243  0.78369  1.0000
  C   C21       1.0  0.94866  0.27913  0.76415  1.0000
  C   C22       1.0  0.55134  0.22087  0.26415  1.0000
  C   C23       1.0  0.05134  0.72087  0.23585  1.0000
  C   C24       1.0  0.44866  0.77913  0.73585  1.0000
  C   C25       1.0  0.16662  0.39175  0.87157  1.0000
  C   C26       1.0  0.33338  0.10825  0.37157  1.0000
  C   C27       1.0  0.83338  0.60825  0.12843  1.0000
  C   C28       1.0  0.66662  0.89175  0.62843  1.0000
  C   C29       1.0  0.42034  0.40183  0.82089  1.0000
  C   C30       1.0  0.07967  0.09817  0.32089  1.0000
  C   C31       1.0  0.57967  0.59817  0.17911  1.0000
  C   C32       1.0  0.92033  0.90183  0.67911  1.0000
  Br  Br1       1.0  0.20254  0.80427  0.53757  1.0000
  Br  Br2       1.0  0.29746  0.69573  0.03757  1.0000
  Br  Br3       1.0  0.79746  0.19573  0.46243  1.0000
  Br  Br4       1.0  0.70254  0.30426  0.96243  1.0000
  N   N1        1.0  0.24348  0.23910  0.54964  1.0000
  N   N2        1.0  0.25652  0.26089  0.04964  1.0000
  N   N3        1.0  0.75652  0.76089  0.45036  1.0000
  N   N4        1.0  0.74348  0.73911  0.95036  1.0000
  N   N5        1.0  0.41491  0.49926  0.58983  1.0000
  N   N6        1.0  0.08509  0.00074  0.08983  1.0000
  N   N7        1.0  0.58509  0.50074  0.41017  1.0000
  N   N8        1.0  0.91491  0.99926  0.91017  1.0000
  N   N9        1.0  0.51477  0.40211  0.59676  1.0000
  N   N10       1.0  0.98523  0.09789  0.09675  1.0000
  N   N11       1.0  0.48523  0.59789  0.40325  1.0000
  N   N12       1.0  0.01477  0.90211  0.90324  1.0000
  N   N13       1.0  0.12993  0.33807  0.80192  1.0000
  N   N14       1.0  0.37007  0.16193  0.30192  1.0000
  N   N15       1.0  0.87007  0.66193  0.19808  1.0000
  N   N16       1.0  0.62993  0.83807  0.69808  1.0000
  N   N17       1.0  0.29055  0.34289  0.76826  1.0000
  N   N18       1.0  0.20945  0.15711  0.26826  1.0000
  N   N19       1.0  0.70945  0.65711  0.23174  1.0000
  N   N20       1.0  0.79055  0.84289  0.73174  1.0000
  N   N21       1.0  0.35041  0.43402  0.88506  1.0000
  N   N22       1.0  0.14959  0.06597  0.38506  1.0000
  N   N23       1.0  0.64958  0.56597  0.11494  1.0000
  N   N24       1.0  0.85041  0.93403  0.61494  1.0000
