data_image0
_chemical_formula_structural       Cu4H16C12I4N4
_chemical_formula_sum              "Cu4 H16 C12 I4 N4"
_cell_length_a       7.29958
_cell_length_b       7.38425
_cell_length_c       9.81251
_cell_angle_alpha    96.1673
_cell_angle_beta     108.157
_cell_angle_gamma    97.4169

_space_group_name_H-M_alt    "P 1"
_space_group_IT_number       1

loop_
  _space_group_symop_operation_xyz
  'x, y, z'

loop_
  _atom_site_type_symbol
  _atom_site_label
  _atom_site_symmetry_multiplicity
  _atom_site_fract_x
  _atom_site_fract_y
  _atom_site_fract_z
  _atom_site_occupancy
  Cu  Cu1       1.0  0.98990  0.40758  0.37736  1.0000
  Cu  Cu2       1.0  0.01010  0.59242  0.62263  1.0000
  Cu  Cu3       1.0  0.83814  0.05262  0.43132  1.0000
  Cu  Cu4       1.0  0.16187  0.94737  0.56868  1.0000
  H   H1        1.0  0.60373  0.50565  0.76941  1.0000
  H   H2        1.0  0.39626  0.49436  0.23059  1.0000
  H   H3        1.0  0.84330  0.76448  0.94447  1.0000
  H   H4        1.0  0.15668  0.23553  0.05554  1.0000
  H   H5        1.0  0.99994  0.72043  0.20179  1.0000
  H   H6        1.0  0.00004  0.27957  0.79822  1.0000
  H   H7        1.0  0.68991  0.18938  0.12383  1.0000
  H   H8        1.0  0.31010  0.81062  0.87616  1.0000
  H   H9        1.0  0.57216  0.04194  0.82609  1.0000
  H   H10       1.0  0.42784  0.95805  0.17391  1.0000
  H   H11       1.0  0.38697  0.10498  0.89340  1.0000
  H   H12       1.0  0.61304  0.89503  0.10661  1.0000
  H   H13       1.0  0.46145  0.20685  0.63063  1.0000
  H   H14       1.0  0.53855  0.79315  0.36937  1.0000
  H   H15       1.0  0.29792  0.28378  0.69321  1.0000
  H   H16       1.0  0.70208  0.71620  0.30680  1.0000
  C   C1        1.0  0.67128  0.48863  0.88233  1.0000
  C   C2        1.0  0.32870  0.51138  0.11766  1.0000
  C   C3        1.0  0.80441  0.63434  0.98012  1.0000
  C   C4        1.0  0.19559  0.36567  0.01988  1.0000
  C   C5        1.0  0.89268  0.61097  0.12306  1.0000
  C   C6        1.0  0.10732  0.38904  0.87694  1.0000
  C   C7        1.0  0.72017  0.31388  0.07832  1.0000
  C   C8        1.0  0.27983  0.68611  0.92166  1.0000
  C   C9        1.0  0.62804  0.32308  0.93182  1.0000
  C   C10       1.0  0.37198  0.67692  0.06819  1.0000
  C   C11       1.0  0.48872  0.15380  0.83735  1.0000
  C   C12       1.0  0.51129  0.84619  0.16264  1.0000
  I   I1        1.0  0.69616  0.34878  0.48109  1.0000
  I   I2        1.0  0.30385  0.65121  0.51891  1.0000
  I   I3        1.0  0.11573  0.09269  0.31645  1.0000
  I   I4        1.0  0.88428  0.90731  0.68356  1.0000
  N   N1        1.0  0.85068  0.45251  0.17256  1.0000
  N   N2        1.0  0.14932  0.54748  0.82744  1.0000
  N   N3        1.0  0.37197  0.17520  0.69054  1.0000
  N   N4        1.0  0.62804  0.82479  0.30946  1.0000
