data_image0
_chemical_formula_structural       Cu4H32C24I4N8
_chemical_formula_sum              "Cu4 H32 C24 I4 N8"
_cell_length_a       6.96575
_cell_length_b       8.31458
_cell_length_c       13.5924
_cell_angle_alpha    90.0002
_cell_angle_beta     90.0004
_cell_angle_gamma    99.1998

_space_group_name_H-M_alt    "P 1"
_space_group_IT_number       1

loop_
  _space_group_symop_operation_xyz
  'x, y, z'

loop_
  _atom_site_type_symbol
  _atom_site_label
  _atom_site_symmetry_multiplicity
  _atom_site_fract_x
  _atom_site_fract_y
  _atom_site_fract_z
  _atom_site_occupancy
  Cu  Cu1       1.0  0.18543  0.04514  0.53744  1.0000
  Cu  Cu2       1.0  0.31458  0.95486  0.03743  1.0000
  Cu  Cu3       1.0  0.81458  0.95487  0.46256  1.0000
  Cu  Cu4       1.0  0.68541  0.04513  0.96256  1.0000
  H   H1        1.0  0.13927  0.38799  0.50287  1.0000
  H   H2        1.0  0.36074  0.61199  0.00287  1.0000
  H   H3        1.0  0.86072  0.61201  0.49714  1.0000
  H   H4        1.0  0.63927  0.38800  0.99714  1.0000
  H   H5        1.0  0.37411  0.88251  0.65440  1.0000
  H   H6        1.0  0.12589  0.11749  0.15441  1.0000
  H   H7        1.0  0.62589  0.11750  0.34559  1.0000
  H   H8        1.0  0.87410  0.88250  0.84559  1.0000
  H   H9        1.0  0.55640  0.68519  0.68856  1.0000
  H   H10       1.0  0.94359  0.31481  0.18856  1.0000
  H   H11       1.0  0.44359  0.31481  0.31144  1.0000
  H   H12       1.0  0.05641  0.68519  0.81145  1.0000
  H   H13       1.0  0.69437  0.43141  0.72756  1.0000
  H   H14       1.0  0.80565  0.56861  0.22755  1.0000
  H   H15       1.0  0.30565  0.56861  0.27244  1.0000
  H   H16       1.0  0.19434  0.43138  0.77244  1.0000
  H   H17       1.0  0.54140  0.16758  0.65626  1.0000
  H   H18       1.0  0.95862  0.83242  0.15625  1.0000
  H   H19       1.0  0.45861  0.83243  0.34374  1.0000
  H   H20       1.0  0.04137  0.16757  0.84374  1.0000
  H   H21       1.0  0.09760  0.69456  0.61276  1.0000
  H   H22       1.0  0.40240  0.30543  0.11276  1.0000
  H   H23       1.0  0.90239  0.30544  0.38724  1.0000
  H   H24       1.0  0.59760  0.69455  0.88724  1.0000
  H   H25       1.0  0.47666  0.86899  0.54684  1.0000
  H   H26       1.0  0.02334  0.13100  0.04684  1.0000
  H   H27       1.0  0.52334  0.13101  0.45315  1.0000
  H   H28       1.0  0.97666  0.86900  0.95315  1.0000
  H   H29       1.0  0.18246  0.68691  0.49092  1.0000
  H   H30       1.0  0.31754  0.31308  0.99092  1.0000
  H   H31       1.0  0.81754  0.31309  0.50908  1.0000
  H   H32       1.0  0.68246  0.68692  0.00908  1.0000
  C   C1        1.0  0.25868  0.40275  0.55563  1.0000
  C   C2        1.0  0.24134  0.59724  0.05563  1.0000
  C   C3        1.0  0.74133  0.59725  0.44437  1.0000
  C   C4        1.0  0.75867  0.40275  0.94437  1.0000
  C   C5        1.0  0.33042  0.55588  0.59471  1.0000
  C   C6        1.0  0.16957  0.44412  0.09471  1.0000
  C   C7        1.0  0.66957  0.44413  0.40529  1.0000
  C   C8        1.0  0.83044  0.55588  0.90530  1.0000
  C   C9        1.0  0.49062  0.56769  0.65801  1.0000
  C   C10       1.0  0.00938  0.43232  0.15801  1.0000
  C   C11       1.0  0.50938  0.43232  0.34199  1.0000
  C   C12       1.0  0.99061  0.56769  0.84200  1.0000
  C   C13       1.0  0.56834  0.42716  0.67967  1.0000
  C   C14       1.0  0.93166  0.57284  0.17966  1.0000
  C   C15       1.0  0.43167  0.57283  0.32033  1.0000
  C   C16       1.0  0.06833  0.42717  0.82034  1.0000
  C   C17       1.0  0.48333  0.27879  0.63975  1.0000
  C   C18       1.0  0.01669  0.72121  0.13975  1.0000
  C   C19       1.0  0.51668  0.72122  0.36025  1.0000
  C   C20       1.0  0.98331  0.27879  0.86025  1.0000
  C   C21       1.0  0.23066  0.69846  0.56807  1.0000
  C   C22       1.0  0.26936  0.30153  0.06807  1.0000
  C   C23       1.0  0.76935  0.30154  0.43193  1.0000
  C   C24       1.0  0.73064  0.69846  0.93193  1.0000
  I   I1        1.0  0.12642  0.02102  0.34797  1.0000
  I   I2        1.0  0.37357  0.97897  0.84797  1.0000
  I   I3        1.0  0.87358  0.97898  0.65203  1.0000
  I   I4        1.0  0.62642  0.02102  0.15203  1.0000
  N   N1        1.0  0.32911  0.26539  0.57827  1.0000
  N   N2        1.0  0.17090  0.73461  0.07826  1.0000
  N   N3        1.0  0.67089  0.73461  0.42173  1.0000
  N   N4        1.0  0.82910  0.26539  0.92174  1.0000
  N   N5        1.0  0.34385  0.86151  0.58106  1.0000
  N   N6        1.0  0.15616  0.13848  0.08106  1.0000
  N   N7        1.0  0.65615  0.13849  0.41894  1.0000
  N   N8        1.0  0.84384  0.86151  0.91894  1.0000
