data_image0
_chemical_formula_structural       Cu4H32C24I4N8
_chemical_formula_sum              "Cu4 H32 C24 I4 N8"
_cell_length_a       7.59733
_cell_length_b       7.69021
_cell_length_c       14.2266
_cell_angle_alpha    90.0004
_cell_angle_beta     89.9983
_cell_angle_gamma    75.8304

_space_group_name_H-M_alt    "P 1"
_space_group_IT_number       1

loop_
  _space_group_symop_operation_xyz
  'x, y, z'

loop_
  _atom_site_type_symbol
  _atom_site_label
  _atom_site_symmetry_multiplicity
  _atom_site_fract_x
  _atom_site_fract_y
  _atom_site_fract_z
  _atom_site_occupancy
  Cu  Cu1       1.0  0.17104  0.94064  0.97905  1.0000
  Cu  Cu2       1.0  0.32896  0.55935  0.47907  1.0000
  Cu  Cu3       1.0  0.82920  0.05907  0.02092  1.0000
  Cu  Cu4       1.0  0.67082  0.44092  0.52092  1.0000
  H   H1        1.0  0.76350  0.43639  0.95261  1.0000
  H   H2        1.0  0.73653  0.06359  0.45261  1.0000
  H   H3        1.0  0.23682  0.56324  0.04741  1.0000
  H   H4        1.0  0.26318  0.93674  0.54741  1.0000
  H   H5        1.0  0.52205  0.64562  0.86263  1.0000
  H   H6        1.0  0.97797  0.85434  0.36263  1.0000
  H   H7        1.0  0.47820  0.35416  0.13744  1.0000
  H   H8        1.0  0.02181  0.14589  0.63743  1.0000
  H   H9        1.0  0.25837  0.53598  0.79872  1.0000
  H   H10       1.0  0.24164  0.96397  0.29872  1.0000
  H   H11       1.0  0.74179  0.46379  0.20135  1.0000
  H   H12       1.0  0.75819  0.03627  0.70133  1.0000
  H   H13       1.0  0.51122  0.02001  0.91893  1.0000
  H   H14       1.0  0.98880  0.47998  0.41893  1.0000
  H   H15       1.0  0.48898  0.97977  0.08099  1.0000
  H   H16       1.0  0.01100  0.52023  0.58100  1.0000
  H   H17       1.0  0.08064  0.28025  0.85185  1.0000
  H   H18       1.0  0.41936  0.21975  0.35184  1.0000
  H   H19       1.0  0.91958  0.71955  0.14817  1.0000
  H   H20       1.0  0.58043  0.78047  0.64818  1.0000
  H   H21       1.0  0.19660  0.22673  0.74202  1.0000
  H   H22       1.0  0.30342  0.27322  0.24202  1.0000
  H   H23       1.0  0.80351  0.77310  0.25801  1.0000
  H   H24       1.0  0.69646  0.72697  0.75801  1.0000
  H   H25       1.0  0.11700  0.97032  0.80693  1.0000
  H   H26       1.0  0.38300  0.52966  0.30694  1.0000
  H   H27       1.0  0.88317  0.02948  0.19305  1.0000
  H   H28       1.0  0.61678  0.47057  0.69305  1.0000
  H   H29       1.0  0.33744  0.93417  0.81138  1.0000
  H   H30       1.0  0.16255  0.56579  0.31139  1.0000
  H   H31       1.0  0.66274  0.06560  0.18858  1.0000
  H   H32       1.0  0.83726  0.43445  0.68859  1.0000
  C   C1        1.0  0.50611  0.16038  0.90445  1.0000
  C   C2        1.0  0.99391  0.33962  0.40446  1.0000
  C   C3        1.0  0.49413  0.83937  0.09551  1.0000
  C   C4        1.0  0.00586  0.66064  0.59551  1.0000
  C   C5        1.0  0.36307  0.26828  0.85433  1.0000
  C   C6        1.0  0.13695  0.23169  0.35433  1.0000
  C   C7        1.0  0.63715  0.73151  0.14569  1.0000
  C   C8        1.0  0.86282  0.76853  0.64568  1.0000
  C   C9        1.0  0.36843  0.44646  0.83709  1.0000
  C   C10       1.0  0.13159  0.05350  0.33709  1.0000
  C   C11       1.0  0.63181  0.55330  0.16294  1.0000
  C   C12       1.0  0.86817  0.94674  0.66292  1.0000
  C   C13       1.0  0.51389  0.50718  0.87169  1.0000
  C   C14       1.0  0.98613  0.99277  0.37169  1.0000
  C   C15       1.0  0.48635  0.49258  0.12833  1.0000
  C   C16       1.0  0.01363  0.00746  0.62831  1.0000
  C   C17       1.0  0.64998  0.39129  0.92263  1.0000
  C   C18       1.0  0.85004  0.10870  0.42263  1.0000
  C   C19       1.0  0.35029  0.60843  0.07735  1.0000
  C   C20       1.0  0.14971  0.89159  0.57735  1.0000
  C   C21       1.0  0.20581  0.20115  0.81855  1.0000
  C   C22       1.0  0.29418  0.29883  0.31855  1.0000
  C   C23       1.0  0.79433  0.79864  0.18146  1.0000
  C   C24       1.0  0.70566  0.70140  0.68146  1.0000
  I   I1        1.0  0.92492  0.75725  0.92469  1.0000
  I   I2        1.0  0.57509  0.74272  0.42469  1.0000
  I   I3        1.0  0.07532  0.24241  0.07531  1.0000
  I   I4        1.0  0.42468  0.25759  0.57530  1.0000
  N   N1        1.0  0.64687  0.21952  0.93930  1.0000
  N   N2        1.0  0.85314  0.28045  0.43931  1.0000
  N   N3        1.0  0.35340  0.78018  0.06066  1.0000
  N   N4        1.0  0.14662  0.71982  0.56067  1.0000
  N   N5        1.0  0.22012  0.01065  0.84002  1.0000
  N   N6        1.0  0.27988  0.48933  0.34003  1.0000
  N   N7        1.0  0.78006  0.98915  0.15995  1.0000
  N   N8        1.0  0.71993  0.51089  0.65996  1.0000
