data_image0
_chemical_formula_structural       Cs4P8H40C44O12
_chemical_formula_sum              "Cs4 P8 H40 C44 O12"
_cell_length_a       7.22382
_cell_length_b       12.4385
_cell_length_c       14.69
_cell_angle_alpha    108.93
_cell_angle_beta     90.5192
_cell_angle_gamma    90.6252

_space_group_name_H-M_alt    "P 1"
_space_group_IT_number       1

loop_
  _space_group_symop_operation_xyz
  'x, y, z'

loop_
  _atom_site_type_symbol
  _atom_site_label
  _atom_site_symmetry_multiplicity
  _atom_site_fract_x
  _atom_site_fract_y
  _atom_site_fract_z
  _atom_site_occupancy
  Cs  Cs1       1.0  0.26833  0.06736  0.89495  1.0000
  Cs  Cs2       1.0  0.73167  0.93263  0.10505  1.0000
  Cs  Cs3       1.0  0.21424  0.12126  0.16774  1.0000
  Cs  Cs4       1.0  0.78575  0.87873  0.83226  1.0000
  P   P1        1.0  0.75024  0.20560  0.04772  1.0000
  P   P2        1.0  0.24976  0.79440  0.95229  1.0000
  P   P3        1.0  0.85432  0.34164  0.18199  1.0000
  P   P4        1.0  0.14568  0.65836  0.81801  1.0000
  P   P5        1.0  0.59695  0.35466  0.26799  1.0000
  P   P6        1.0  0.40304  0.64534  0.73201  1.0000
  P   P7        1.0  0.67213  0.20955  0.32053  1.0000
  P   P8        1.0  0.32786  0.79045  0.67947  1.0000
  H   H1        1.0  0.64300  0.17827  0.83979  1.0000
  H   H2        1.0  0.35699  0.82173  0.16022  1.0000
  H   H3        1.0  0.59555  0.32123  0.75987  1.0000
  H   H4        1.0  0.40445  0.67876  0.24013  1.0000
  H   H5        1.0  0.66085  0.52572  0.84549  1.0000
  H   H6        1.0  0.33914  0.47427  0.15451  1.0000
  H   H7        1.0  0.78038  0.67598  0.99157  1.0000
  H   H8        1.0  0.21960  0.32402  0.00843  1.0000
  H   H9        1.0  0.88702  0.73485  0.16422  1.0000
  H   H10       1.0  0.11297  0.26516  0.83577  1.0000
  H   H11       1.0  0.90609  0.59370  0.24875  1.0000
  H   H12       1.0  0.09391  0.40631  0.75125  1.0000
  H   H13       1.0  0.62382  0.60815  0.34550  1.0000
  H   H14       1.0  0.37618  0.39184  0.65449  1.0000
  H   H15       1.0  0.72405  0.74132  0.50488  1.0000
  H   H16       1.0  0.27596  0.25867  0.49512  1.0000
  H   H17       1.0  0.82783  0.66873  0.63493  1.0000
  H   H18       1.0  0.17216  0.33127  0.36507  1.0000
  H   H19       1.0  0.86730  0.50454  0.69580  1.0000
  H   H20       1.0  0.13268  0.49546  0.30420  1.0000
  H   H21       1.0  0.86384  0.29577  0.66478  1.0000
  H   H22       1.0  0.13615  0.70423  0.33522  1.0000
  H   H23       1.0  0.78133  0.16251  0.50233  1.0000
  H   H24       1.0  0.21866  0.83749  0.49767  1.0000
  H   H25       1.0  0.46460  0.99953  0.68694  1.0000
  H   H26       1.0  0.53539  0.00048  0.31306  1.0000
  H   H27       1.0  0.35171  0.03432  0.56149  1.0000
  H   H28       1.0  0.64828  0.96568  0.43851  1.0000
  H   H29       1.0  0.47383  0.16692  0.60330  1.0000
  H   H30       1.0  0.52616  0.83308  0.39669  1.0000
  H   H31       1.0  0.24349  0.15554  0.64268  1.0000
  H   H32       1.0  0.75649  0.84446  0.35731  1.0000
  H   H33       1.0  0.05120  0.96237  0.70906  1.0000
  H   H34       1.0  0.94880  0.03762  0.29094  1.0000
  H   H35       1.0  0.75945  0.06907  0.64042  1.0000
  H   H36       1.0  0.24055  0.93092  0.35958  1.0000
  H   H37       1.0  0.98113  0.05405  0.58381  1.0000
  H   H38       1.0  0.01888  0.94595  0.41620  1.0000
  H   H39       1.0  0.85113  0.93124  0.58541  1.0000
  H   H40       1.0  0.14887  0.06876  0.41459  1.0000
  C   C1        1.0  0.72010  0.30113  0.97760  1.0000
  C   C2        1.0  0.27991  0.69887  0.02240  1.0000
  C   C3        1.0  0.66736  0.26739  0.88154  1.0000
  C   C4        1.0  0.33265  0.73261  0.11846  1.0000
  C   C5        1.0  0.64304  0.34922  0.83463  1.0000
  C   C6        1.0  0.35696  0.65078  0.16537  1.0000
  C   C7        1.0  0.67924  0.46291  0.88222  1.0000
  C   C8        1.0  0.32076  0.53709  0.11778  1.0000
  C   C9        1.0  0.74035  0.50003  0.97966  1.0000
  C   C10       1.0  0.25967  0.49997  0.02033  1.0000
  C   C11       1.0  0.78788  0.61484  0.03054  1.0000
  C   C12       1.0  0.21212  0.38516  0.96945  1.0000
  C   C13       1.0  0.84582  0.64704  0.12549  1.0000
  C   C14       1.0  0.15419  0.35296  0.87451  1.0000
  C   C15       1.0  0.85905  0.56614  0.17397  1.0000
  C   C16       1.0  0.14096  0.43386  0.82603  1.0000
  C   C17       1.0  0.81614  0.45256  0.12696  1.0000
  C   C18       1.0  0.18387  0.54744  0.87304  1.0000
  C   C19       1.0  0.75706  0.41772  0.02833  1.0000
  C   C20       1.0  0.24296  0.58228  0.97167  1.0000
  C   C21       1.0  0.67602  0.45769  0.38285  1.0000
  C   C22       1.0  0.32398  0.54231  0.61714  1.0000
  C   C23       1.0  0.67168  0.57418  0.40121  1.0000
  C   C24       1.0  0.32832  0.42582  0.59879  1.0000
  C   C25       1.0  0.72768  0.65005  0.49210  1.0000
  C   C26       1.0  0.27232  0.34995  0.50790  1.0000
  C   C27       1.0  0.78284  0.61018  0.56528  1.0000
  C   C28       1.0  0.21716  0.38982  0.43472  1.0000
  C   C29       1.0  0.78294  0.49177  0.55106  1.0000
  C   C30       1.0  0.21707  0.50823  0.44894  1.0000
  C   C31       1.0  0.82966  0.44587  0.62475  1.0000
  C   C32       1.0  0.17034  0.55413  0.37525  1.0000
  C   C33       1.0  0.82796  0.32971  0.60723  1.0000
  C   C34       1.0  0.17204  0.67029  0.39277  1.0000
  C   C35       1.0  0.78036  0.25396  0.51516  1.0000
  C   C36       1.0  0.21964  0.74604  0.48484  1.0000
  C   C37       1.0  0.73320  0.29623  0.44194  1.0000
  C   C38       1.0  0.26681  0.70377  0.55806  1.0000
  C   C39       1.0  0.73172  0.41491  0.45827  1.0000
  C   C40       1.0  0.26828  0.58509  0.54173  1.0000
  C   C41       1.0  0.37573  0.11085  0.62446  1.0000
  C   C42       1.0  0.62426  0.88916  0.37554  1.0000
  C   C43       1.0  0.88742  0.02006  0.62713  1.0000
  C   C44       1.0  0.11259  0.97993  0.37287  1.0000
  O   O1        1.0  0.90665  0.12272  0.00837  1.0000
  O   O2        1.0  0.09335  0.87728  0.99164  1.0000
  O   O3        1.0  0.56589  0.15229  0.06153  1.0000
  O   O4        1.0  0.43411  0.84772  0.93847  1.0000
  O   O5        1.0  0.50311  0.13421  0.31832  1.0000
  O   O6        1.0  0.49689  0.86579  0.68169  1.0000
  O   O7        1.0  0.84278  0.14770  0.26935  1.0000
  O   O8        1.0  0.15721  0.85230  0.73064  1.0000
  O   O9        1.0  0.44544  0.08338  0.70499  1.0000
  O   O10       1.0  0.55455  0.91663  0.29502  1.0000
  O   O11       1.0  0.96854  0.02862  0.71819  1.0000
  O   O12       1.0  0.03146  0.97137  0.28181  1.0000
