data_image0
_chemical_formula_structural       Zn4H56C32N8O24
_chemical_formula_sum              "Zn4 H56 C32 N8 O24"
_cell_length_a       7.82638
_cell_length_b       9.84019
_cell_length_c       15.421
_cell_angle_alpha    90
_cell_angle_beta     90
_cell_angle_gamma    90

_space_group_name_H-M_alt    "P 1"
_space_group_IT_number       1

loop_
  _space_group_symop_operation_xyz
  'x, y, z'

loop_
  _atom_site_type_symbol
  _atom_site_label
  _atom_site_symmetry_multiplicity
  _atom_site_fract_x
  _atom_site_fract_y
  _atom_site_fract_z
  _atom_site_occupancy
  Zn  Zn1       1.0  0.15874  0.75000  0.00000  1.0000
  Zn  Zn2       1.0  0.34127  0.25000  0.50000  1.0000
  Zn  Zn3       1.0  0.84127  0.25000  1.00000  1.0000
  Zn  Zn4       1.0  0.65874  0.75000  0.50000  1.0000
  H   H1        1.0  0.47221  0.87461  0.92981  1.0000
  H   H2        1.0  0.02779  0.12539  0.42981  1.0000
  H   H3        1.0  0.47221  0.62539  0.07019  1.0000
  H   H4        1.0  0.02779  0.37461  0.57019  1.0000
  H   H5        1.0  0.52779  0.12539  0.07019  1.0000
  H   H6        1.0  0.97221  0.87461  0.57019  1.0000
  H   H7        1.0  0.52779  0.37461  0.92981  1.0000
  H   H8        1.0  0.97221  0.62539  0.42981  1.0000
  H   H9        1.0  0.70326  0.56831  0.81759  1.0000
  H   H10       1.0  0.79674  0.43169  0.31759  1.0000
  H   H11       1.0  0.70326  0.93169  0.18241  1.0000
  H   H12       1.0  0.79674  0.06831  0.68241  1.0000
  H   H13       1.0  0.29674  0.43169  0.18241  1.0000
  H   H14       1.0  0.20326  0.56831  0.68241  1.0000
  H   H15       1.0  0.29674  0.06831  0.81759  1.0000
  H   H16       1.0  0.20326  0.93169  0.31759  1.0000
  H   H17       1.0  0.64555  0.65981  0.72073  1.0000
  H   H18       1.0  0.85445  0.34019  0.22073  1.0000
  H   H19       1.0  0.64555  0.84019  0.27927  1.0000
  H   H20       1.0  0.85446  0.15981  0.77927  1.0000
  H   H21       1.0  0.35446  0.34019  0.27927  1.0000
  H   H22       1.0  0.14555  0.65981  0.77927  1.0000
  H   H23       1.0  0.35445  0.15981  0.72073  1.0000
  H   H24       1.0  0.14555  0.84019  0.22073  1.0000
  H   H25       1.0  0.48356  0.58359  0.78621  1.0000
  H   H26       1.0  0.01644  0.41641  0.28621  1.0000
  H   H27       1.0  0.48356  0.91641  0.21379  1.0000
  H   H28       1.0  0.01644  0.08359  0.71379  1.0000
  H   H29       1.0  0.51644  0.41641  0.21379  1.0000
  H   H30       1.0  0.98356  0.58359  0.71379  1.0000
  H   H31       1.0  0.51644  0.08359  0.78621  1.0000
  H   H32       1.0  0.98356  0.91641  0.28621  1.0000
  H   H33       1.0  0.70089  0.94960  0.86662  1.0000
  H   H34       1.0  0.79911  0.05040  0.36662  1.0000
  H   H35       1.0  0.70089  0.55040  0.13338  1.0000
  H   H36       1.0  0.79911  0.44960  0.63338  1.0000
  H   H37       1.0  0.29911  0.05040  0.13338  1.0000
  H   H38       1.0  0.20089  0.94960  0.63338  1.0000
  H   H39       1.0  0.29911  0.44960  0.86662  1.0000
  H   H40       1.0  0.20089  0.55040  0.36662  1.0000
  H   H41       1.0  0.72495  0.89411  0.75672  1.0000
  H   H42       1.0  0.77505  0.10589  0.25672  1.0000
  H   H43       1.0  0.72495  0.60589  0.24328  1.0000
  H   H44       1.0  0.77505  0.39411  0.74328  1.0000
  H   H45       1.0  0.27505  0.10589  0.24328  1.0000
  H   H46       1.0  0.22495  0.89411  0.74328  1.0000
  H   H47       1.0  0.27505  0.39411  0.75672  1.0000
  H   H48       1.0  0.22495  0.60589  0.25672  1.0000
  H   H49       1.0  0.85033  0.81748  0.84086  1.0000
  H   H50       1.0  0.64966  0.18252  0.34086  1.0000
  H   H51       1.0  0.85033  0.68252  0.15914  1.0000
  H   H52       1.0  0.64966  0.31748  0.65913  1.0000
  H   H53       1.0  0.14966  0.18252  0.15914  1.0000
  H   H54       1.0  0.35034  0.81748  0.65913  1.0000
  H   H55       1.0  0.14966  0.31748  0.84087  1.0000
  H   H56       1.0  0.35034  0.68252  0.34087  1.0000
  C   C1        1.0  0.95068  0.52068  0.95799  1.0000
  C   C2        1.0  0.54932  0.47932  0.45799  1.0000
  C   C3        1.0  0.95068  0.97932  0.04201  1.0000
  C   C4        1.0  0.54932  0.02068  0.54201  1.0000
  C   C5        1.0  0.04932  0.47932  0.04201  1.0000
  C   C6        1.0  0.45068  0.52068  0.54201  1.0000
  C   C7        1.0  0.04932  0.02068  0.95799  1.0000
  C   C8        1.0  0.45068  0.97932  0.45799  1.0000
  C   C9        1.0  0.46993  0.77606  0.89593  1.0000
  C   C10       1.0  0.03007  0.22394  0.39593  1.0000
  C   C11       1.0  0.46993  0.72394  0.10407  1.0000
  C   C12       1.0  0.03007  0.27606  0.60407  1.0000
  C   C13       1.0  0.53007  0.22394  0.10407  1.0000
  C   C14       1.0  0.96993  0.77606  0.60407  1.0000
  C   C15       1.0  0.53007  0.27606  0.89593  1.0000
  C   C16       1.0  0.96993  0.72394  0.39593  1.0000
  C   C17       1.0  0.60744  0.63492  0.78731  1.0000
  C   C18       1.0  0.89256  0.36508  0.28731  1.0000
  C   C19       1.0  0.60744  0.86508  0.21269  1.0000
  C   C20       1.0  0.89256  0.13492  0.71269  1.0000
  C   C21       1.0  0.39256  0.36508  0.21269  1.0000
  C   C22       1.0  0.10744  0.63492  0.71269  1.0000
  C   C23       1.0  0.39256  0.13492  0.78731  1.0000
  C   C24       1.0  0.10744  0.86508  0.28731  1.0000
  C   C25       1.0  0.72538  0.86152  0.82484  1.0000
  C   C26       1.0  0.77462  0.13848  0.32484  1.0000
  C   C27       1.0  0.72538  0.63848  0.17516  1.0000
  C   C28       1.0  0.77462  0.36152  0.67516  1.0000
  C   C29       1.0  0.27462  0.13848  0.17516  1.0000
  C   C30       1.0  0.22538  0.86152  0.67516  1.0000
  C   C31       1.0  0.27462  0.36152  0.82484  1.0000
  C   C32       1.0  0.22538  0.63848  0.32484  1.0000
  N   N1        1.0  0.59279  0.75971  0.83740  1.0000
  N   N2        1.0  0.90721  0.24029  0.33740  1.0000
  N   N3        1.0  0.59279  0.74029  0.16260  1.0000
  N   N4        1.0  0.90721  0.25971  0.66260  1.0000
  N   N5        1.0  0.40722  0.24029  0.16260  1.0000
  N   N6        1.0  0.09279  0.75971  0.66260  1.0000
  N   N7        1.0  0.40721  0.25971  0.83740  1.0000
  N   N8        1.0  0.09279  0.74029  0.33740  1.0000
  O   O1        1.0  0.85044  0.43289  0.92575  1.0000
  O   O2        1.0  0.64957  0.56711  0.42575  1.0000
  O   O3        1.0  0.85044  0.06711  0.07425  1.0000
  O   O4        1.0  0.64957  0.93289  0.57425  1.0000
  O   O5        1.0  0.14956  0.56711  0.07425  1.0000
  O   O6        1.0  0.35043  0.43289  0.57425  1.0000
  O   O7        1.0  0.14956  0.93289  0.92575  1.0000
  O   O8        1.0  0.35043  0.06711  0.42575  1.0000
  O   O9        1.0  0.97787  0.63835  0.92776  1.0000
  O   O10       1.0  0.52213  0.36165  0.42776  1.0000
  O   O11       1.0  0.97787  0.86165  0.07224  1.0000
  O   O12       1.0  0.52213  0.13835  0.57224  1.0000
  O   O13       1.0  0.02213  0.36165  0.07224  1.0000
  O   O14       1.0  0.47787  0.63835  0.57224  1.0000
  O   O15       1.0  0.02213  0.13835  0.92776  1.0000
  O   O16       1.0  0.47787  0.86165  0.42776  1.0000
  O   O17       1.0  0.35701  0.68792  0.91254  1.0000
  O   O18       1.0  0.14299  0.31207  0.41254  1.0000
  O   O19       1.0  0.35701  0.81207  0.08746  1.0000
  O   O20       1.0  0.14299  0.18793  0.58746  1.0000
  O   O21       1.0  0.64299  0.31207  0.08746  1.0000
  O   O22       1.0  0.85701  0.68793  0.58746  1.0000
  O   O23       1.0  0.64299  0.18793  0.91254  1.0000
  O   O24       1.0  0.85701  0.81207  0.41254  1.0000
