data_image0
_chemical_formula_structural       Ag4H68C32S4N8O16
_chemical_formula_sum              "Ag4 H68 C32 S4 N8 O16"
_cell_length_a       10.0206
_cell_length_b       10.8633
_cell_length_c       12.875
_cell_angle_alpha    90.945
_cell_angle_beta     90
_cell_angle_gamma    90

_space_group_name_H-M_alt    "P 1"
_space_group_IT_number       1

loop_
  _space_group_symop_operation_xyz
  'x, y, z'

loop_
  _atom_site_type_symbol
  _atom_site_label
  _atom_site_symmetry_multiplicity
  _atom_site_fract_x
  _atom_site_fract_y
  _atom_site_fract_z
  _atom_site_occupancy
  Ag  Ag1       1.0  0.84208  0.61452  0.70483  1.0000
  Ag  Ag2       1.0  0.34208  0.88549  0.79517  1.0000
  Ag  Ag3       1.0  0.15792  0.38549  0.29517  1.0000
  Ag  Ag4       1.0  0.65792  0.11451  0.20483  1.0000
  H   H1        1.0  0.73443  0.83796  0.22164  1.0000
  H   H2        1.0  0.23442  0.66204  0.27838  1.0000
  H   H3        1.0  0.26558  0.16204  0.77837  1.0000
  H   H4        1.0  0.76558  0.33797  0.72163  1.0000
  H   H5        1.0  0.90699  0.31704  0.42920  1.0000
  H   H6        1.0  0.40699  0.18295  0.07079  1.0000
  H   H7        1.0  0.09301  0.68295  0.57079  1.0000
  H   H8        1.0  0.59300  0.81705  0.92921  1.0000
  H   H9        1.0  0.76562  0.29669  0.34578  1.0000
  H   H10       1.0  0.26561  0.20331  0.15421  1.0000
  H   H11       1.0  0.23438  0.70331  0.65421  1.0000
  H   H12       1.0  0.73438  0.79670  0.84579  1.0000
  H   H13       1.0  0.79230  0.33666  0.15510  1.0000
  H   H14       1.0  0.29230  0.16334  0.34490  1.0000
  H   H15       1.0  0.20770  0.66334  0.84490  1.0000
  H   H16       1.0  0.70770  0.83666  0.65510  1.0000
  H   H17       1.0  0.95014  0.38946  0.11127  1.0000
  H   H18       1.0  0.45014  0.11054  0.38873  1.0000
  H   H19       1.0  0.04986  0.61054  0.88873  1.0000
  H   H20       1.0  0.54987  0.88946  0.61127  1.0000
  H   H21       1.0  0.05486  0.19153  0.15787  1.0000
  H   H22       1.0  0.55487  0.30846  0.34213  1.0000
  H   H23       1.0  0.94514  0.80847  0.84213  1.0000
  H   H24       1.0  0.44514  0.69153  0.65787  1.0000
  H   H25       1.0  0.91762  0.16901  0.07049  1.0000
  H   H26       1.0  0.41763  0.33099  0.42951  1.0000
  H   H27       1.0  0.08237  0.83099  0.92951  1.0000
  H   H28       1.0  0.58238  0.66901  0.57049  1.0000
  H   H29       1.0  0.87097  0.09866  0.38806  1.0000
  H   H30       1.0  0.37097  0.40134  0.11193  1.0000
  H   H31       1.0  0.12903  0.90134  0.61193  1.0000
  H   H32       1.0  0.62902  0.59866  0.88807  1.0000
  H   H33       1.0  0.02803  0.15096  0.34248  1.0000
  H   H34       1.0  0.52803  0.34904  0.15751  1.0000
  H   H35       1.0  0.97198  0.84904  0.65751  1.0000
  H   H36       1.0  0.47197  0.65097  0.84249  1.0000
  H   H37       1.0  0.91188  0.55679  0.22268  1.0000
  H   H38       1.0  0.41188  0.94321  0.27732  1.0000
  H   H39       1.0  0.08812  0.44321  0.77731  1.0000
  H   H40       1.0  0.58813  0.05679  0.72268  1.0000
  H   H41       1.0  0.76622  0.49254  0.27912  1.0000
  H   H42       1.0  0.26621  0.00746  0.22088  1.0000
  H   H43       1.0  0.23378  0.50746  0.72088  1.0000
  H   H44       1.0  0.73379  0.99254  0.77912  1.0000
  H   H45       1.0  0.89715  0.49937  0.45518  1.0000
  H   H46       1.0  0.39714  0.00063  0.04482  1.0000
  H   H47       1.0  0.10286  0.50063  0.54482  1.0000
  H   H48       1.0  0.60286  0.99937  0.95518  1.0000
  H   H49       1.0  0.01263  0.59826  0.39063  1.0000
  H   H50       1.0  0.51262  0.90173  0.10937  1.0000
  H   H51       1.0  0.98738  0.40174  0.60936  1.0000
  H   H52       1.0  0.48738  0.09827  0.89063  1.0000
  H   H53       1.0  0.04122  0.99043  0.18810  1.0000
  H   H54       1.0  0.54122  0.50957  0.31189  1.0000
  H   H55       1.0  0.95878  0.00957  0.81189  1.0000
  H   H56       1.0  0.45878  0.49043  0.68811  1.0000
  H   H57       1.0  0.92505  0.93851  0.28250  1.0000
  H   H58       1.0  0.42505  0.56150  0.21750  1.0000
  H   H59       1.0  0.07495  0.06150  0.71750  1.0000
  H   H60       1.0  0.57494  0.43850  0.78250  1.0000
  H   H61       1.0  0.91717  0.82904  0.10998  1.0000
  H   H62       1.0  0.41717  0.67095  0.39002  1.0000
  H   H63       1.0  0.08283  0.17095  0.89002  1.0000
  H   H64       1.0  0.58283  0.32905  0.60998  1.0000
  H   H65       1.0  0.85286  0.96521  0.05289  1.0000
  H   H66       1.0  0.35287  0.53478  0.44711  1.0000
  H   H67       1.0  0.14714  0.03478  0.94711  1.0000
  H   H68       1.0  0.64713  0.46522  0.55289  1.0000
  C   C1        1.0  0.87580  0.29008  0.35054  1.0000
  C   C2        1.0  0.37580  0.20992  0.14946  1.0000
  C   C3        1.0  0.12420  0.70992  0.64946  1.0000
  C   C4        1.0  0.62420  0.79008  0.85054  1.0000
  C   C5        1.0  0.90115  0.32978  0.16783  1.0000
  C   C6        1.0  0.40115  0.17022  0.33217  1.0000
  C   C7        1.0  0.09885  0.67022  0.83216  1.0000
  C   C8        1.0  0.59885  0.82978  0.66784  1.0000
  C   C9        1.0  0.94500  0.19810  0.14972  1.0000
  C   C10       1.0  0.44500  0.30190  0.35027  1.0000
  C   C11       1.0  0.05500  0.80190  0.85027  1.0000
  C   C12       1.0  0.55500  0.69810  0.64973  1.0000
  C   C13       1.0  0.91905  0.15825  0.33104  1.0000
  C   C14       1.0  0.41905  0.34175  0.16896  1.0000
  C   C15       1.0  0.08095  0.84175  0.66896  1.0000
  C   C16       1.0  0.58095  0.65825  0.83105  1.0000
  C   C17       1.0  0.87578  0.50049  0.28697  1.0000
  C   C18       1.0  0.37578  0.99951  0.21303  1.0000
  C   C19       1.0  0.12422  0.49951  0.71303  1.0000
  C   C20       1.0  0.62422  0.00049  0.78697  1.0000
  C   C21       1.0  0.91026  0.56209  0.39013  1.0000
  C   C22       1.0  0.41025  0.93791  0.10986  1.0000
  C   C23       1.0  0.08974  0.43791  0.60986  1.0000
  C   C24       1.0  0.58975  0.06209  0.89014  1.0000
  C   C25       1.0  0.93464  0.98728  0.20891  1.0000
  C   C26       1.0  0.43464  0.51272  0.29109  1.0000
  C   C27       1.0  0.06536  0.01272  0.79109  1.0000
  C   C28       1.0  0.56536  0.48728  0.70891  1.0000
  C   C29       1.0  0.86030  0.91398  0.12564  1.0000
  C   C30       1.0  0.36031  0.58601  0.37437  1.0000
  C   C31       1.0  0.13970  0.08602  0.87437  1.0000
  C   C32       1.0  0.63969  0.41399  0.62564  1.0000
  S   S1        1.0  0.79882  0.68736  0.41993  1.0000
  S   S2        1.0  0.29880  0.81264  0.08008  1.0000
  S   S3        1.0  0.20119  0.31264  0.58007  1.0000
  S   S4        1.0  0.70119  0.18736  0.91992  1.0000
  N   N1        1.0  0.93511  0.37552  0.27419  1.0000
  N   N2        1.0  0.43511  0.12448  0.22581  1.0000
  N   N3        1.0  0.06489  0.62448  0.72581  1.0000
  N   N4        1.0  0.56489  0.87552  0.77419  1.0000
  N   N5        1.0  0.88275  0.11442  0.22527  1.0000
  N   N6        1.0  0.38275  0.38558  0.27472  1.0000
  N   N7        1.0  0.11725  0.88558  0.77472  1.0000
  N   N8        1.0  0.61725  0.61442  0.72528  1.0000
  O   O1        1.0  0.66528  0.63192  0.42431  1.0000
  O   O2        1.0  0.16528  0.86808  0.07569  1.0000
  O   O3        1.0  0.33472  0.36808  0.57569  1.0000
  O   O4        1.0  0.83472  0.13193  0.92430  1.0000
  O   O5        1.0  0.84602  0.73635  0.52092  1.0000
  O   O6        1.0  0.34601  0.76364  0.97909  1.0000
  O   O7        1.0  0.15399  0.26364  0.47908  1.0000
  O   O8        1.0  0.65399  0.23636  0.02092  1.0000
  O   O9        1.0  0.81338  0.77576  0.33511  1.0000
  O   O10       1.0  0.31336  0.72423  0.16489  1.0000
  O   O11       1.0  0.18663  0.22424  0.66489  1.0000
  O   O12       1.0  0.68662  0.27577  0.83511  1.0000
  O   O13       1.0  0.72585  0.88601  0.15711  1.0000
  O   O14       1.0  0.22585  0.61398  0.34291  1.0000
  O   O15       1.0  0.27415  0.11399  0.84290  1.0000
  O   O16       1.0  0.77415  0.38602  0.65710  1.0000
