data_image0
_chemical_formula_structural       Zn4H56C56N8O24
_chemical_formula_sum              "Zn4 H56 C56 N8 O24"
_cell_length_a       8.00921
_cell_length_b       11.9327
_cell_length_c       15.721
_cell_angle_alpha    90
_cell_angle_beta     90
_cell_angle_gamma    90

_space_group_name_H-M_alt    "P 1"
_space_group_IT_number       1

loop_
  _space_group_symop_operation_xyz
  'x, y, z'

loop_
  _atom_site_type_symbol
  _atom_site_label
  _atom_site_symmetry_multiplicity
  _atom_site_fract_x
  _atom_site_fract_y
  _atom_site_fract_z
  _atom_site_occupancy
  Zn  Zn1       1.0  1.00000  0.50000  0.50000  1.0000
  Zn  Zn2       1.0  0.50000  0.50000  0.00000  1.0000
  Zn  Zn3       1.0  0.50000  0.00000  0.50000  1.0000
  Zn  Zn4       1.0  0.00000  0.00000  0.00000  1.0000
  H   H1        1.0  0.80657  0.32736  0.46970  1.0000
  H   H2        1.0  0.69343  0.67264  0.96970  1.0000
  H   H3        1.0  0.30657  0.17264  0.53030  1.0000
  H   H4        1.0  0.19343  0.82736  0.03030  1.0000
  H   H5        1.0  0.19343  0.67264  0.53030  1.0000
  H   H6        1.0  0.30657  0.32736  0.03030  1.0000
  H   H7        1.0  0.69343  0.82736  0.46970  1.0000
  H   H8        1.0  0.80657  0.17264  0.96970  1.0000
  H   H9        1.0  0.99281  0.28256  0.45708  1.0000
  H   H10       1.0  0.50719  0.71744  0.95708  1.0000
  H   H11       1.0  0.49281  0.21744  0.54292  1.0000
  H   H12       1.0  0.00719  0.78256  0.04292  1.0000
  H   H13       1.0  0.00719  0.71744  0.54292  1.0000
  H   H14       1.0  0.49281  0.28256  0.04292  1.0000
  H   H15       1.0  0.50719  0.78256  0.45708  1.0000
  H   H16       1.0  0.99281  0.21744  0.95708  1.0000
  H   H17       1.0  0.05327  0.79120  0.25332  1.0000
  H   H18       1.0  0.44673  0.20880  0.75332  1.0000
  H   H19       1.0  0.55327  0.70880  0.74668  1.0000
  H   H20       1.0  0.94673  0.29120  0.24668  1.0000
  H   H21       1.0  0.94673  0.20880  0.74668  1.0000
  H   H22       1.0  0.55327  0.79120  0.24668  1.0000
  H   H23       1.0  0.44673  0.29120  0.25332  1.0000
  H   H24       1.0  0.05327  0.70880  0.75332  1.0000
  H   H25       1.0  0.23713  0.46096  0.19152  1.0000
  H   H26       1.0  0.26287  0.53904  0.69152  1.0000
  H   H27       1.0  0.73713  0.03904  0.80848  1.0000
  H   H28       1.0  0.76287  0.96096  0.30848  1.0000
  H   H29       1.0  0.76288  0.53904  0.80848  1.0000
  H   H30       1.0  0.73713  0.46096  0.30848  1.0000
  H   H31       1.0  0.26287  0.96096  0.19152  1.0000
  H   H32       1.0  0.23713  0.03904  0.69152  1.0000
  H   H33       1.0  0.98843  0.71956  0.39979  1.0000
  H   H34       1.0  0.51156  0.28044  0.89978  1.0000
  H   H35       1.0  0.48844  0.78044  0.60022  1.0000
  H   H36       1.0  0.01157  0.21956  0.10022  1.0000
  H   H37       1.0  0.01157  0.28044  0.60021  1.0000
  H   H38       1.0  0.48844  0.71956  0.10022  1.0000
  H   H39       1.0  0.51157  0.21956  0.39978  1.0000
  H   H40       1.0  0.98844  0.78044  0.89978  1.0000
  H   H41       1.0  0.16235  0.40261  0.34065  1.0000
  H   H42       1.0  0.33765  0.59739  0.84065  1.0000
  H   H43       1.0  0.66235  0.09739  0.65935  1.0000
  H   H44       1.0  0.83765  0.90261  0.15935  1.0000
  H   H45       1.0  0.83765  0.59739  0.65935  1.0000
  H   H46       1.0  0.66235  0.40261  0.15935  1.0000
  H   H47       1.0  0.33765  0.90261  0.34065  1.0000
  H   H48       1.0  0.16235  0.09739  0.84065  1.0000
  H   H49       1.0  0.17953  0.65924  0.14710  1.0000
  H   H50       1.0  0.32047  0.34076  0.64710  1.0000
  H   H51       1.0  0.67953  0.84076  0.85290  1.0000
  H   H52       1.0  0.82047  0.15924  0.35290  1.0000
  H   H53       1.0  0.82047  0.34076  0.85290  1.0000
  H   H54       1.0  0.67953  0.65924  0.35290  1.0000
  H   H55       1.0  0.32047  0.15924  0.14710  1.0000
  H   H56       1.0  0.17953  0.84076  0.64710  1.0000
  C   C1        1.0  0.55239  0.42057  0.50660  1.0000
  C   C2        1.0  0.94761  0.57943  0.00660  1.0000
  C   C3        1.0  0.05239  0.07943  0.49340  1.0000
  C   C4        1.0  0.44761  0.92057  0.99340  1.0000
  C   C5        1.0  0.44760  0.57943  0.49340  1.0000
  C   C6        1.0  0.05239  0.42057  0.99340  1.0000
  C   C7        1.0  0.94761  0.92057  0.50660  1.0000
  C   C8        1.0  0.55239  0.07943  0.00660  1.0000
  C   C9        1.0  0.38063  0.46541  0.50692  1.0000
  C   C10       1.0  0.11937  0.53459  0.00692  1.0000
  C   C11       1.0  0.88063  0.03459  0.49308  1.0000
  C   C12       1.0  0.61937  0.96541  0.99308  1.0000
  C   C13       1.0  0.61937  0.53459  0.49308  1.0000
  C   C14       1.0  0.88063  0.46541  0.99308  1.0000
  C   C15       1.0  0.11937  0.96541  0.50692  1.0000
  C   C16       1.0  0.38063  0.03459  0.00693  1.0000
  C   C17       1.0  0.08020  0.70451  0.27033  1.0000
  C   C18       1.0  0.41980  0.29549  0.77033  1.0000
  C   C19       1.0  0.58020  0.79549  0.72967  1.0000
  C   C20       1.0  0.91980  0.20451  0.22967  1.0000
  C   C21       1.0  0.91980  0.29549  0.72967  1.0000
  C   C22       1.0  0.58020  0.70451  0.22967  1.0000
  C   C23       1.0  0.41980  0.20451  0.27033  1.0000
  C   C24       1.0  0.08020  0.79549  0.77033  1.0000
  C   C25       1.0  0.18107  0.52056  0.23575  1.0000
  C   C26       1.0  0.31893  0.47944  0.73575  1.0000
  C   C27       1.0  0.68107  0.97944  0.76425  1.0000
  C   C28       1.0  0.81893  0.02056  0.26425  1.0000
  C   C29       1.0  0.81893  0.47944  0.76425  1.0000
  C   C30       1.0  0.68107  0.52056  0.26425  1.0000
  C   C31       1.0  0.31893  0.02056  0.23575  1.0000
  C   C32       1.0  0.18107  0.97944  0.73575  1.0000
  C   C33       1.0  0.04380  0.66528  0.35165  1.0000
  C   C34       1.0  0.45620  0.33472  0.85165  1.0000
  C   C35       1.0  0.54380  0.83472  0.64835  1.0000
  C   C36       1.0  0.95620  0.16528  0.14835  1.0000
  C   C37       1.0  0.95620  0.33472  0.64835  1.0000
  C   C38       1.0  0.54380  0.66528  0.14835  1.0000
  C   C39       1.0  0.45620  0.16528  0.35165  1.0000
  C   C40       1.0  0.04380  0.83472  0.85165  1.0000
  C   C41       1.0  0.14075  0.48790  0.31830  1.0000
  C   C42       1.0  0.35925  0.51210  0.81830  1.0000
  C   C43       1.0  0.64075  0.01210  0.68170  1.0000
  C   C44       1.0  0.85925  0.98790  0.18170  1.0000
  C   C45       1.0  0.85925  0.51210  0.68170  1.0000
  C   C46       1.0  0.64075  0.48790  0.18170  1.0000
  C   C47       1.0  0.35925  0.98790  0.31830  1.0000
  C   C48       1.0  0.14075  0.01210  0.81830  1.0000
  C   C49       1.0  0.14969  0.63106  0.21119  1.0000
  C   C50       1.0  0.35031  0.36894  0.71119  1.0000
  C   C51       1.0  0.64969  0.86894  0.78881  1.0000
  C   C52       1.0  0.85031  0.13106  0.28881  1.0000
  C   C53       1.0  0.85031  0.36894  0.78881  1.0000
  C   C54       1.0  0.64969  0.63106  0.28881  1.0000
  C   C55       1.0  0.35031  0.13106  0.21119  1.0000
  C   C56       1.0  0.14969  0.86894  0.71119  1.0000
  N   N1        1.0  0.07257  0.55864  0.37531  1.0000
  N   N2        1.0  0.42743  0.44136  0.87531  1.0000
  N   N3        1.0  0.57258  0.94136  0.62469  1.0000
  N   N4        1.0  0.92742  0.05864  0.12469  1.0000
  N   N5        1.0  0.92742  0.44136  0.62469  1.0000
  N   N6        1.0  0.57257  0.55864  0.12469  1.0000
  N   N7        1.0  0.42743  0.05864  0.37531  1.0000
  N   N8        1.0  0.07258  0.94136  0.87531  1.0000
  O   O1        1.0  0.91598  0.34593  0.44207  1.0000
  O   O2        1.0  0.58403  0.65407  0.94207  1.0000
  O   O3        1.0  0.41598  0.15407  0.55793  1.0000
  O   O4        1.0  0.08402  0.84593  0.05793  1.0000
  O   O5        1.0  0.08402  0.65407  0.55793  1.0000
  O   O6        1.0  0.41597  0.34593  0.05793  1.0000
  O   O7        1.0  0.58402  0.84593  0.44207  1.0000
  O   O8        1.0  0.91598  0.15407  0.94207  1.0000
  O   O9        1.0  0.61571  0.32396  0.51354  1.0000
  O   O10       1.0  0.88429  0.67605  0.01354  1.0000
  O   O11       1.0  0.11571  0.17604  0.48646  1.0000
  O   O12       1.0  0.38429  0.82395  0.98646  1.0000
  O   O13       1.0  0.38428  0.67604  0.48646  1.0000
  O   O14       1.0  0.11571  0.32395  0.98646  1.0000
  O   O15       1.0  0.88429  0.82396  0.51354  1.0000
  O   O16       1.0  0.61571  0.17605  0.01354  1.0000
  O   O17       1.0  0.23899  0.42083  0.51552  1.0000
  O   O18       1.0  0.26101  0.57916  0.01552  1.0000
  O   O19       1.0  0.73899  0.07916  0.48448  1.0000
  O   O20       1.0  0.76101  0.92084  0.98448  1.0000
  O   O21       1.0  0.76101  0.57917  0.48448  1.0000
  O   O22       1.0  0.73899  0.42084  0.98448  1.0000
  O   O23       1.0  0.26101  0.92084  0.51552  1.0000
  O   O24       1.0  0.23899  0.07916  0.01552  1.0000
