data_image0
_chemical_formula_structural       Na4H16C24S4N12O12
_chemical_formula_sum              "Na4 H16 C24 S4 N12 O12"
_cell_length_a       5.79475
_cell_length_b       8.42114
_cell_length_c       17.4187
_cell_angle_alpha    90
_cell_angle_beta     89.6065
_cell_angle_gamma    89.9995

_space_group_name_H-M_alt    "P 1"
_space_group_IT_number       1

loop_
  _space_group_symop_operation_xyz
  'x, y, z'

loop_
  _atom_site_type_symbol
  _atom_site_label
  _atom_site_symmetry_multiplicity
  _atom_site_fract_x
  _atom_site_fract_y
  _atom_site_fract_z
  _atom_site_occupancy
  Na  Na1       1.0  0.36913  0.68351  0.98131  1.0000
  Na  Na2       1.0  0.13087  0.18351  0.01869  1.0000
  Na  Na3       1.0  0.63088  0.31648  0.01869  1.0000
  Na  Na4       1.0  0.86913  0.81649  0.98130  1.0000
  H   H1        1.0  0.97108  0.34634  0.24673  1.0000
  H   H2        1.0  0.52893  0.84633  0.75326  1.0000
  H   H3        1.0  0.02893  0.65367  0.75328  1.0000
  H   H4        1.0  0.47107  0.15365  0.24673  1.0000
  H   H5        1.0  0.15890  0.34097  0.37619  1.0000
  H   H6        1.0  0.34108  0.84096  0.62381  1.0000
  H   H7        1.0  0.84111  0.65906  0.62382  1.0000
  H   H8        1.0  0.65889  0.15904  0.37619  1.0000
  H   H9        1.0  0.69928  0.64793  0.29005  1.0000
  H   H10       1.0  0.80071  0.14794  0.70995  1.0000
  H   H11       1.0  0.30074  0.35208  0.70995  1.0000
  H   H12       1.0  0.19928  0.85207  0.29005  1.0000
  H   H13       1.0  0.51403  0.65262  0.16289  1.0000
  H   H14       1.0  0.98598  0.15262  0.83711  1.0000
  H   H15       1.0  0.48598  0.34737  0.83712  1.0000
  H   H16       1.0  0.01403  0.84736  0.16289  1.0000
  C   C1        1.0  0.23084  0.50035  0.19770  1.0000
  C   C2        1.0  0.26916  0.00036  0.80230  1.0000
  C   C3        1.0  0.76917  0.49966  0.80230  1.0000
  C   C4        1.0  0.73084  0.99964  0.19769  1.0000
  C   C5        1.0  0.12941  0.41250  0.25709  1.0000
  C   C6        1.0  0.37058  0.91250  0.74290  1.0000
  C   C7        1.0  0.87060  0.58751  0.74291  1.0000
  C   C8        1.0  0.62940  0.08748  0.25709  1.0000
  C   C9        1.0  0.23381  0.40917  0.32898  1.0000
  C   C10       1.0  0.26618  0.90916  0.67101  1.0000
  C   C11       1.0  0.76619  0.59085  0.67103  1.0000
  C   C12       1.0  0.73380  0.09083  0.32898  1.0000
  C   C13       1.0  0.43902  0.49382  0.34096  1.0000
  C   C14       1.0  0.06098  0.99382  0.65904  1.0000
  C   C15       1.0  0.56098  0.50619  0.65905  1.0000
  C   C16       1.0  0.93902  0.00618  0.34095  1.0000
  C   C17       1.0  0.53925  0.58244  0.28107  1.0000
  C   C18       1.0  0.96075  0.08244  0.71893  1.0000
  C   C19       1.0  0.46076  0.41757  0.71893  1.0000
  C   C20       1.0  0.03925  0.91755  0.28108  1.0000
  C   C21       1.0  0.43580  0.58469  0.20944  1.0000
  C   C22       1.0  0.06420  0.08470  0.79055  1.0000
  C   C23       1.0  0.56423  0.41531  0.79056  1.0000
  C   C24       1.0  0.93579  0.91530  0.20945  1.0000
  S   S1        1.0  0.11060  0.50024  0.10420  1.0000
  S   S2        1.0  0.38939  0.00024  0.89579  1.0000
  S   S3        1.0  0.88941  0.49975  0.89580  1.0000
  S   S4        1.0  0.61060  0.99975  0.10420  1.0000
  N   N1        1.0  0.53776  0.48261  0.41454  1.0000
  N   N2        1.0  0.96222  0.98261  0.58546  1.0000
  N   N3        1.0  0.46226  0.51741  0.58547  1.0000
  N   N4        1.0  0.03775  0.01739  0.41454  1.0000
  N   N5        1.0  0.70813  0.56413  0.42992  1.0000
  N   N6        1.0  0.79185  0.06413  0.57008  1.0000
  N   N7        1.0  0.29190  0.43589  0.57009  1.0000
  N   N8        1.0  0.20811  0.93588  0.42992  1.0000
  N   N9        1.0  0.86510  0.63258  0.45232  1.0000
  N   N10       1.0  0.63489  0.13259  0.54768  1.0000
  N   N11       1.0  0.13490  0.36742  0.54768  1.0000
  N   N12       1.0  0.36511  0.86741  0.45232  1.0000
  O   O1        1.0  0.05681  0.66505  0.08291  1.0000
  O   O2        1.0  0.44320  0.16505  0.91709  1.0000
  O   O3        1.0  0.94320  0.33494  0.91709  1.0000
  O   O4        1.0  0.55680  0.83494  0.08291  1.0000
  O   O5        1.0  0.91132  0.39339  0.10715  1.0000
  O   O6        1.0  0.58866  0.89338  0.89284  1.0000
  O   O7        1.0  0.08869  0.60660  0.89285  1.0000
  O   O8        1.0  0.41133  0.10660  0.10715  1.0000
  O   O9        1.0  0.29500  0.43903  0.05255  1.0000
  O   O10       1.0  0.20498  0.93903  0.94744  1.0000
  O   O11       1.0  0.70501  0.56096  0.94745  1.0000
  O   O12       1.0  0.79501  0.06096  0.05256  1.0000
