data_image0
_chemical_formula_structural       Mo2H8C38N2O8F20
_chemical_formula_sum              "Mo2 H8 C38 N2 O8 F20"
_cell_length_a       8.90853
_cell_length_b       9.84269
_cell_length_c       11.1565
_cell_angle_alpha    100.227
_cell_angle_beta     94.5891
_cell_angle_gamma    99.7824

_space_group_name_H-M_alt    "P 1"
_space_group_IT_number       1

loop_
  _space_group_symop_operation_xyz
  'x, y, z'

loop_
  _atom_site_type_symbol
  _atom_site_label
  _atom_site_symmetry_multiplicity
  _atom_site_fract_x
  _atom_site_fract_y
  _atom_site_fract_z
  _atom_site_occupancy
  Mo  Mo1       1.0  0.94467  0.58375  0.47976  1.0000
  Mo  Mo2       1.0  0.05534  0.41624  0.52024  1.0000
  H   H1        1.0  0.57379  0.60648  0.39094  1.0000
  H   H2        1.0  0.42620  0.39353  0.60906  1.0000
  H   H3        1.0  0.92353  0.92264  0.57878  1.0000
  H   H4        1.0  0.07647  0.07736  0.42122  1.0000
  H   H5        1.0  0.75554  0.09834  0.59452  1.0000
  H   H6        1.0  0.24446  0.90167  0.40549  1.0000
  H   H7        1.0  0.38787  0.76672  0.39982  1.0000
  H   H8        1.0  0.61212  0.23329  0.60018  1.0000
  C   C1        1.0  0.76446  0.30483  0.37010  1.0000
  C   C2        1.0  0.23554  0.69517  0.62991  1.0000
  C   C3        1.0  0.89492  0.51684  0.72339  1.0000
  C   C4        1.0  0.10507  0.48316  0.27660  1.0000
  C   C5        1.0  0.64717  0.19840  0.28720  1.0000
  C   C6        1.0  0.35283  0.80160  0.71281  1.0000
  C   C7        1.0  0.50003  0.22399  0.25402  1.0000
  C   C8        1.0  0.49997  0.77601  0.74599  1.0000
  C   C9        1.0  0.38782  0.12166  0.17911  1.0000
  C   C10       1.0  0.61219  0.87834  0.82089  1.0000
  C   C11       1.0  0.42145  0.99081  0.13143  1.0000
  C   C12       1.0  0.57855  0.00919  0.86857  1.0000
  C   C13       1.0  0.56730  0.96352  0.15933  1.0000
  C   C14       1.0  0.43270  0.03648  0.84067  1.0000
  C   C15       1.0  0.67738  0.06527  0.23696  1.0000
  C   C16       1.0  0.32262  0.93473  0.76305  1.0000
  C   C17       1.0  0.85976  0.54485  0.85345  1.0000
  C   C18       1.0  0.14024  0.45514  0.14655  1.0000
  C   C19       1.0  0.94130  0.66340  0.93530  1.0000
  C   C20       1.0  0.05870  0.33659  0.06470  1.0000
  C   C21       1.0  0.90854  0.69657  0.05590  1.0000
  C   C22       1.0  0.09145  0.30343  0.94410  1.0000
  C   C23       1.0  0.79004  0.60942  0.09566  1.0000
  C   C24       1.0  0.20996  0.39058  0.90434  1.0000
  C   C25       1.0  0.70891  0.48881  0.01635  1.0000
  C   C26       1.0  0.29109  0.51118  0.98365  1.0000
  C   C27       1.0  0.74453  0.45805  0.89638  1.0000
  C   C28       1.0  0.25547  0.54195  0.10361  1.0000
  C   C29       1.0  0.60917  0.71679  0.43519  1.0000
  C   C30       1.0  0.39083  0.28323  0.56482  1.0000
  C   C31       1.0  0.80370  0.89260  0.53911  1.0000
  C   C32       1.0  0.19629  0.10741  0.46089  1.0000
  C   C33       1.0  0.70774  0.99093  0.54802  1.0000
  C   C34       1.0  0.29226  0.00907  0.45198  1.0000
  C   C35       1.0  0.55361  0.94987  0.49701  1.0000
  C   C36       1.0  0.44638  0.05014  0.50300  1.0000
  C   C37       1.0  0.50557  0.80795  0.44029  1.0000
  C   C38       1.0  0.49443  0.19206  0.55971  1.0000
  N   N1        1.0  0.75667  0.75756  0.48316  1.0000
  N   N2        1.0  0.24333  0.24244  0.51684  1.0000
  O   O1        1.0  0.75710  0.43593  0.38275  1.0000
  O   O2        1.0  0.24290  0.56407  0.61726  1.0000
  O   O3        1.0  0.87464  0.26321  0.42728  1.0000
  O   O4        1.0  0.12537  0.73679  0.57272  1.0000
  O   O5        1.0  0.85669  0.59699  0.65319  1.0000
  O   O6        1.0  0.14331  0.40300  0.34680  1.0000
  O   O7        1.0  0.96771  0.41699  0.68979  1.0000
  O   O8        1.0  0.03229  0.58300  0.31021  1.0000
  F   F1        1.0  0.46027  0.34788  0.29736  1.0000
  F   F2        1.0  0.53972  0.65211  0.70265  1.0000
  F   F3        1.0  0.24648  0.14701  0.15233  1.0000
  F   F4        1.0  0.75353  0.85299  0.84767  1.0000
  F   F5        1.0  0.31440  0.89305  0.05683  1.0000
  F   F6        1.0  0.68561  0.10695  0.94316  1.0000
  F   F7        1.0  0.60263  0.84002  0.10823  1.0000
  F   F8        1.0  0.39738  0.15998  0.89178  1.0000
  F   F9        1.0  0.81590  0.03143  0.25837  1.0000
  F   F10       1.0  0.18409  0.96856  0.74164  1.0000
  F   F11       1.0  0.05492  0.74910  0.89695  1.0000
  F   F12       1.0  0.94508  0.25088  0.10304  1.0000
  F   F13       1.0  0.98786  0.81182  0.13294  1.0000
  F   F14       1.0  0.01213  0.18818  0.86705  1.0000
  F   F15       1.0  0.75122  0.64263  0.20921  1.0000
  F   F16       1.0  0.24878  0.35737  0.79078  1.0000
  F   F17       1.0  0.59439  0.40578  0.05585  1.0000
  F   F18       1.0  0.40561  0.59422  0.94415  1.0000
  F   F19       1.0  0.66119  0.34363  0.81895  1.0000
  F   F20       1.0  0.33881  0.65636  0.18105  1.0000
