data_image0
_chemical_formula_structural       Cs4H16C24N4O12
_chemical_formula_sum              "Cs4 H16 C24 N4 O12"
_cell_length_a       7.52672
_cell_length_b       8.21633
_cell_length_c       12.4771
_cell_angle_alpha    92.453
_cell_angle_beta     89.9999
_cell_angle_gamma    90.0001

_space_group_name_H-M_alt    "P 1"
_space_group_IT_number       1

loop_
  _space_group_symop_operation_xyz
  'x, y, z'

loop_
  _atom_site_type_symbol
  _atom_site_label
  _atom_site_symmetry_multiplicity
  _atom_site_fract_x
  _atom_site_fract_y
  _atom_site_fract_z
  _atom_site_occupancy
  Cs  Cs1       1.0  0.85540  0.48958  0.87225  1.0000
  Cs  Cs2       1.0  0.35540  0.51042  0.62775  1.0000
  Cs  Cs3       1.0  0.14460  0.51042  0.12775  1.0000
  Cs  Cs4       1.0  0.64460  0.48958  0.37225  1.0000
  H   H1        1.0  0.62043  0.89535  0.54537  1.0000
  H   H2        1.0  0.12043  0.10466  0.95463  1.0000
  H   H3        1.0  0.37957  0.10466  0.45463  1.0000
  H   H4        1.0  0.87957  0.89534  0.04537  1.0000
  H   H5        1.0  0.11358  0.92279  0.70253  1.0000
  H   H6        1.0  0.61359  0.07722  0.79747  1.0000
  H   H7        1.0  0.88641  0.07722  0.29747  1.0000
  H   H8        1.0  0.38641  0.92278  0.20253  1.0000
  H   H9        1.0  0.10022  0.22999  0.69694  1.0000
  H   H10       1.0  0.60023  0.77001  0.80306  1.0000
  H   H11       1.0  0.89977  0.77001  0.30306  1.0000
  H   H12       1.0  0.39977  0.22999  0.19694  1.0000
  H   H13       1.0  0.84142  0.36173  0.61009  1.0000
  H   H14       1.0  0.34142  0.63828  0.88991  1.0000
  H   H15       1.0  0.15858  0.63827  0.38991  1.0000
  H   H16       1.0  0.65858  0.36172  0.11008  1.0000
  C   C1        1.0  0.86534  0.89257  0.62375  1.0000
  C   C2        1.0  0.36534  0.10743  0.87625  1.0000
  C   C3        1.0  0.13466  0.10743  0.37625  1.0000
  C   C4        1.0  0.63466  0.89257  0.12375  1.0000
  C   C5        1.0  0.00301  0.98492  0.66609  1.0000
  C   C6        1.0  0.50302  0.01508  0.83391  1.0000
  C   C7        1.0  0.99698  0.01508  0.33391  1.0000
  C   C8        1.0  0.49698  0.98492  0.16609  1.0000
  C   C9        1.0  0.99345  0.15588  0.66139  1.0000
  C   C10       1.0  0.49345  0.84412  0.83862  1.0000
  C   C11       1.0  0.00654  0.84412  0.33862  1.0000
  C   C12       1.0  0.50655  0.15588  0.16138  1.0000
  C   C13       1.0  0.85081  0.22961  0.61456  1.0000
  C   C14       1.0  0.35082  0.77039  0.88544  1.0000
  C   C15       1.0  0.14918  0.77039  0.38544  1.0000
  C   C16       1.0  0.64918  0.22961  0.11456  1.0000
  C   C17       1.0  0.70747  0.13389  0.56918  1.0000
  C   C18       1.0  0.20747  0.86611  0.93082  1.0000
  C   C19       1.0  0.29253  0.86611  0.43082  1.0000
  C   C20       1.0  0.79253  0.13389  0.06918  1.0000
  C   C21       1.0  0.86229  0.70811  0.62972  1.0000
  C   C22       1.0  0.36230  0.29189  0.87027  1.0000
  C   C23       1.0  0.13771  0.29189  0.37028  1.0000
  C   C24       1.0  0.63771  0.70811  0.12973  1.0000
  N   N1        1.0  0.72405  0.96656  0.57757  1.0000
  N   N2        1.0  0.22405  0.03344  0.92243  1.0000
  N   N3        1.0  0.27595  0.03344  0.42243  1.0000
  N   N4        1.0  0.77595  0.96656  0.07757  1.0000
  O   O1        1.0  0.99792  0.64277  0.66977  1.0000
  O   O2        1.0  0.49792  0.35723  0.83023  1.0000
  O   O3        1.0  0.00208  0.35723  0.33023  1.0000
  O   O4        1.0  0.50208  0.64277  0.16977  1.0000
  O   O5        1.0  0.72208  0.63638  0.59685  1.0000
  O   O6        1.0  0.22209  0.36362  0.90315  1.0000
  O   O7        1.0  0.27792  0.36362  0.40315  1.0000
  O   O8        1.0  0.77792  0.63638  0.09685  1.0000
  O   O9        1.0  0.57296  0.19369  0.52430  1.0000
  O   O10       1.0  0.07296  0.80631  0.97569  1.0000
  O   O11       1.0  0.42704  0.80631  0.47570  1.0000
  O   O12       1.0  0.92704  0.19369  0.02430  1.0000
