data_image0
_chemical_formula_structural       CdH20C20N2O8
_chemical_formula_sum              "Cd1 H20 C20 N2 O8"
_cell_length_a       5.66854
_cell_length_b       7.97728
_cell_length_c       11.5678
_cell_angle_alpha    107.894
_cell_angle_beta     98.6343
_cell_angle_gamma    98.7348

_space_group_name_H-M_alt    "P 1"
_space_group_IT_number       1

loop_
  _space_group_symop_operation_xyz
  'x, y, z'

loop_
  _atom_site_type_symbol
  _atom_site_label
  _atom_site_symmetry_multiplicity
  _atom_site_fract_x
  _atom_site_fract_y
  _atom_site_fract_z
  _atom_site_occupancy
  Cd  Cd1       1.0  1.00000  1.00000  1.00000  1.0000
  H   H1        1.0  0.53105  0.84834  0.05864  1.0000
  H   H2        1.0  0.46895  0.15166  0.94136  1.0000
  H   H3        1.0  0.74998  0.73972  0.05419  1.0000
  H   H4        1.0  0.25002  0.26027  0.94581  1.0000
  H   H5        1.0  0.31326  0.49646  0.66051  1.0000
  H   H6        1.0  0.68676  0.50353  0.33951  1.0000
  H   H7        1.0  0.30135  0.70325  0.86522  1.0000
  H   H8        1.0  0.69865  0.29673  0.13479  1.0000
  H   H9        1.0  0.68530  0.85630  0.72170  1.0000
  H   H10       1.0  0.31472  0.14370  0.27831  1.0000
  H   H11       1.0  0.67144  0.65764  0.50938  1.0000
  H   H12       1.0  0.32861  0.34237  0.49063  1.0000
  H   H13       1.0  0.88051  0.04138  0.42196  1.0000
  H   H14       1.0  0.11946  0.95863  0.57803  1.0000
  H   H15       1.0  0.14336  0.75588  0.37217  1.0000
  H   H16       1.0  0.85662  0.24413  0.62783  1.0000
  H   H17       1.0  0.26872  0.55525  0.24062  1.0000
  H   H18       1.0  0.73128  0.44475  0.75938  1.0000
  H   H19       1.0  0.43066  0.55407  0.12001  1.0000
  H   H20       1.0  0.56933  0.44594  0.87999  1.0000
  C   C1        1.0  0.17200  0.57510  0.66731  1.0000
  C   C2        1.0  0.82801  0.42489  0.33270  1.0000
  C   C3        1.0  0.16495  0.69033  0.78405  1.0000
  C   C4        1.0  0.83504  0.30965  0.21596  1.0000
  C   C5        1.0  0.82124  0.77366  0.70366  1.0000
  C   C6        1.0  0.17877  0.22635  0.29634  1.0000
  C   C7        1.0  0.81550  0.66086  0.58422  1.0000
  C   C8        1.0  0.18453  0.33916  0.41578  1.0000
  C   C9        1.0  0.99682  0.55921  0.56296  1.0000
  C   C10       1.0  0.00321  0.44080  0.43704  1.0000
  C   C11       1.0  0.16161  0.71903  0.13164  1.0000
  C   C12       1.0  0.83839  0.28097  0.86836  1.0000
  C   C13       1.0  0.71338  0.02438  0.45654  1.0000
  C   C14       1.0  0.28660  0.97563  0.54346  1.0000
  C   C15       1.0  0.51802  0.88383  0.38386  1.0000
  C   C16       1.0  0.48196  0.11617  0.61614  1.0000
  C   C17       1.0  0.30167  0.86070  0.42759  1.0000
  C   C18       1.0  0.69831  0.13930  0.57241  1.0000
  C   C19       1.0  0.35478  0.63971  0.19291  1.0000
  C   C20       1.0  0.64521  0.36030  0.80709  1.0000
  N   N1        1.0  0.99414  0.79016  0.80231  1.0000
  N   N2        1.0  0.00585  0.20983  0.19770  1.0000
  O   O1        1.0  0.24520  0.85509  0.10117  1.0000
  O   O2        1.0  0.75479  0.14491  0.89883  1.0000
  O   O3        1.0  0.94150  0.64491  0.11456  1.0000
  O   O4        1.0  0.05849  0.35509  0.88544  1.0000
  O   O5        1.0  0.55875  0.77356  0.27444  1.0000
  O   O6        1.0  0.44125  0.22644  0.72556  1.0000
  O   O7        1.0  0.65405  0.80721  0.00957  1.0000
  O   O8        1.0  0.34595  0.19279  0.99043  1.0000
