data_image0
_chemical_formula_structural       Cd2H26C38N2Cl4O10
_chemical_formula_sum              "Cd2 H26 C38 N2 Cl4 O10"
_cell_length_a       7.50756
_cell_length_b       9.73688
_cell_length_c       14.3494
_cell_angle_alpha    109.824
_cell_angle_beta     90.0002
_cell_angle_gamma    90

_space_group_name_H-M_alt    "P 1"
_space_group_IT_number       1

loop_
  _space_group_symop_operation_xyz
  'x, y, z'

loop_
  _atom_site_type_symbol
  _atom_site_label
  _atom_site_symmetry_multiplicity
  _atom_site_fract_x
  _atom_site_fract_y
  _atom_site_fract_z
  _atom_site_occupancy
  Cd  Cd1       1.0  0.50000  0.50000  0.00000  1.0000
  Cd  Cd2       1.0  0.00000  0.50000  1.00000  1.0000
  H   H1        1.0  0.03505  0.60178  0.72657  1.0000
  H   H2        1.0  0.53505  0.39822  0.27343  1.0000
  H   H3        1.0  0.96491  0.12522  0.72634  1.0000
  H   H4        1.0  0.46493  0.87478  0.27365  1.0000
  H   H5        1.0  0.96495  0.39822  0.27343  1.0000
  H   H6        1.0  0.46495  0.60178  0.72657  1.0000
  H   H7        1.0  0.03509  0.87478  0.27366  1.0000
  H   H8        1.0  0.53507  0.12522  0.72634  1.0000
  H   H9        1.0  0.03689  0.64148  0.56253  1.0000
  H   H10       1.0  0.53689  0.35851  0.43746  1.0000
  H   H11       1.0  0.96309  0.92130  0.56244  1.0000
  H   H12       1.0  0.46310  0.07870  0.43755  1.0000
  H   H13       1.0  0.96311  0.35852  0.43747  1.0000
  H   H14       1.0  0.46311  0.64149  0.56254  1.0000
  H   H15       1.0  0.03691  0.07870  0.43756  1.0000
  H   H16       1.0  0.53690  0.92129  0.56245  1.0000
  H   H17       1.0  0.75000  0.14985  0.84779  1.0000
  H   H18       1.0  0.25001  0.85015  0.15221  1.0000
  H   H19       1.0  0.25001  0.69793  0.84803  1.0000
  H   H20       1.0  0.75000  0.30208  0.15197  1.0000
  H   H21       1.0  0.75000  0.88458  0.83975  1.0000
  H   H22       1.0  0.25001  0.11542  0.16025  1.0000
  H   H23       1.0  0.25001  0.95506  0.83981  1.0000
  H   H24       1.0  0.75000  0.04495  0.16019  1.0000
  H   H25       1.0  0.75000  0.83236  0.00005  1.0000
  H   H26       1.0  0.25001  0.16764  0.99996  1.0000
  C   C1        1.0  0.75001  0.58330  0.83716  1.0000
  C   C2        1.0  0.24999  0.41670  0.16284  1.0000
  C   C3        1.0  0.24999  0.25402  0.83704  1.0000
  C   C4        1.0  0.75001  0.74598  0.16296  1.0000
  C   C5        1.0  0.75000  0.60359  0.73753  1.0000
  C   C6        1.0  0.25000  0.39641  0.26247  1.0000
  C   C7        1.0  0.24999  0.13443  0.73730  1.0000
  C   C8        1.0  0.75001  0.86557  0.26270  1.0000
  C   C9        1.0  0.91091  0.61335  0.69072  1.0000
  C   C10       1.0  0.41091  0.38664  0.30928  1.0000
  C   C11       1.0  0.08907  0.07787  0.69048  1.0000
  C   C12       1.0  0.58908  0.92213  0.30952  1.0000
  C   C13       1.0  0.08909  0.38664  0.30928  1.0000
  C   C14       1.0  0.58909  0.61335  0.69072  1.0000
  C   C15       1.0  0.91093  0.92213  0.30952  1.0000
  C   C16       1.0  0.41092  0.07787  0.69048  1.0000
  C   C17       1.0  0.91234  0.63504  0.59967  1.0000
  C   C18       1.0  0.41234  0.36495  0.40033  1.0000
  C   C19       1.0  0.08765  0.96509  0.59949  1.0000
  C   C20       1.0  0.58766  0.03491  0.40051  1.0000
  C   C21       1.0  0.08766  0.36495  0.40033  1.0000
  C   C22       1.0  0.58766  0.63505  0.59967  1.0000
  C   C23       1.0  0.91235  0.03491  0.40051  1.0000
  C   C24       1.0  0.41234  0.96509  0.59949  1.0000
  C   C25       1.0  0.75000  0.64645  0.55506  1.0000
  C   C26       1.0  0.25000  0.35354  0.44494  1.0000
  C   C27       1.0  0.25000  0.90901  0.55492  1.0000
  C   C28       1.0  0.75000  0.09099  0.44508  1.0000
  C   C29       1.0  0.75000  0.11548  0.91224  1.0000
  C   C30       1.0  0.25000  0.88452  0.08776  1.0000
  C   C31       1.0  0.25001  0.79672  0.91242  1.0000
  C   C32       1.0  0.75000  0.20328  0.08758  1.0000
  C   C33       1.0  0.75000  0.97275  0.91097  1.0000
  C   C34       1.0  0.25001  0.02726  0.08903  1.0000
  C   C35       1.0  0.25001  0.93820  0.91106  1.0000
  C   C36       1.0  0.75000  0.06181  0.08895  1.0000
  C   C37       1.0  0.75000  0.94414  0.99999  1.0000
  C   C38       1.0  0.25001  0.05587  0.00001  1.0000
  N   N1        1.0  0.75000  0.22748  0.99987  1.0000
  N   N2        1.0  0.25001  0.77253  0.00014  1.0000
  Cl  Cl1       1.0  0.75000  0.67495  0.44207  1.0000
  Cl  Cl2       1.0  0.25000  0.32505  0.55793  1.0000
  Cl  Cl3       1.0  0.25000  0.76716  0.44213  1.0000
  Cl  Cl4       1.0  0.75000  0.23284  0.55787  1.0000
  O   O1        1.0  0.59829  0.57751  0.87507  1.0000
  O   O2        1.0  0.09829  0.42249  0.12493  1.0000
  O   O3        1.0  0.40169  0.29757  0.87502  1.0000
  O   O4        1.0  0.90171  0.70244  0.12498  1.0000
  O   O5        1.0  0.40170  0.42249  0.12492  1.0000
  O   O6        1.0  0.90171  0.57751  0.87507  1.0000
  O   O7        1.0  0.59830  0.70244  0.12498  1.0000
  O   O8        1.0  0.09829  0.29756  0.87502  1.0000
  O   O9        1.0  0.75000  0.36362  0.99980  1.0000
  O   O10       1.0  0.25000  0.63638  0.00020  1.0000
