data_image0
_chemical_formula_structural       Cu2H14C16I2N6
_chemical_formula_sum              "Cu2 H14 C16 I2 N6"
_cell_length_a       8.03279
_cell_length_b       8.0964
_cell_length_c       8.68292
_cell_angle_alpha    114.281
_cell_angle_beta     101.115
_cell_angle_gamma    109.392

_space_group_name_H-M_alt    "P 1"
_space_group_IT_number       1

loop_
  _space_group_symop_operation_xyz
  'x, y, z'

loop_
  _atom_site_type_symbol
  _atom_site_label
  _atom_site_symmetry_multiplicity
  _atom_site_fract_x
  _atom_site_fract_y
  _atom_site_fract_z
  _atom_site_occupancy
  Cu  Cu1       1.0  0.72359  0.59457  0.96083  1.0000
  Cu  Cu2       1.0  0.27641  0.40543  0.03917  1.0000
  H   H1        1.0  0.21254  0.29774  0.48330  1.0000
  H   H2        1.0  0.78746  0.70226  0.51669  1.0000
  H   H3        1.0  0.24581  0.08825  0.61686  1.0000
  H   H4        1.0  0.75419  0.91175  0.38314  1.0000
  H   H5        1.0  0.40780  0.89908  0.69230  1.0000
  H   H6        1.0  0.59219  0.10092  0.30771  1.0000
  H   H7        1.0  0.41432  0.60943  0.43965  1.0000
  H   H8        1.0  0.58569  0.39058  0.56035  1.0000
  H   H9        1.0  0.71342  0.99694  0.01030  1.0000
  H   H10       1.0  0.28658  0.00305  0.98970  1.0000
  H   H11       1.0  0.98461  0.37440  0.31005  1.0000
  H   H12       1.0  0.01538  0.62559  0.68994  1.0000
  H   H13       1.0  0.11134  0.68040  0.04687  1.0000
  H   H14       1.0  0.88866  0.31961  0.95313  1.0000
  C   C1        1.0  0.24846  0.95922  0.50854  1.0000
  C   C2        1.0  0.75154  0.04078  0.49146  1.0000
  C   C3        1.0  0.34004  0.85579  0.55115  1.0000
  C   C4        1.0  0.65996  0.14422  0.44885  1.0000
  C   C5        1.0  0.34353  0.69349  0.41116  1.0000
  C   C6        1.0  0.65647  0.30651  0.58884  1.0000
  C   C7        1.0  0.05206  0.98554  0.26600  1.0000
  C   C8        1.0  0.94794  0.01446  0.73399  1.0000
  C   C9        1.0  0.84187  0.03628  0.11494  1.0000
  C   C10       1.0  0.15813  0.96371  0.88505  1.0000
  C   C11       1.0  0.97484  0.22394  0.26325  1.0000
  C   C12       1.0  0.02516  0.77605  0.73675  1.0000
  C   C13       1.0  0.15771  0.89189  0.32372  1.0000
  C   C14       1.0  0.84230  0.10811  0.67628  1.0000
  C   C15       1.0  0.17177  0.72995  0.19111  1.0000
  C   C16       1.0  0.82823  0.27005  0.80889  1.0000
  I   I1        1.0  0.37161  0.56410  0.81905  1.0000
  I   I2        1.0  0.62839  0.43589  0.18095  1.0000
  N   N1        1.0  0.88962  0.88837  0.11779  1.0000
  N   N2        1.0  0.11038  0.11163  0.88221  1.0000
  N   N3        1.0  0.10515  0.18943  0.35620  1.0000
  N   N4        1.0  0.89485  0.81057  0.64380  1.0000
  N   N5        1.0  0.26333  0.63213  0.23257  1.0000
  N   N6        1.0  0.73667  0.36787  0.76743  1.0000
