data_image0
_chemical_formula_structural       Cd6H32C32S4N8O30
_chemical_formula_sum              "Cd6 H32 C32 S4 N8 O30"
_cell_length_a       6.62231
_cell_length_b       13.1015
_cell_length_c       13.5933
_cell_angle_alpha    104.251
_cell_angle_beta     96.6326
_cell_angle_gamma    97.6631

_space_group_name_H-M_alt    "P 1"
_space_group_IT_number       1

loop_
  _space_group_symop_operation_xyz
  'x, y, z'

loop_
  _atom_site_type_symbol
  _atom_site_label
  _atom_site_symmetry_multiplicity
  _atom_site_fract_x
  _atom_site_fract_y
  _atom_site_fract_z
  _atom_site_occupancy
  Cd  Cd1       1.0  0.60789  0.48006  0.36952  1.0000
  Cd  Cd2       1.0  0.39211  0.51994  0.63048  1.0000
  Cd  Cd3       1.0  0.84544  0.24382  0.31311  1.0000
  Cd  Cd4       1.0  0.15456  0.75618  0.68689  1.0000
  Cd  Cd5       1.0  0.17596  0.31965  0.10819  1.0000
  Cd  Cd6       1.0  0.82404  0.68035  0.89181  1.0000
  H   H1        1.0  0.94439  0.56781  0.08238  1.0000
  H   H2        1.0  0.05561  0.43219  0.91762  1.0000
  H   H3        1.0  0.05352  0.94058  0.03873  1.0000
  H   H4        1.0  0.94648  0.05942  0.96126  1.0000
  H   H5        1.0  0.20556  0.06513  0.36763  1.0000
  H   H6        1.0  0.79444  0.93487  0.63237  1.0000
  H   H7        1.0  0.16121  0.88002  0.39233  1.0000
  H   H8        1.0  0.83879  0.11998  0.60767  1.0000
  H   H9        1.0  0.66932  0.88523  0.48321  1.0000
  H   H10       1.0  0.33068  0.11478  0.51679  1.0000
  H   H11       1.0  0.71685  0.06415  0.44603  1.0000
  H   H12       1.0  0.28315  0.93585  0.55397  1.0000
  H   H13       1.0  0.54630  0.72315  0.15919  1.0000
  H   H14       1.0  0.45370  0.27684  0.84081  1.0000
  H   H15       1.0  0.06056  0.65920  0.26982  1.0000
  H   H16       1.0  0.93944  0.34080  0.73019  1.0000
  H   H17       1.0  0.56132  0.87075  0.04039  1.0000
  H   H18       1.0  0.43868  0.12925  0.95961  1.0000
  H   H19       1.0  0.65360  0.07969  0.07938  1.0000
  H   H20       1.0  0.34639  0.92030  0.92062  1.0000
  H   H21       1.0  0.11189  0.24878  0.49205  1.0000
  H   H22       1.0  0.88811  0.75122  0.50795  1.0000
  H   H23       1.0  0.92017  0.29531  0.52442  1.0000
  H   H24       1.0  0.07982  0.70469  0.47558  1.0000
  H   H25       1.0  0.31845  0.52575  0.02651  1.0000
  H   H26       1.0  0.68155  0.47426  0.97349  1.0000
  H   H27       1.0  0.40591  0.53629  0.14425  1.0000
  H   H28       1.0  0.59409  0.46371  0.85575  1.0000
  H   H29       1.0  0.50183  0.30397  0.45552  1.0000
  H   H30       1.0  0.49817  0.69602  0.54448  1.0000
  H   H31       1.0  0.40567  0.26472  0.33832  1.0000
  H   H32       1.0  0.59433  0.73528  0.66168  1.0000
  C   C1        1.0  0.98470  0.65357  0.11217  1.0000
  C   C2        1.0  0.01530  0.34643  0.88783  1.0000
  C   C3        1.0  0.08082  0.92745  0.11477  1.0000
  C   C4        1.0  0.91918  0.07255  0.88523  1.0000
  C   C5        1.0  0.04832  0.82474  0.12813  1.0000
  C   C6        1.0  0.95168  0.17526  0.87187  1.0000
  C   C7        1.0  0.16564  0.99547  0.30194  1.0000
  C   C8        1.0  0.83436  0.00453  0.69806  1.0000
  C   C9        1.0  0.14141  0.89366  0.31632  1.0000
  C   C10       1.0  0.85859  0.10634  0.68368  1.0000
  C   C11       1.0  0.08522  0.80881  0.22800  1.0000
  C   C12       1.0  0.91478  0.19119  0.77200  1.0000
  C   C13       1.0  0.14001  0.01321  0.20306  1.0000
  C   C14       1.0  0.86000  0.98679  0.79694  1.0000
  C   C15       1.0  0.65220  0.89093  0.40431  1.0000
  C   C16       1.0  0.34780  0.10907  0.59569  1.0000
  C   C17       1.0  0.60397  0.69087  0.35042  1.0000
  C   C18       1.0  0.39603  0.30913  0.64958  1.0000
  C   C19       1.0  0.60785  0.79467  0.32447  1.0000
  C   C20       1.0  0.39215  0.20533  0.67553  1.0000
  C   C21       1.0  0.67695  0.99043  0.38464  1.0000
  C   C22       1.0  0.32305  0.00957  0.61536  1.0000
  C   C23       1.0  0.57943  0.79621  0.22134  1.0000
  C   C24       1.0  0.42057  0.20379  0.77866  1.0000
  C   C25       1.0  0.60223  0.89614  0.20211  1.0000
  C   C26       1.0  0.39778  0.10386  0.79789  1.0000
  C   C27       1.0  0.65432  0.99253  0.28161  1.0000
  C   C28       1.0  0.34568  0.00747  0.71839  1.0000
  C   C29       1.0  0.16867  0.12506  0.19378  1.0000
  C   C30       1.0  0.83133  0.87494  0.80622  1.0000
  C   C31       1.0  0.64121  0.03370  0.13536  1.0000
  C   C32       1.0  0.35879  0.96630  0.86464  1.0000
  S   S1        1.0  0.66073  0.33419  0.11407  1.0000
  S   S2        1.0  0.33926  0.66581  0.88593  1.0000
  S   S3        1.0  0.12721  0.49425  0.36325  1.0000
  S   S4        1.0  0.87279  0.50576  0.63676  1.0000
  N   N1        1.0  0.98139  0.72505  0.05776  1.0000
  N   N2        1.0  0.01861  0.27496  0.94224  1.0000
  N   N3        1.0  0.04592  0.69983  0.21383  1.0000
  N   N4        1.0  0.95409  0.30017  0.78617  1.0000
  N   N5        1.0  0.59393  0.92632  0.11136  1.0000
  N   N6        1.0  0.40607  0.07368  0.88864  1.0000
  N   N7        1.0  0.67722  0.07708  0.23693  1.0000
  N   N8        1.0  0.32278  0.92292  0.76307  1.0000
  O   O1        1.0  0.82465  0.27476  0.14983  1.0000
  O   O2        1.0  0.17535  0.72524  0.85017  1.0000
  O   O3        1.0  0.53311  0.35981  0.19994  1.0000
  O   O4        1.0  0.46688  0.64019  0.80006  1.0000
  O   O5        1.0  0.75989  0.43101  0.09173  1.0000
  O   O6        1.0  0.24010  0.56899  0.90827  1.0000
  O   O7        1.0  0.57281  0.60430  0.27841  1.0000
  O   O8        1.0  0.42719  0.39570  0.72159  1.0000
  O   O9        1.0  0.64105  0.68911  0.44501  1.0000
  O   O10       1.0  0.35894  0.31089  0.55499  1.0000
  O   O11       1.0  0.93229  0.42961  0.37929  1.0000
  O   O12       1.0  0.06771  0.57039  0.62072  1.0000
  O   O13       1.0  0.09455  0.60625  0.37635  1.0000
  O   O14       1.0  0.90545  0.39375  0.62365  1.0000
  O   O15       1.0  0.17777  0.45049  0.26097  1.0000
  O   O16       1.0  0.82223  0.54951  0.73903  1.0000
  O   O17       1.0  0.51951  0.26345  0.02353  1.0000
  O   O18       1.0  0.48049  0.73655  0.97647  1.0000
  O   O19       1.0  0.30003  0.48833  0.44234  1.0000
  O   O20       1.0  0.69997  0.51167  0.55766  1.0000
  O   O21       1.0  0.18352  0.14159  0.10661  1.0000
  O   O22       1.0  0.81648  0.85841  0.89339  1.0000
  O   O23       1.0  0.17428  0.20225  0.27545  1.0000
  O   O24       1.0  0.82571  0.79775  0.72455  1.0000
  O   O25       1.0  0.95863  0.23342  0.47508  1.0000
  O   O26       1.0  0.04137  0.76658  0.52492  1.0000
  O   O27       1.0  0.30573  0.49368  0.08446  1.0000
  O   O28       1.0  0.69427  0.50632  0.91554  1.0000
  O   O29       1.0  0.53790  0.30067  0.38569  1.0000
  O   O30       1.0  0.46210  0.69933  0.61431  1.0000
