data_image0
_chemical_formula_structural       Cu4H12C12O24
_chemical_formula_sum              "Cu4 H12 C12 O24"
_cell_length_a       7.87528
_cell_length_b       8.24468
_cell_length_c       11.3938
_cell_angle_alpha    90.0019
_cell_angle_beta     90.0011
_cell_angle_gamma    90.0006

_space_group_name_H-M_alt    "P 1"
_space_group_IT_number       1

loop_
  _space_group_symop_operation_xyz
  'x, y, z'

loop_
  _atom_site_type_symbol
  _atom_site_label
  _atom_site_symmetry_multiplicity
  _atom_site_fract_x
  _atom_site_fract_y
  _atom_site_fract_z
  _atom_site_occupancy
  Cu  Cu1       1.0  0.99999  0.00000  0.50000  1.0000
  Cu  Cu2       1.0  0.49999  0.50000  0.50000  1.0000
  Cu  Cu3       1.0  0.00000  1.00000  0.00000  1.0000
  Cu  Cu4       1.0  0.50000  0.50000  1.00000  1.0000
  H   H1        1.0  0.20664  0.71082  0.44768  1.0000
  H   H2        1.0  0.70665  0.78916  0.55231  1.0000
  H   H3        1.0  0.79334  0.28917  0.94767  1.0000
  H   H4        1.0  0.29337  0.21080  0.05231  1.0000
  H   H5        1.0  0.79334  0.28920  0.55232  1.0000
  H   H6        1.0  0.29336  0.21082  0.44769  1.0000
  H   H7        1.0  0.20667  0.71082  0.05233  1.0000
  H   H8        1.0  0.70663  0.78922  0.94769  1.0000
  H   H9        1.0  0.90730  0.97383  0.25001  1.0000
  H   H10       1.0  0.40733  0.52619  0.75000  1.0000
  H   H11       1.0  0.09269  0.02617  0.75000  1.0000
  H   H12       1.0  0.59267  0.47380  0.25000  1.0000
  C   C1        1.0  0.27375  0.77222  0.51998  1.0000
  C   C2        1.0  0.77376  0.72778  0.48001  1.0000
  C   C3        1.0  0.72624  0.22780  0.01998  1.0000
  C   C4        1.0  0.22626  0.27220  0.98001  1.0000
  C   C5        1.0  0.72624  0.22779  0.48002  1.0000
  C   C6        1.0  0.22623  0.27220  0.51999  1.0000
  C   C7        1.0  0.27376  0.77221  0.98002  1.0000
  C   C8        1.0  0.77374  0.72780  0.01998  1.0000
  C   C9        1.0  0.04265  0.00744  0.25000  1.0000
  C   C10       1.0  0.54264  0.49259  0.74999  1.0000
  C   C11       1.0  0.95734  0.99256  0.75001  1.0000
  C   C12       1.0  0.45735  0.50741  0.24999  1.0000
  O   O1        1.0  0.21240  0.90020  0.56542  1.0000
  O   O2        1.0  0.71240  0.59980  0.43456  1.0000
  O   O3        1.0  0.78760  0.09979  0.06542  1.0000
  O   O4        1.0  0.28759  0.40021  0.93457  1.0000
  O   O5        1.0  0.78759  0.09979  0.43458  1.0000
  O   O6        1.0  0.28761  0.40022  0.56543  1.0000
  O   O7        1.0  0.21241  0.90019  0.93458  1.0000
  O   O8        1.0  0.71241  0.59980  0.06543  1.0000
  O   O9        1.0  0.41319  0.71492  0.55800  1.0000
  O   O10       1.0  0.91319  0.78508  0.44200  1.0000
  O   O11       1.0  0.58684  0.28507  0.05799  1.0000
  O   O12       1.0  0.08684  0.21493  0.94201  1.0000
  O   O13       1.0  0.58682  0.28507  0.44201  1.0000
  O   O14       1.0  0.08682  0.21492  0.55800  1.0000
  O   O15       1.0  0.41319  0.71492  0.94200  1.0000
  O   O16       1.0  0.91318  0.78508  0.05799  1.0000
  O   O17       1.0  0.12093  0.02730  0.34649  1.0000
  O   O18       1.0  0.62093  0.47272  0.65352  1.0000
  O   O19       1.0  0.87906  0.97268  0.84649  1.0000
  O   O20       1.0  0.37907  0.52728  0.15353  1.0000
  O   O21       1.0  0.87907  0.97270  0.65352  1.0000
  O   O22       1.0  0.37905  0.52729  0.34648  1.0000
  O   O23       1.0  0.12094  0.02731  0.15352  1.0000
  O   O24       1.0  0.62094  0.47272  0.84648  1.0000
