data_image0
_chemical_formula_structural       CoH18C18N2O6
_chemical_formula_sum              "Co1 H18 C18 N2 O6"
_cell_length_a       8.14929
_cell_length_b       6.85834
_cell_length_c       9.29637
_cell_angle_alpha    107.061
_cell_angle_beta     98.4977
_cell_angle_gamma    100.803

_space_group_name_H-M_alt    "P 1"
_space_group_IT_number       1

loop_
  _space_group_symop_operation_xyz
  'x, y, z'

loop_
  _atom_site_type_symbol
  _atom_site_label
  _atom_site_symmetry_multiplicity
  _atom_site_fract_x
  _atom_site_fract_y
  _atom_site_fract_z
  _atom_site_occupancy
  Co  Co1       1.0  0.00000  0.50000  0.00000  1.0000
  H   H1        1.0  0.65037  0.58706  0.64195  1.0000
  H   H2        1.0  0.34962  0.41294  0.35804  1.0000
  H   H3        1.0  0.15884  0.44242  0.49274  1.0000
  H   H4        1.0  0.84115  0.55756  0.50726  1.0000
  H   H5        1.0  0.25282  0.12262  0.48478  1.0000
  H   H6        1.0  0.74718  0.87737  0.51522  1.0000
  H   H7        1.0  0.58403  0.66262  0.88700  1.0000
  H   H8        1.0  0.41598  0.33738  0.11299  1.0000
  H   H9        1.0  0.36836  0.64548  0.05107  1.0000
  H   H10       1.0  0.63165  0.35453  0.94893  1.0000
  H   H11       1.0  0.46648  0.81963  0.34241  1.0000
  H   H12       1.0  0.53353  0.18039  0.65759  1.0000
  H   H13       1.0  0.96532  0.44465  0.67297  1.0000
  H   H14       1.0  0.03468  0.55535  0.32704  1.0000
  H   H15       1.0  0.09841  0.18729  0.12590  1.0000
  H   H16       1.0  0.90159  0.81272  0.87411  1.0000
  H   H17       1.0  0.08262  0.15469  0.94913  1.0000
  H   H18       1.0  0.91737  0.84530  0.05088  1.0000
  C   C1        1.0  0.51760  0.53653  0.57802  1.0000
  C   C2        1.0  0.48238  0.46347  0.42196  1.0000
  C   C3        1.0  0.39190  0.54823  0.67344  1.0000
  C   C4        1.0  0.60809  0.45177  0.32656  1.0000
  C   C5        1.0  0.21351  0.49162  0.61562  1.0000
  C   C6        1.0  0.78648  0.50837  0.38438  1.0000
  C   C7        1.0  0.28454  0.99505  0.40042  1.0000
  C   C8        1.0  0.71546  0.00495  0.59958  1.0000
  C   C9        1.0  0.44721  0.61168  0.83468  1.0000
  C   C10       1.0  0.55279  0.38832  0.16530  1.0000
  C   C11       1.0  0.15405  0.89154  0.25532  1.0000
  C   C12       1.0  0.84596  0.10846  0.74469  1.0000
  C   C13       1.0  0.32890  0.60354  0.92684  1.0000
  C   C14       1.0  0.67111  0.39647  0.07317  1.0000
  C   C15       1.0  0.43647  0.94579  0.42982  1.0000
  C   C16       1.0  0.56354  0.05422  0.57018  1.0000
  C   C17       1.0  0.10324  0.49109  0.71512  1.0000
  C   C18       1.0  0.89676  0.50891  0.28488  1.0000
  N   N1        1.0  0.15792  0.53977  0.86932  1.0000
  N   N2        1.0  0.84208  0.46024  0.13067  1.0000
  O   O1        1.0  0.04247  0.98777  0.22196  1.0000
  O   O2        1.0  0.95753  0.01222  0.77805  1.0000
  O   O3        1.0  0.13767  0.25869  0.05474  1.0000
  O   O4        1.0  0.86233  0.74130  0.94527  1.0000
  O   O5        1.0  0.16243  0.70645  0.17451  1.0000
  O   O6        1.0  0.83758  0.29355  0.82549  1.0000
