data_image0
_chemical_formula_structural       Cd2H8C8N4Cl4
_chemical_formula_sum              "Cd2 H8 C8 N4 Cl4"
_cell_length_a       7.11232
_cell_length_b       7.31881
_cell_length_c       8.28049
_cell_angle_alpha    116.216
_cell_angle_beta     115.407
_cell_angle_gamma    90.0065

_space_group_name_H-M_alt    "P 1"
_space_group_IT_number       1

loop_
  _space_group_symop_operation_xyz
  'x, y, z'

loop_
  _atom_site_type_symbol
  _atom_site_label
  _atom_site_symmetry_multiplicity
  _atom_site_fract_x
  _atom_site_fract_y
  _atom_site_fract_z
  _atom_site_occupancy
  Cd  Cd1       1.0  1.00000  1.00000  0.50000  1.0000
  Cd  Cd2       1.0  0.50000  1.00000  0.50000  1.0000
  H   H1        1.0  0.65567  0.58416  0.66830  1.0000
  H   H2        1.0  0.01295  0.58419  0.66817  1.0000
  H   H3        1.0  0.34433  0.41584  0.33170  1.0000
  H   H4        1.0  0.98705  0.41581  0.33182  1.0000
  H   H5        1.0  0.66638  0.75673  0.01336  1.0000
  H   H6        1.0  0.34713  0.75656  0.01304  1.0000
  H   H7        1.0  0.33361  0.24327  0.98664  1.0000
  H   H8        1.0  0.65287  0.24344  0.98696  1.0000
  C   C1        1.0  0.80752  0.65459  0.80921  1.0000
  C   C2        1.0  0.00186  0.65453  0.80907  1.0000
  C   C3        1.0  0.19248  0.34542  0.19080  1.0000
  C   C4        1.0  0.99814  0.34547  0.19093  1.0000
  C   C5        1.0  0.81183  0.74961  0.99928  1.0000
  C   C6        1.0  0.18759  0.74949  0.99899  1.0000
  C   C7        1.0  0.18817  0.25039  0.00072  1.0000
  C   C8        1.0  0.81241  0.25050  0.00101  1.0000
  N   N1        1.0  0.99463  0.83801  0.17597  1.0000
  N   N2        1.0  0.18166  0.83801  0.17583  1.0000
  N   N3        1.0  0.00537  0.16199  0.82403  1.0000
  N   N4        1.0  0.81834  0.16199  0.82416  1.0000
  Cl  Cl1       1.0  0.31858  0.82816  0.63722  1.0000
  Cl  Cl2       1.0  0.31856  0.30901  0.63722  1.0000
  Cl  Cl3       1.0  0.68144  0.69099  0.36278  1.0000
  Cl  Cl4       1.0  0.68142  0.17184  0.36278  1.0000
