data_image0
_chemical_formula_structural       Mn4H48C72N8O16
_chemical_formula_sum              "Mn4 H48 C72 N8 O16"
_cell_length_a       9.32957
_cell_length_b       10.1382
_cell_length_c       18.769
_cell_angle_alpha    73.6447
_cell_angle_beta     86.6794
_cell_angle_gamma    63.4634

_space_group_name_H-M_alt    "P 1"
_space_group_IT_number       1

loop_
  _space_group_symop_operation_xyz
  'x, y, z'

loop_
  _atom_site_type_symbol
  _atom_site_label
  _atom_site_symmetry_multiplicity
  _atom_site_fract_x
  _atom_site_fract_y
  _atom_site_fract_z
  _atom_site_occupancy
  Mn  Mn1       1.0  0.24465  0.12543  0.49164  1.0000
  Mn  Mn2       1.0  0.75535  0.87456  0.50836  1.0000
  Mn  Mn3       1.0  0.08652  0.35926  0.92051  1.0000
  Mn  Mn4       1.0  0.91349  0.64074  0.07948  1.0000
  H   H1        1.0  0.16210  0.85282  0.35250  1.0000
  H   H2        1.0  0.83791  0.14719  0.64750  1.0000
  H   H3        1.0  0.14783  0.78220  0.23685  1.0000
  H   H4        1.0  0.85219  0.21780  0.76315  1.0000
  H   H5        1.0  0.07874  0.98194  0.11351  1.0000
  H   H6        1.0  0.92128  0.01806  0.88650  1.0000
  H   H7        1.0  0.04308  0.31593  0.22286  1.0000
  H   H8        1.0  0.95691  0.68408  0.77713  1.0000
  H   H9        1.0  0.44541  0.57011  0.12226  1.0000
  H   H10       1.0  0.55460  0.42989  0.87774  1.0000
  H   H11       1.0  0.72011  0.42543  0.18939  1.0000
  H   H12       1.0  0.27989  0.57456  0.81061  1.0000
  H   H13       1.0  0.76250  0.23880  0.31545  1.0000
  H   H14       1.0  0.23748  0.76120  0.68455  1.0000
  H   H15       1.0  0.26311  0.33889  0.30429  1.0000
  H   H16       1.0  0.73687  0.66114  0.69570  1.0000
  H   H17       1.0  0.53449  0.13970  0.57093  1.0000
  H   H18       1.0  0.46551  0.86027  0.42908  1.0000
  H   H19       1.0  0.57104  0.25397  0.66573  1.0000
  H   H20       1.0  0.42895  0.74602  0.33427  1.0000
  H   H21       1.0  0.32575  0.42667  0.71706  1.0000
  H   H22       1.0  0.67424  0.57333  0.28294  1.0000
  H   H23       1.0  0.05765  0.47348  0.67406  1.0000
  H   H24       1.0  0.94235  0.52651  0.32595  1.0000
  H   H25       1.0  0.84474  0.52273  0.62313  1.0000
  H   H26       1.0  0.15527  0.47722  0.37690  1.0000
  H   H27       1.0  0.59494  0.53062  0.57909  1.0000
  H   H28       1.0  0.40506  0.46936  0.42092  1.0000
  H   H29       1.0  0.61559  0.35868  0.49971  1.0000
  H   H30       1.0  0.38441  0.64133  0.50028  1.0000
  H   H31       1.0  0.88591  0.19568  0.46527  1.0000
  H   H32       1.0  0.11409  0.80432  0.53473  1.0000
  H   H33       1.0  0.06844  0.18879  0.80854  1.0000
  H   H34       1.0  0.93157  0.81121  0.19147  1.0000
  H   H35       1.0  0.24879  0.98962  0.74737  1.0000
  H   H36       1.0  0.75121  0.01037  0.25263  1.0000
  H   H37       1.0  0.54856  0.87883  0.77431  1.0000
  H   H38       1.0  0.45144  0.12117  0.22569  1.0000
  H   H39       1.0  0.65013  0.96778  0.86168  1.0000
  H   H40       1.0  0.34988  0.03222  0.13832  1.0000
  H   H41       1.0  0.71628  0.01737  0.95063  1.0000
  H   H42       1.0  0.28373  0.98264  0.04937  1.0000
  H   H43       1.0  0.78422  0.13949  0.03259  1.0000
  H   H44       1.0  0.21578  0.86052  0.96741  1.0000
  H   H45       1.0  0.56067  0.35942  0.06923  1.0000
  H   H46       1.0  0.43933  0.64058  0.93077  1.0000
  H   H47       1.0  0.28011  0.45504  0.01725  1.0000
  H   H48       1.0  0.71989  0.54496  0.98275  1.0000
  C   C1        1.0  0.12510  0.12592  0.36358  1.0000
  C   C2        1.0  0.87490  0.87410  0.63642  1.0000
  C   C3        1.0  0.10307  0.08790  0.29455  1.0000
  C   C4        1.0  0.89694  0.91211  0.70544  1.0000
  C   C5        1.0  0.13131  0.93818  0.29826  1.0000
  C   C6        1.0  0.86870  0.06182  0.70174  1.0000
  C   C7        1.0  0.12209  0.90000  0.23348  1.0000
  C   C8        1.0  0.87793  0.10000  0.76651  1.0000
  C   C9        1.0  0.08457  0.01113  0.16451  1.0000
  C   C10       1.0  0.91545  0.98887  0.83548  1.0000
  C   C11       1.0  0.05554  0.16169  0.16014  1.0000
  C   C12       1.0  0.94447  0.83831  0.83985  1.0000
  C   C13       1.0  0.06289  0.19999  0.22554  1.0000
  C   C14       1.0  0.93711  0.80001  0.77446  1.0000
  C   C15       1.0  0.02839  0.27846  0.08582  1.0000
  C   C16       1.0  0.97161  0.72154  0.91418  1.0000
  C   C17       1.0  0.17700  0.54149  0.16637  1.0000
  C   C18       1.0  0.82300  0.45852  0.83362  1.0000
  C   C19       1.0  0.33801  0.46395  0.20915  1.0000
  C   C20       1.0  0.66199  0.53606  0.79084  1.0000
  C   C21       1.0  0.46694  0.48858  0.17730  1.0000
  C   C22       1.0  0.53306  0.51142  0.82270  1.0000
  C   C23       1.0  0.61947  0.40817  0.21518  1.0000
  C   C24       1.0  0.38053  0.59182  0.78482  1.0000
  C   C25       1.0  0.64385  0.30358  0.28551  1.0000
  C   C26       1.0  0.35614  0.69642  0.71449  1.0000
  C   C27       1.0  0.51497  0.28027  0.31862  1.0000
  C   C28       1.0  0.48502  0.71974  0.68138  1.0000
  C   C29       1.0  0.36249  0.36044  0.28004  1.0000
  C   C30       1.0  0.63750  0.63957  0.71995  1.0000
  C   C31       1.0  0.54090  0.16716  0.39415  1.0000
  C   C32       1.0  0.45907  0.83285  0.60585  1.0000
  C   C33       1.0  0.43081  0.21436  0.59455  1.0000
  C   C34       1.0  0.56919  0.78561  0.40546  1.0000
  C   C35       1.0  0.45077  0.27886  0.64748  1.0000
  C   C36       1.0  0.54923  0.72112  0.35253  1.0000
  C   C37       1.0  0.31490  0.37359  0.67598  1.0000
  C   C38       1.0  0.68509  0.62640  0.32402  1.0000
  C   C39       1.0  0.16381  0.39982  0.65170  1.0000
  C   C40       1.0  0.83619  0.60017  0.34830  1.0000
  C   C41       1.0  0.15331  0.33046  0.59871  1.0000
  C   C42       1.0  0.84668  0.66952  0.40130  1.0000
  C   C43       1.0  0.99850  0.34928  0.57058  1.0000
  C   C44       1.0  0.00149  0.65070  0.42942  1.0000
  C   C45       1.0  0.85059  0.44927  0.58948  1.0000
  C   C46       1.0  0.14941  0.55070  0.41054  1.0000
  C   C47       1.0  0.71052  0.45495  0.56355  1.0000
  C   C48       1.0  0.28948  0.54504  0.43646  1.0000
  C   C49       1.0  0.72104  0.36228  0.51903  1.0000
  C   C50       1.0  0.27896  0.63772  0.48097  1.0000
  C   C51       1.0  0.87217  0.26907  0.50041  1.0000
  C   C52       1.0  0.12782  0.73093  0.49959  1.0000
  C   C53       1.0  0.19802  0.13386  0.82003  1.0000
  C   C54       1.0  0.80198  0.86614  0.17997  1.0000
  C   C55       1.0  0.29916  0.02435  0.78555  1.0000
  C   C56       1.0  0.70084  0.97565  0.21446  1.0000
  C   C57       1.0  0.46453  0.96340  0.80067  1.0000
  C   C58       1.0  0.53547  0.03660  0.19933  1.0000
  C   C59       1.0  0.52160  0.01262  0.84990  1.0000
  C   C60       1.0  0.47840  0.98738  0.15010  1.0000
  C   C61       1.0  0.41234  0.12119  0.88335  1.0000
  C   C62       1.0  0.58767  0.87882  0.11665  1.0000
  C   C63       1.0  0.46281  0.17989  0.93608  1.0000
  C   C64       1.0  0.53720  0.82011  0.06392  1.0000
  C   C65       1.0  0.62264  0.11774  0.96406  1.0000
  C   C66       1.0  0.37737  0.88227  0.03593  1.0000
  C   C67       1.0  0.66019  0.18359  0.01147  1.0000
  C   C68       1.0  0.33981  0.81642  0.98854  1.0000
  C   C69       1.0  0.53701  0.30609  0.03149  1.0000
  C   C70       1.0  0.46298  0.69392  0.96851  1.0000
  C   C71       1.0  0.38009  0.35974  0.00271  1.0000
  C   C72       1.0  0.61991  0.64026  0.99729  1.0000
  N   N1        1.0  0.28562  0.23969  0.57058  1.0000
  N   N2        1.0  0.71437  0.76029  0.42943  1.0000
  N   N3        1.0  0.00741  0.26282  0.52540  1.0000
  N   N4        1.0  0.99259  0.73718  0.47459  1.0000
  N   N5        1.0  0.25180  0.18117  0.86788  1.0000
  N   N6        1.0  0.74821  0.81883  0.13212  1.0000
  N   N7        1.0  0.34387  0.29888  0.95568  1.0000
  N   N8        1.0  0.65614  0.70112  0.04432  1.0000
  O   O1        1.0  0.19412  0.01245  0.42246  1.0000
  O   O2        1.0  0.80588  0.98758  0.57753  1.0000
  O   O3        1.0  0.08149  0.26391  0.36197  1.0000
  O   O4        1.0  0.91849  0.73612  0.63802  1.0000
  O   O5        1.0  0.08098  0.22670  0.03001  1.0000
  O   O6        1.0  0.91902  0.77330  0.96998  1.0000
  O   O7        1.0  0.95771  0.42014  0.08254  1.0000
  O   O8        1.0  0.04230  0.57986  0.91746  1.0000
  O   O9        1.0  0.05678  0.53284  0.19920  1.0000
  O   O10       1.0  0.94322  0.46717  0.80079  1.0000
  O   O11       1.0  0.16447  0.61196  0.09685  1.0000
  O   O12       1.0  0.83553  0.38806  0.90314  1.0000
  O   O13       1.0  0.41835  0.16631  0.42718  1.0000
  O   O14       1.0  0.58162  0.83374  0.57282  1.0000
  O   O15       1.0  0.68596  0.07852  0.42070  1.0000
  O   O16       1.0  0.31401  0.92148  0.57930  1.0000
