data_image0
_chemical_formula_structural       Zn2Cu2H52C32N8O18
_chemical_formula_sum              "Zn2 Cu2 H52 C32 N8 O18"
_cell_length_a       6.43967
_cell_length_b       10.9267
_cell_length_c       13.61
_cell_angle_alpha    92.5855
_cell_angle_beta     90
_cell_angle_gamma    90

_space_group_name_H-M_alt    "P 1"
_space_group_IT_number       1

loop_
  _space_group_symop_operation_xyz
  'x, y, z'

loop_
  _atom_site_type_symbol
  _atom_site_label
  _atom_site_symmetry_multiplicity
  _atom_site_fract_x
  _atom_site_fract_y
  _atom_site_fract_z
  _atom_site_occupancy
  Zn  Zn1       1.0  0.19724  0.74999  0.25000  1.0000
  Zn  Zn2       1.0  0.80276  0.25000  0.75001  1.0000
  Cu  Cu1       1.0  0.89981  0.24996  0.25002  1.0000
  Cu  Cu2       1.0  0.10020  0.75001  0.75000  1.0000
  H   H1        1.0  0.56190  0.37511  0.02677  1.0000
  H   H2        1.0  0.56190  0.12489  0.47323  1.0000
  H   H3        1.0  0.43811  0.62489  0.97322  1.0000
  H   H4        1.0  0.43811  0.87511  0.52677  1.0000
  H   H5        1.0  0.76970  0.46687  0.07052  1.0000
  H   H6        1.0  0.76972  0.03314  0.42949  1.0000
  H   H7        1.0  0.23029  0.53313  0.92948  1.0000
  H   H8        1.0  0.23029  0.96687  0.57052  1.0000
  H   H9        1.0  0.79007  0.57750  0.33717  1.0000
  H   H10       1.0  0.79010  0.92248  0.16287  1.0000
  H   H11       1.0  0.20992  0.42248  0.66285  1.0000
  H   H12       1.0  0.20993  0.07752  0.83715  1.0000
  H   H13       1.0  0.82432  0.56544  0.20981  1.0000
  H   H14       1.0  0.82442  0.93459  0.29022  1.0000
  H   H15       1.0  0.17563  0.43458  0.79020  1.0000
  H   H16       1.0  0.17563  0.06542  0.70979  1.0000
  H   H17       1.0  0.13175  0.23076  0.07096  1.0000
  H   H18       1.0  0.13172  0.26929  0.42906  1.0000
  H   H19       1.0  0.86826  0.76926  0.92905  1.0000
  H   H20       1.0  0.86826  0.73074  0.57095  1.0000
  H   H21       1.0  0.08537  0.38908  0.07394  1.0000
  H   H22       1.0  0.08540  0.11097  0.42605  1.0000
  H   H23       1.0  0.91462  0.61093  0.92606  1.0000
  H   H24       1.0  0.91462  0.88906  0.57395  1.0000
  H   H25       1.0  0.48174  0.49681  0.18368  1.0000
  H   H26       1.0  0.48178  0.00319  0.31630  1.0000
  H   H27       1.0  0.51823  0.50319  0.81631  1.0000
  H   H28       1.0  0.51825  0.99680  0.68369  1.0000
  H   H29       1.0  0.44124  0.33910  0.19392  1.0000
  H   H30       1.0  0.44128  0.16090  0.30607  1.0000
  H   H31       1.0  0.55875  0.66090  0.80607  1.0000
  H   H32       1.0  0.55874  0.83909  0.69393  1.0000
  H   H33       1.0  0.52642  0.47988  0.39087  1.0000
  H   H34       1.0  0.52651  0.02012  0.10914  1.0000
  H   H35       1.0  0.47353  0.52012  0.60912  1.0000
  H   H36       1.0  0.47354  0.97987  0.89087  1.0000
  H   H37       1.0  0.45482  0.33211  0.34925  1.0000
  H   H38       1.0  0.45487  0.16788  0.15075  1.0000
  H   H39       1.0  0.54516  0.66788  0.65074  1.0000
  H   H40       1.0  0.54516  0.83210  0.84925  1.0000
  H   H41       1.0  0.85519  0.09758  0.03771  1.0000
  H   H42       1.0  0.85511  0.40245  0.46230  1.0000
  H   H43       1.0  0.14485  0.90243  0.96230  1.0000
  H   H44       1.0  0.14484  0.59757  0.53771  1.0000
  H   H45       1.0  0.63430  0.16774  0.98805  1.0000
  H   H46       1.0  0.63422  0.33225  0.51195  1.0000
  H   H47       1.0  0.36574  0.83225  0.01195  1.0000
  H   H48       1.0  0.36573  0.66775  0.48804  1.0000
  H   H49       1.0  0.60305  0.76098  0.30817  1.0000
  H   H50       1.0  0.60305  0.73902  0.19183  1.0000
  H   H51       1.0  0.39694  0.23902  0.69183  1.0000
  H   H52       1.0  0.39694  0.26098  0.80817  1.0000
  C   C1        1.0  0.67779  0.38542  0.08637  1.0000
  C   C2        1.0  0.67779  0.11458  0.41363  1.0000
  C   C3        1.0  0.32220  0.61457  0.91363  1.0000
  C   C4        1.0  0.32221  0.88542  0.58637  1.0000
  C   C5        1.0  0.83922  0.51369  0.27685  1.0000
  C   C6        1.0  0.83931  0.98632  0.22317  1.0000
  C   C7        1.0  0.16074  0.48632  0.72315  1.0000
  C   C8        1.0  0.16074  0.01368  0.77684  1.0000
  C   C9        1.0  0.72728  0.16152  0.05580  1.0000
  C   C10       1.0  0.72721  0.33849  0.44420  1.0000
  C   C11       1.0  0.27276  0.83847  0.94420  1.0000
  C   C12       1.0  0.27275  0.66152  0.55580  1.0000
  C   C13       1.0  0.02498  0.30045  0.04454  1.0000
  C   C14       1.0  0.02498  0.19959  0.45547  1.0000
  C   C15       1.0  0.97502  0.69957  0.95546  1.0000
  C   C16       1.0  0.97502  0.80043  0.54454  1.0000
  C   C17       1.0  0.04703  0.29831  0.93265  1.0000
  C   C18       1.0  0.04702  0.20171  0.56735  1.0000
  C   C19       1.0  0.95297  0.70170  0.06735  1.0000
  C   C20       1.0  0.95297  0.79830  0.43265  1.0000
  C   C21       1.0  0.58981  0.39056  0.36455  1.0000
  C   C22       1.0  0.58988  0.10945  0.13544  1.0000
  C   C23       1.0  0.41016  0.60944  0.63544  1.0000
  C   C24       1.0  0.41016  0.89055  0.86456  1.0000
  C   C25       1.0  0.06683  0.48431  0.28935  1.0000
  C   C26       1.0  0.06691  0.01568  0.21062  1.0000
  C   C27       1.0  0.93313  0.51569  0.71064  1.0000
  C   C28       1.0  0.93313  0.98431  0.78937  1.0000
  C   C29       1.0  0.56211  0.40773  0.18416  1.0000
  C   C30       1.0  0.56214  0.09227  0.31584  1.0000
  C   C31       1.0  0.43787  0.59226  0.81583  1.0000
  C   C32       1.0  0.43788  0.90773  0.68416  1.0000
  N   N1        1.0  0.70238  0.40459  0.27057  1.0000
  N   N2        1.0  0.70247  0.09543  0.22944  1.0000
  N   N3        1.0  0.29759  0.59541  0.72943  1.0000
  N   N4        1.0  0.29756  0.90457  0.77056  1.0000
  N   N5        1.0  0.81983  0.28018  0.08606  1.0000
  N   N6        1.0  0.81980  0.21984  0.41394  1.0000
  N   N7        1.0  0.18018  0.71982  0.91394  1.0000
  N   N8        1.0  0.18018  0.78017  0.58606  1.0000
  O   O1        1.0  0.12132  0.37144  0.28163  1.0000
  O   O2        1.0  0.12145  0.12851  0.21831  1.0000
  O   O3        1.0  0.87863  0.62854  0.71836  1.0000
  O   O4        1.0  0.87861  0.87148  0.78166  1.0000
  O   O5        1.0  0.19454  0.57021  0.30645  1.0000
  O   O6        1.0  0.19460  0.92973  0.19354  1.0000
  O   O7        1.0  0.80543  0.42977  0.69355  1.0000
  O   O8        1.0  0.80543  0.07025  0.80646  1.0000
  O   O9        1.0  0.22719  0.27804  0.89946  1.0000
  O   O10       1.0  0.22719  0.22195  0.60054  1.0000
  O   O11       1.0  0.77281  0.72199  0.10054  1.0000
  O   O12       1.0  0.77280  0.77807  0.39946  1.0000
  O   O13       1.0  0.88279  0.31913  0.88287  1.0000
  O   O14       1.0  0.88278  0.18089  0.61713  1.0000
  O   O15       1.0  0.11720  0.68085  0.11713  1.0000
  O   O16       1.0  0.11721  0.81911  0.38286  1.0000
  O   O17       1.0  0.51017  0.74998  0.25000  1.0000
  O   O18       1.0  0.48983  0.25000  0.75000  1.0000
