data_image0
_chemical_formula_structural       Na2Dy2H40C48N16O16
_chemical_formula_sum              "Na2 Dy2 H40 C48 N16 O16"
_cell_length_a       8.05964
_cell_length_b       13.2633
_cell_length_c       13.4353
_cell_angle_alpha    85.1066
_cell_angle_beta     72.5458
_cell_angle_gamma    73.4775

_space_group_name_H-M_alt    "P 1"
_space_group_IT_number       1

loop_
  _space_group_symop_operation_xyz
  'x, y, z'

loop_
  _atom_site_type_symbol
  _atom_site_label
  _atom_site_symmetry_multiplicity
  _atom_site_fract_x
  _atom_site_fract_y
  _atom_site_fract_z
  _atom_site_occupancy
  Na  Na1       1.0  0.87565  0.75095  0.24839  1.0000
  Na  Na2       1.0  0.12434  0.24905  0.75161  1.0000
  Dy  Dy1       1.0  0.37593  0.74959  0.24928  1.0000
  Dy  Dy2       1.0  0.62407  0.25041  0.75072  1.0000
  H   H1        1.0  0.44547  0.60288  0.86503  1.0000
  H   H2        1.0  0.54618  0.86277  0.89749  1.0000
  H   H3        1.0  0.91869  0.89724  0.63251  1.0000
  H   H4        1.0  0.31999  0.63493  0.60139  1.0000
  H   H5        1.0  0.55453  0.39711  0.13497  1.0000
  H   H6        1.0  0.45383  0.13723  0.10251  1.0000
  H   H7        1.0  0.08130  0.10277  0.36749  1.0000
  H   H8        1.0  0.68002  0.36506  0.39861  1.0000
  H   H9        1.0  0.78269  0.55645  0.79026  1.0000
  H   H10       1.0  0.83660  0.78865  0.94366  1.0000
  H   H11       1.0  0.13725  0.94180  0.70915  1.0000
  H   H12       1.0  0.58543  0.71083  0.55519  1.0000
  H   H13       1.0  0.21731  0.44355  0.20974  1.0000
  H   H14       1.0  0.16341  0.21135  0.05634  1.0000
  H   H15       1.0  0.86274  0.05821  0.29085  1.0000
  H   H16       1.0  0.41458  0.28916  0.44481  1.0000
  H   H17       1.0  0.80993  0.64719  0.08496  1.0000
  H   H18       1.0  0.95886  0.08536  0.85061  1.0000
  H   H19       1.0  0.54756  0.84897  0.41586  1.0000
  H   H20       1.0  0.89558  0.41597  0.64977  1.0000
  H   H21       1.0  0.19007  0.35281  0.91505  1.0000
  H   H22       1.0  0.04114  0.91464  0.14939  1.0000
  H   H23       1.0  0.45244  0.15103  0.58414  1.0000
  H   H24       1.0  0.10443  0.58402  0.35023  1.0000
  H   H25       1.0  0.06480  0.55474  0.81621  1.0000
  H   H26       1.0  0.11682  0.81544  0.94515  1.0000
  H   H27       1.0  0.44383  0.94173  0.68450  1.0000
  H   H28       1.0  0.89048  0.68610  0.55625  1.0000
  H   H29       1.0  0.93520  0.44526  0.18379  1.0000
  H   H30       1.0  0.88318  0.18456  0.05484  1.0000
  H   H31       1.0  0.55616  0.05828  0.31550  1.0000
  H   H32       1.0  0.10951  0.31390  0.44375  1.0000
  H   H33       1.0  0.07906  0.60041  0.93252  1.0000
  H   H34       1.0  0.17870  0.93228  0.89882  1.0000
  H   H35       1.0  0.61823  0.89750  0.56787  1.0000
  H   H36       1.0  0.01733  0.56946  0.60229  1.0000
  H   H37       1.0  0.92094  0.39959  0.06749  1.0000
  H   H38       1.0  0.82130  0.06772  0.10118  1.0000
  H   H39       1.0  0.38177  0.10250  0.43213  1.0000
  H   H40       1.0  0.98267  0.43054  0.39771  1.0000
  C   C1        1.0  0.25335  0.67906  0.06190  1.0000
  C   C2        1.0  0.43228  0.06047  0.82067  1.0000
  C   C3        1.0  0.99697  0.82077  0.43549  1.0000
  C   C4        1.0  0.31697  0.43734  0.68033  1.0000
  C   C5        1.0  0.74665  0.32094  0.93810  1.0000
  C   C6        1.0  0.56772  0.93953  0.17933  1.0000
  C   C7        1.0  0.00303  0.17923  0.56452  1.0000
  C   C8        1.0  0.68303  0.56266  0.31967  1.0000
  C   C9        1.0  0.45177  0.64926  0.01320  1.0000
  C   C10       1.0  0.60074  0.01210  0.85022  1.0000
  C   C11       1.0  0.11829  0.84977  0.48510  1.0000
  C   C12       1.0  0.46858  0.48669  0.64980  1.0000
  C   C13       1.0  0.54822  0.35073  0.98680  1.0000
  C   C14       1.0  0.39927  0.98790  0.14978  1.0000
  C   C15       1.0  0.88170  0.15023  0.51490  1.0000
  C   C16       1.0  0.53143  0.51330  0.35019  1.0000
  C   C17       1.0  0.53166  0.61129  0.91088  1.0000
  C   C18       1.0  0.64151  0.90925  0.88854  1.0000
  C   C19       1.0  0.05927  0.88782  0.58742  1.0000
  C   C20       1.0  0.45015  0.58930  0.61069  1.0000
  C   C21       1.0  0.46834  0.38871  0.08912  1.0000
  C   C22       1.0  0.35849  0.09075  0.11146  1.0000
  C   C23       1.0  0.94074  0.11218  0.41258  1.0000
  C   C24       1.0  0.54986  0.41070  0.38930  1.0000
  C   C25       1.0  0.71733  0.58549  0.86966  1.0000
  C   C26       1.0  0.80124  0.86835  0.91411  1.0000
  C   C27       1.0  0.17926  0.91258  0.62971  1.0000
  C   C28       1.0  0.59612  0.63119  0.58509  1.0000
  C   C29       1.0  0.28266  0.41451  0.13034  1.0000
  C   C30       1.0  0.19877  0.13165  0.08589  1.0000
  C   C31       1.0  0.82073  0.08743  0.37029  1.0000
  C   C32       1.0  0.40389  0.36880  0.41490  1.0000
  C   C33       1.0  0.82511  0.59845  0.93081  1.0000
  C   C34       1.0  0.92311  0.93022  0.90047  1.0000
  C   C35       1.0  0.36103  0.89872  0.56927  1.0000
  C   C36       1.0  0.76229  0.57043  0.59959  1.0000
  C   C37       1.0  0.17489  0.40155  0.06918  1.0000
  C   C38       1.0  0.07690  0.06978  0.09953  1.0000
  C   C39       1.0  0.63897  0.10129  0.43073  1.0000
  C   C40       1.0  0.23772  0.42956  0.40040  1.0000
  C   C41       1.0  0.73291  0.63636  0.03436  1.0000
  C   C42       1.0  0.87022  0.03416  0.86192  1.0000
  C   C43       1.0  0.40912  0.86058  0.46573  1.0000
  C   C44       1.0  0.76999  0.46645  0.63813  1.0000
  C   C45       1.0  0.26708  0.36364  0.96564  1.0000
  C   C46       1.0  0.12978  0.96584  0.13809  1.0000
  C   C47       1.0  0.59088  0.13943  0.53428  1.0000
  C   C48       1.0  0.23001  0.53354  0.36187  1.0000
  N   N1        1.0  0.55363  0.66115  0.07337  1.0000
  N   N2        1.0  0.71562  0.07296  0.83760  1.0000
  N   N3        1.0  0.29234  0.83669  0.42587  1.0000
  N   N4        1.0  0.62833  0.42688  0.66264  1.0000
  N   N5        1.0  0.44636  0.33885  0.92663  1.0000
  N   N6        1.0  0.28439  0.92704  0.16240  1.0000
  N   N7        1.0  0.70766  0.16331  0.57413  1.0000
  N   N8        1.0  0.37167  0.57312  0.33736  1.0000
  N   N9        1.0  0.00639  0.57693  0.89257  1.0000
  N   N10       1.0  0.08195  0.89224  0.92253  1.0000
  N   N11       1.0  0.48368  0.91973  0.60808  1.0000
  N   N12       1.0  0.90650  0.60937  0.57886  1.0000
  N   N13       1.0  0.99361  0.42307  0.10743  1.0000
  N   N14       1.0  0.91805  0.10776  0.07747  1.0000
  N   N15       1.0  0.51632  0.08028  0.39192  1.0000
  N   N16       1.0  0.09350  0.39063  0.42114  1.0000
  O   O1        1.0  0.19728  0.70732  0.15866  1.0000
  O   O2        1.0  0.40463  0.15800  0.79258  1.0000
  O   O3        1.0  0.06598  0.79132  0.33914  1.0000
  O   O4        1.0  0.35495  0.34040  0.71018  1.0000
  O   O5        1.0  0.80272  0.29267  0.84135  1.0000
  O   O6        1.0  0.59538  0.84200  0.20742  1.0000
  O   O7        1.0  0.93401  0.20869  0.66087  1.0000
  O   O8        1.0  0.64505  0.65960  0.28983  1.0000
  O   O9        1.0  0.14719  0.67892  0.00933  1.0000
  O   O10       1.0  0.32589  0.00666  0.82054  1.0000
  O   O11       1.0  0.83698  0.82234  0.48709  1.0000
  O   O12       1.0  0.15964  0.48950  0.67942  1.0000
  O   O13       1.0  0.85280  0.32108  0.99068  1.0000
  O   O14       1.0  0.67412  0.99334  0.17946  1.0000
  O   O15       1.0  0.16302  0.17766  0.51292  1.0000
  O   O16       1.0  0.84036  0.51050  0.32058  1.0000
