data_image0
_chemical_formula_structural       Ca2H24C16N4O16
_chemical_formula_sum              "Ca2 H24 C16 N4 O16"
_cell_length_a       5.22725
_cell_length_b       5.87517
_cell_length_c       19.3428
_cell_angle_alpha    90.0007
_cell_angle_beta     89.9996
_cell_angle_gamma    98.1257

_space_group_name_H-M_alt    "P 1"
_space_group_IT_number       1

loop_
  _space_group_symop_operation_xyz
  'x, y, z'

loop_
  _atom_site_type_symbol
  _atom_site_label
  _atom_site_symmetry_multiplicity
  _atom_site_fract_x
  _atom_site_fract_y
  _atom_site_fract_z
  _atom_site_occupancy
  Ca  Ca1       1.0  0.99999  1.00000  1.00000  1.0000
  Ca  Ca2       1.0  0.50000  0.50000  0.50000  1.0000
  H   H1        1.0  0.89387  0.56309  0.89373  1.0000
  H   H2        1.0  0.39389  0.06309  0.60627  1.0000
  H   H3        1.0  0.10611  0.43692  0.10627  1.0000
  H   H4        1.0  0.60612  0.93690  0.39373  1.0000
  H   H5        1.0  0.79495  0.73187  0.83178  1.0000
  H   H6        1.0  0.29494  0.23187  0.66822  1.0000
  H   H7        1.0  0.20505  0.26813  0.16822  1.0000
  H   H8        1.0  0.70506  0.76813  0.33178  1.0000
  H   H9        1.0  0.36471  0.52767  0.83352  1.0000
  H   H10       1.0  0.86471  0.02764  0.66647  1.0000
  H   H11       1.0  0.63529  0.47233  0.16647  1.0000
  H   H12       1.0  0.13529  0.97235  0.33353  1.0000
  H   H13       1.0  0.45384  0.34265  0.89990  1.0000
  H   H14       1.0  0.95386  0.84263  0.60010  1.0000
  H   H15       1.0  0.54615  0.65735  0.10010  1.0000
  H   H16       1.0  0.04615  0.15736  0.39990  1.0000
  H   H17       1.0  0.98973  0.45928  0.77121  1.0000
  H   H18       1.0  0.48974  0.95928  0.72879  1.0000
  H   H19       1.0  0.01028  0.54073  0.22879  1.0000
  H   H20       1.0  0.51026  0.04071  0.27121  1.0000
  H   H21       1.0  0.65193  0.36906  0.76356  1.0000
  H   H22       1.0  0.15194  0.86908  0.73644  1.0000
  H   H23       1.0  0.34808  0.63093  0.23644  1.0000
  H   H24       1.0  0.84807  0.13092  0.26356  1.0000
  C   C1        1.0  0.49012  0.51730  0.87842  1.0000
  C   C2        1.0  0.99012  0.01729  0.62157  1.0000
  C   C3        1.0  0.50987  0.48269  0.12157  1.0000
  C   C4        1.0  0.00988  0.98270  0.37843  1.0000
  C   C5        1.0  0.43410  0.68372  0.93523  1.0000
  C   C6        1.0  0.93409  0.18371  0.56477  1.0000
  C   C7        1.0  0.56590  0.31628  0.06477  1.0000
  C   C8        1.0  0.06591  0.81628  0.43523  1.0000
  C   C9        1.0  0.81354  0.39186  0.80017  1.0000
  C   C10       1.0  0.31355  0.89186  0.69983  1.0000
  C   C11       1.0  0.18646  0.60814  0.19983  1.0000
  C   C12       1.0  0.68645  0.10814  0.30017  1.0000
  C   C13       1.0  0.85789  0.16451  0.83312  1.0000
  C   C14       1.0  0.35788  0.66451  0.66688  1.0000
  C   C15       1.0  0.14212  0.83550  0.16688  1.0000
  C   C16       1.0  0.64212  0.33548  0.33313  1.0000
  N   N1        1.0  0.76150  0.56263  0.85321  1.0000
  N   N2        1.0  0.26151  0.06262  0.64679  1.0000
  N   N3        1.0  0.23849  0.43737  0.14679  1.0000
  N   N4        1.0  0.73850  0.93737  0.35321  1.0000
  O   O1        1.0  0.61971  0.76701  0.97339  1.0000
  O   O2        1.0  0.11972  0.26701  0.52661  1.0000
  O   O3        1.0  0.38026  0.23300  0.02660  1.0000
  O   O4        1.0  0.88029  0.73300  0.47339  1.0000
  O   O5        1.0  0.20107  0.71980  0.94017  1.0000
  O   O6        1.0  0.70109  0.21978  0.55983  1.0000
  O   O7        1.0  0.79889  0.28020  0.05982  1.0000
  O   O8        1.0  0.29891  0.78022  0.44018  1.0000
  O   O9        1.0  0.81695  0.98735  0.79459  1.0000
  O   O10       1.0  0.31692  0.48733  0.70542  1.0000
  O   O11       1.0  0.18306  0.01266  0.20542  1.0000
  O   O12       1.0  0.68307  0.51266  0.29458  1.0000
  O   O13       1.0  0.93910  0.17281  0.89456  1.0000
  O   O14       1.0  0.43910  0.67279  0.60545  1.0000
  O   O15       1.0  0.06091  0.82721  0.10545  1.0000
  O   O16       1.0  0.56090  0.32721  0.39456  1.0000
