data_image0
_chemical_formula_structural       Li4H6C16N2O8
_chemical_formula_sum              "Li4 H6 C16 N2 O8"
_cell_length_a       5.19923
_cell_length_b       9.41313
_cell_length_c       9.25481
_cell_angle_alpha    104.871
_cell_angle_beta     96.0704
_cell_angle_gamma    106.09

_space_group_name_H-M_alt    "P 1"
_space_group_IT_number       1

loop_
  _space_group_symop_operation_xyz
  'x, y, z'

loop_
  _atom_site_type_symbol
  _atom_site_label
  _atom_site_symmetry_multiplicity
  _atom_site_fract_x
  _atom_site_fract_y
  _atom_site_fract_z
  _atom_site_occupancy
  Li  Li1       1.0  0.29116  0.86346  0.11210  1.0000
  Li  Li2       1.0  0.70884  0.13654  0.88790  1.0000
  Li  Li3       1.0  0.86009  0.03431  0.12346  1.0000
  Li  Li4       1.0  0.13991  0.96569  0.87654  1.0000
  H   H1        1.0  0.62436  0.23916  0.61712  1.0000
  H   H2        1.0  0.37564  0.76084  0.38288  1.0000
  H   H3        1.0  0.24948  0.53874  0.89029  1.0000
  H   H4        1.0  0.75052  0.46126  0.10971  1.0000
  H   H5        1.0  0.87133  0.72263  0.65185  1.0000
  H   H6        1.0  0.12867  0.27737  0.34815  1.0000
  C   C1        1.0  0.76156  0.47828  0.62261  1.0000
  C   C2        1.0  0.23844  0.52172  0.37739  1.0000
  C   C3        1.0  0.60446  0.35339  0.66392  1.0000
  C   C4        1.0  0.39553  0.64661  0.33608  1.0000
  C   C5        1.0  0.42237  0.37531  0.76206  1.0000
  C   C6        1.0  0.57763  0.62470  0.23794  1.0000
  C   C7        1.0  0.39818  0.52275  0.81829  1.0000
  C   C8        1.0  0.60182  0.47725  0.18171  1.0000
  C   C9        1.0  0.56544  0.64954  0.78323  1.0000
  C   C10       1.0  0.43456  0.35046  0.21677  1.0000
  C   C11       1.0  0.74607  0.62738  0.68514  1.0000
  C   C12       1.0  0.25392  0.37262  0.31486  1.0000
  C   C13       1.0  0.25308  0.24295  0.80819  1.0000
  C   C14       1.0  0.74692  0.75705  0.19181  1.0000
  C   C15       1.0  0.54520  0.80713  0.85055  1.0000
  C   C16       1.0  0.45480  0.19287  0.14945  1.0000
  N   N1        1.0  0.92818  0.44228  0.51662  1.0000
  N   N2        1.0  0.07181  0.55771  0.48338  1.0000
  O   O1        1.0  0.03449  0.25186  0.85086  1.0000
  O   O2        1.0  0.96551  0.74814  0.14914  1.0000
  O   O3        1.0  0.34474  0.12813  0.80406  1.0000
  O   O4        1.0  0.65526  0.87187  0.19594  1.0000
  O   O5        1.0  0.75548  0.92599  0.86987  1.0000
  O   O6        1.0  0.24452  0.07401  0.13013  1.0000
  O   O7        1.0  0.32223  0.81779  0.88889  1.0000
  O   O8        1.0  0.67777  0.18221  0.11112  1.0000
