data_image0
_chemical_formula_structural       Mn2H32C28N28O4
_chemical_formula_sum              "Mn2 H32 C28 N28 O4"
_cell_length_a       9.58963
_cell_length_b       9.49189
_cell_length_c       12.2341
_cell_angle_alpha    96.3129
_cell_angle_beta     95.5302
_cell_angle_gamma    117.627

_space_group_name_H-M_alt    "P 1"
_space_group_IT_number       1

loop_
  _space_group_symop_operation_xyz
  'x, y, z'

loop_
  _atom_site_type_symbol
  _atom_site_label
  _atom_site_symmetry_multiplicity
  _atom_site_fract_x
  _atom_site_fract_y
  _atom_site_fract_z
  _atom_site_occupancy
  Mn  Mn1       1.0  0.00001  0.50001  0.00000  1.0000
  Mn  Mn2       1.0  0.99999  0.50000  0.50000  1.0000
  H   H1        1.0  0.47594  0.11076  0.32093  1.0000
  H   H2        1.0  0.52406  0.88924  0.67907  1.0000
  H   H3        1.0  0.41854  0.05039  0.18298  1.0000
  H   H4        1.0  0.58147  0.94961  0.81701  1.0000
  H   H5        1.0  0.57237  0.56600  0.34071  1.0000
  H   H6        1.0  0.42763  0.43400  0.65929  1.0000
  H   H7        1.0  0.62071  0.40833  0.34873  1.0000
  H   H8        1.0  0.37928  0.59167  0.65127  1.0000
  H   H9        1.0  0.92117  0.93250  0.16792  1.0000
  H   H10       1.0  0.07883  0.06749  0.83208  1.0000
  H   H11       1.0  0.07102  0.87607  0.15212  1.0000
  H   H12       1.0  0.92897  0.12392  0.84788  1.0000
  H   H13       1.0  0.79148  0.38105  0.21801  1.0000
  H   H14       1.0  0.20852  0.61895  0.78199  1.0000
  H   H15       1.0  0.76382  0.67058  0.98709  1.0000
  H   H16       1.0  0.23618  0.32942  0.01291  1.0000
  H   H17       1.0  0.54579  0.63717  0.13048  1.0000
  H   H18       1.0  0.45420  0.36283  0.86951  1.0000
  H   H19       1.0  0.11688  0.71607  0.28436  1.0000
  H   H20       1.0  0.88313  0.28393  0.71565  1.0000
  H   H21       1.0  0.82523  0.73062  0.51838  1.0000
  H   H22       1.0  0.17478  0.26939  0.48162  1.0000
  H   H23       1.0  0.84903  0.94831  0.37613  1.0000
  H   H24       1.0  0.15097  0.05168  0.62387  1.0000
  H   H25       1.0  0.22466  0.53339  0.19687  1.0000
  H   H26       1.0  0.77534  0.46662  0.80313  1.0000
  H   H27       1.0  0.28949  0.69187  0.14160  1.0000
  H   H28       1.0  0.71053  0.30814  0.85840  1.0000
  H   H29       1.0  0.81612  0.21284  0.35512  1.0000
  H   H30       1.0  0.18387  0.78715  0.64488  1.0000
  H   H31       1.0  0.97501  0.28185  0.29945  1.0000
  H   H32       1.0  0.02499  0.71815  0.70055  1.0000
  C   C1        1.0  0.38448  0.33761  0.26611  1.0000
  C   C2        1.0  0.61552  0.66239  0.73389  1.0000
  C   C3        1.0  0.15376  0.11561  0.23734  1.0000
  C   C4        1.0  0.84624  0.88439  0.76266  1.0000
  C   C5        1.0  0.55874  0.45347  0.29408  1.0000
  C   C6        1.0  0.44126  0.54653  0.70592  1.0000
  C   C7        1.0  0.03193  0.94158  0.21023  1.0000
  C   C8        1.0  0.96807  0.05842  0.78977  1.0000
  C   C9        1.0  0.75266  0.45083  0.17049  1.0000
  C   C10       1.0  0.24734  0.54917  0.82951  1.0000
  C   C11       1.0  0.73573  0.60372  0.05539  1.0000
  C   C12       1.0  0.26427  0.39627  0.94461  1.0000
  C   C13       1.0  0.62808  0.58899  0.12545  1.0000
  C   C14       1.0  0.37192  0.41101  0.87454  1.0000
  C   C15       1.0  0.04377  0.74993  0.33227  1.0000
  C   C16       1.0  0.95623  0.25007  0.66773  1.0000
  C   C17       1.0  0.89024  0.76089  0.44930  1.0000
  C   C18       1.0  0.10975  0.23911  0.55070  1.0000
  C   C19       1.0  0.89988  0.86781  0.37976  1.0000
  C   C20       1.0  0.10012  0.13219  0.62024  1.0000
  C   C21       1.0  0.82004  0.12670  0.03759  1.0000
  C   C22       1.0  0.17998  0.87332  0.96243  1.0000
  C   C23       1.0  0.59007  0.91845  0.07545  1.0000
  C   C24       1.0  0.40996  0.08157  0.92456  1.0000
  C   C25       1.0  0.36510  0.68164  0.44738  1.0000
  C   C26       1.0  0.63490  0.31835  0.55261  1.0000
  C   C27       1.0  0.57167  0.91058  0.40284  1.0000
  C   C28       1.0  0.42832  0.08941  0.59716  1.0000
  N   N1        1.0  0.26975  0.37877  0.25855  1.0000
  N   N2        1.0  0.73025  0.62122  0.74145  1.0000
  N   N3        1.0  0.12503  0.23944  0.24057  1.0000
  N   N4        1.0  0.87497  0.76055  0.75942  1.0000
  N   N5        1.0  0.31547  0.17172  0.25323  1.0000
  N   N6        1.0  0.68453  0.82827  0.74676  1.0000
  N   N7        1.0  0.38216  0.06914  0.25664  1.0000
  N   N8        1.0  0.61784  0.93086  0.74336  1.0000
  N   N9        1.0  0.64012  0.49150  0.19786  1.0000
  N   N10       1.0  0.35987  0.50850  0.80214  1.0000
  N   N11       1.0  0.81292  0.51771  0.08448  1.0000
  N   N12       1.0  0.18708  0.48230  0.91552  1.0000
  N   N13       1.0  0.99750  0.85935  0.30604  1.0000
  N   N14       1.0  0.00249  0.14064  0.69396  1.0000
  N   N15       1.0  0.97987  0.68785  0.41873  1.0000
  N   N16       1.0  0.02014  0.31215  0.58128  1.0000
  N   N17       1.0  0.72887  0.97754  0.04417  1.0000
  N   N18       1.0  0.27116  0.02249  0.95586  1.0000
  N   N19       1.0  0.91560  0.25710  0.02722  1.0000
  N   N20       1.0  0.08442  0.74292  0.97278  1.0000
  N   N21       1.0  0.46364  0.84951  0.10228  1.0000
  N   N22       1.0  0.53637  0.15051  0.89772  1.0000
  N   N23       1.0  0.50292  0.76282  0.41939  1.0000
  N   N24       1.0  0.49707  0.23717  0.58059  1.0000
  N   N25       1.0  0.24390  0.59283  0.47422  1.0000
  N   N26       1.0  0.75609  0.40715  0.52578  1.0000
  N   N27       1.0  0.64890  0.04271  0.38535  1.0000
  N   N28       1.0  0.35109  0.95728  0.61465  1.0000
  O   O1        1.0  0.19113  0.60298  0.15947  1.0000
  O   O2        1.0  0.80888  0.39704  0.84054  1.0000
  O   O3        1.0  0.90450  0.31317  0.33859  1.0000
  O   O4        1.0  0.09549  0.68682  0.66141  1.0000
