data_image0
_chemical_formula_structural       Na4P4H32C32O12
_chemical_formula_sum              "Na4 P4 H32 C32 O12"
_cell_length_a       5.90682
_cell_length_b       7.65015
_cell_length_c       18.7355
_cell_angle_alpha    87.5085
_cell_angle_beta     88.4412
_cell_angle_gamma    89.832

_space_group_name_H-M_alt    "P 1"
_space_group_IT_number       1

loop_
  _space_group_symop_operation_xyz
  'x, y, z'

loop_
  _atom_site_type_symbol
  _atom_site_label
  _atom_site_symmetry_multiplicity
  _atom_site_fract_x
  _atom_site_fract_y
  _atom_site_fract_z
  _atom_site_occupancy
  Na  Na1       1.0  0.87979  0.16316  0.52700  1.0000
  Na  Na2       1.0  0.12027  0.83680  0.47301  1.0000
  Na  Na3       1.0  0.61915  0.66968  0.47319  1.0000
  Na  Na4       1.0  0.38087  0.33025  0.52682  1.0000
  P   P1        1.0  0.37335  0.92706  0.60594  1.0000
  P   P2        1.0  0.62668  0.07286  0.39406  1.0000
  P   P3        1.0  0.12310  0.44783  0.39558  1.0000
  P   P4        1.0  0.87691  0.55212  0.60444  1.0000
  H   H1        1.0  0.73680  0.87922  0.59711  1.0000
  H   H2        1.0  0.26325  0.12073  0.40288  1.0000
  H   H3        1.0  0.37393  0.81304  0.73170  1.0000
  H   H4        1.0  0.62610  0.18698  0.26833  1.0000
  H   H5        1.0  0.99266  0.06262  0.68210  1.0000
  H   H6        1.0  0.00739  0.93735  0.31789  1.0000
  H   H7        1.0  0.24769  0.81283  0.84255  1.0000
  H   H8        1.0  0.75231  0.18719  0.15746  1.0000
  H   H9        1.0  0.06350  0.80287  0.96231  1.0000
  H   H10       1.0  0.93647  0.19721  0.03770  1.0000
  H   H11       1.0  0.69116  0.94711  0.98252  1.0000
  H   H12       1.0  0.30882  0.05297  0.01746  1.0000
  H   H13       1.0  0.50102  0.10318  0.87990  1.0000
  H   H14       1.0  0.49900  0.89690  0.12007  1.0000
  H   H15       1.0  0.68658  0.11275  0.75944  1.0000
  H   H16       1.0  0.31347  0.88727  0.24053  1.0000
  H   H17       1.0  0.76054  0.39754  0.40401  1.0000
  H   H18       1.0  0.23947  0.60238  0.59600  1.0000
  H   H19       1.0  0.12946  0.36078  0.26975  1.0000
  H   H20       1.0  0.87057  0.63919  0.73025  1.0000
  H   H21       1.0  0.49363  0.61129  0.32089  1.0000
  H   H22       1.0  0.50634  0.38873  0.67911  1.0000
  H   H23       1.0  0.27028  0.37490  0.16062  1.0000
  H   H24       1.0  0.72967  0.62513  0.83939  1.0000
  H   H25       1.0  0.47345  0.38118  0.04406  1.0000
  H   H26       1.0  0.52648  0.61884  0.95595  1.0000
  H   H27       1.0  0.83421  0.54655  0.02553  1.0000
  H   H28       1.0  0.16573  0.45345  0.97448  1.0000
  H   H29       1.0  0.99841  0.69945  0.12729  1.0000
  H   H30       1.0  0.00152  0.30059  0.87270  1.0000
  H   H31       1.0  0.79739  0.68792  0.24567  1.0000
  H   H32       1.0  0.20257  0.31213  0.75433  1.0000
  C   C1        1.0  0.27516  0.90051  0.69684  1.0000
  C   C2        1.0  0.72489  0.09946  0.30316  1.0000
  C   C3        1.0  0.08443  0.97905  0.72036  1.0000
  C   C4        1.0  0.91561  0.02095  0.27963  1.0000
  C   C5        1.0  0.98051  0.96487  0.79219  1.0000
  C   C6        1.0  0.01949  0.03514  0.20780  1.0000
  C   C7        1.0  0.08410  0.87651  0.85022  1.0000
  C   C8        1.0  0.91593  0.12354  0.14978  1.0000
  C   C9        1.0  0.98004  0.87059  0.91784  1.0000
  C   C10       1.0  0.01993  0.12944  0.08215  1.0000
  C   C11       1.0  0.77028  0.95200  0.92915  1.0000
  C   C12       1.0  0.22968  0.04808  0.07083  1.0000
  C   C13       1.0  0.66427  0.03889  0.87200  1.0000
  C   C14       1.0  0.33571  0.96114  0.12798  1.0000
  C   C15       1.0  0.76860  0.04494  0.80418  1.0000
  C   C16       1.0  0.23145  0.95511  0.19579  1.0000
  C   C17       1.0  0.22213  0.44398  0.30485  1.0000
  C   C18       1.0  0.77788  0.55601  0.69515  1.0000
  C   C19       1.0  0.40918  0.53255  0.28226  1.0000
  C   C20       1.0  0.59082  0.46747  0.71775  1.0000
  C   C21       1.0  0.51919  0.53317  0.21150  1.0000
  C   C22       1.0  0.48077  0.46684  0.78850  1.0000
  C   C23       1.0  0.42933  0.44657  0.15385  1.0000
  C   C24       1.0  0.57063  0.55346  0.84616  1.0000
  C   C25       1.0  0.54309  0.45116  0.08782  1.0000
  C   C26       1.0  0.45687  0.54886  0.91219  1.0000
  C   C27       1.0  0.74704  0.54290  0.07766  1.0000
  C   C28       1.0  0.25290  0.45713  0.92234  1.0000
  C   C29       1.0  0.83904  0.62844  0.13442  1.0000
  C   C30       1.0  0.16090  0.37159  0.86557  1.0000
  C   C31       1.0  0.72607  0.62270  0.20084  1.0000
  C   C32       1.0  0.27388  0.37734  0.79916  1.0000
  O   O1        1.0  0.63197  0.98771  0.60860  1.0000
  O   O2        1.0  0.36807  0.01223  0.39140  1.0000
  O   O3        1.0  0.37686  0.74879  0.57130  1.0000
  O   O4        1.0  0.62319  0.25114  0.42872  1.0000
  O   O5        1.0  0.23412  0.06543  0.56665  1.0000
  O   O6        1.0  0.76592  0.93448  0.43335  1.0000
  O   O7        1.0  0.86442  0.50887  0.39313  1.0000
  O   O8        1.0  0.13560  0.49107  0.60689  1.0000
  O   O9        1.0  0.12273  0.26063  0.42872  1.0000
  O   O10       1.0  0.87735  0.73931  0.57129  1.0000
  O   O11       1.0  0.26165  0.57615  0.43570  1.0000
  O   O12       1.0  0.73837  0.42380  0.56431  1.0000
