data_image0
_chemical_formula_structural       Tl4H8C12S4
_chemical_formula_sum              "Tl4 H8 C12 S4"
_cell_length_a       6.51195
_cell_length_b       6.8748
_cell_length_c       9.68391
_cell_angle_alpha    70.2845
_cell_angle_beta     88.9057
_cell_angle_gamma    89.8257

_space_group_name_H-M_alt    "P 1"
_space_group_IT_number       1

loop_
  _space_group_symop_operation_xyz
  'x, y, z'

loop_
  _atom_site_type_symbol
  _atom_site_label
  _atom_site_symmetry_multiplicity
  _atom_site_fract_x
  _atom_site_fract_y
  _atom_site_fract_z
  _atom_site_occupancy
  Tl  Tl1       1.0  0.02931  0.60242  0.65454  1.0000
  Tl  Tl2       1.0  0.97069  0.39758  0.34547  1.0000
  Tl  Tl3       1.0  0.50960  0.89826  0.34342  1.0000
  Tl  Tl4       1.0  0.49039  0.10175  0.65657  1.0000
  H   H1        1.0  0.23471  0.75132  0.16973  1.0000
  H   H2        1.0  0.76527  0.24871  0.83027  1.0000
  H   H3        1.0  0.75815  0.21235  0.09026  1.0000
  H   H4        1.0  0.24184  0.78764  0.90975  1.0000
  H   H5        1.0  0.73519  0.70907  0.09334  1.0000
  H   H6        1.0  0.26487  0.29094  0.90665  1.0000
  H   H7        1.0  0.25305  0.25310  0.16691  1.0000
  H   H8        1.0  0.74697  0.74690  0.83307  1.0000
  C   C1        1.0  0.99432  0.97645  0.15258  1.0000
  C   C2        1.0  0.00563  0.02356  0.84745  1.0000
  C   C3        1.0  0.13062  0.86109  0.09599  1.0000
  C   C4        1.0  0.86933  0.13891  0.90404  1.0000
  C   C5        1.0  0.86378  0.11665  0.05253  1.0000
  C   C6        1.0  0.13616  0.88334  0.94750  1.0000
  C   C7        1.0  0.49460  0.47565  0.15278  1.0000
  C   C8        1.0  0.50543  0.52432  0.84725  1.0000
  C   C9        1.0  0.63216  0.61511  0.05410  1.0000
  C   C10       1.0  0.36785  0.38490  0.94588  1.0000
  C   C11       1.0  0.36254  0.36201  0.09450  1.0000
  C   C12       1.0  0.63752  0.63800  0.90548  1.0000
  S   S1        1.0  0.98963  0.95044  0.33998  1.0000
  S   S2        1.0  0.01033  0.04957  0.66001  1.0000
  S   S3        1.0  0.48397  0.44930  0.34019  1.0000
  S   S4        1.0  0.51609  0.55070  0.65973  1.0000
