data_image0
_chemical_formula_structural       Ag2H16C14S2N2O6
_chemical_formula_sum              "Ag2 H16 C14 S2 N2 O6"
_cell_length_a       5.40041
_cell_length_b       8.08936
_cell_length_c       10.1234
_cell_angle_alpha    78.6169
_cell_angle_beta     91.3837
_cell_angle_gamma    84.1489

_space_group_name_H-M_alt    "P 1"
_space_group_IT_number       1

loop_
  _space_group_symop_operation_xyz
  'x, y, z'

loop_
  _atom_site_type_symbol
  _atom_site_label
  _atom_site_symmetry_multiplicity
  _atom_site_fract_x
  _atom_site_fract_y
  _atom_site_fract_z
  _atom_site_occupancy
  Ag  Ag1       1.0  0.77885  0.71602  0.77387  1.0000
  Ag  Ag2       1.0  0.22115  0.28398  0.22613  1.0000
  H   H1        1.0  0.61427  0.89536  0.99992  1.0000
  H   H2        1.0  0.38571  0.10462  0.00008  1.0000
  H   H3        1.0  0.25592  0.59850  0.94201  1.0000
  H   H4        1.0  0.74409  0.40150  0.05799  1.0000
  H   H5        1.0  0.79045  0.95280  0.21556  1.0000
  H   H6        1.0  0.20954  0.04719  0.78443  1.0000
  H   H7        1.0  0.23699  0.55512  0.43866  1.0000
  H   H8        1.0  0.76300  0.44487  0.56135  1.0000
  H   H9        1.0  0.96691  0.69261  0.46156  1.0000
  H   H10       1.0  0.03308  0.30739  0.53844  1.0000
  H   H11       1.0  0.17908  0.94550  0.35683  1.0000
  H   H12       1.0  0.82092  0.05450  0.64318  1.0000
  H   H13       1.0  0.45100  0.80872  0.33654  1.0000
  H   H14       1.0  0.54900  0.19128  0.66347  1.0000
  H   H15       1.0  0.45286  0.63139  0.16177  1.0000
  H   H16       1.0  0.54716  0.36862  0.83822  1.0000
  C   C1        1.0  0.80055  0.84127  0.03890  1.0000
  C   C2        1.0  0.19945  0.15873  0.96109  1.0000
  C   C3        1.0  0.15889  0.67339  0.00736  1.0000
  C   C4        1.0  0.84111  0.32660  0.99263  1.0000
  C   C5        1.0  0.89739  0.87032  0.15932  1.0000
  C   C6        1.0  0.10263  0.12969  0.84069  1.0000
  C   C7        1.0  0.17010  0.68303  0.45274  1.0000
  C   C8        1.0  0.82989  0.31698  0.54726  1.0000
  C   C9        1.0  0.24695  0.81967  0.33842  1.0000
  C   C10       1.0  0.75306  0.18033  0.66158  1.0000
  C   C11       1.0  0.13685  0.79574  0.20662  1.0000
  C   C12       1.0  0.86315  0.20427  0.79338  1.0000
  C   C13       1.0  0.26708  0.69417  0.12824  1.0000
  C   C14       1.0  0.73293  0.30584  0.87176  1.0000
  S   S1        1.0  0.29470  0.69800  0.61458  1.0000
  S   S2        1.0  0.70529  0.30199  0.38542  1.0000
  N   N1        1.0  0.92777  0.74513  0.96293  1.0000
  N   N2        1.0  0.07225  0.25486  0.03707  1.0000
  O   O1        1.0  0.57210  0.68911  0.59748  1.0000
  O   O2        1.0  0.42789  0.31089  0.40252  1.0000
  O   O3        1.0  0.19359  0.86093  0.64477  1.0000
  O   O4        1.0  0.80639  0.13908  0.35523  1.0000
  O   O5        1.0  0.22552  0.54946  0.71014  1.0000
  O   O6        1.0  0.77447  0.45055  0.28987  1.0000
