data_image0
_chemical_formula_structural       H44Pb2C52N4O8
_chemical_formula_sum              "H44 Pb2 C52 N4 O8"
_cell_length_a       5.3015
_cell_length_b       10.6386
_cell_length_c       20.219
_cell_angle_alpha    103.009
_cell_angle_beta     90
_cell_angle_gamma    104.428

_space_group_name_H-M_alt    "P 1"
_space_group_IT_number       1

loop_
  _space_group_symop_operation_xyz
  'x, y, z'

loop_
  _atom_site_type_symbol
  _atom_site_label
  _atom_site_symmetry_multiplicity
  _atom_site_fract_x
  _atom_site_fract_y
  _atom_site_fract_z
  _atom_site_occupancy
  H   H1        1.0  0.33468  0.30399  0.23529  1.0000
  H   H2        1.0  0.03055  0.69581  0.26468  1.0000
  H   H3        1.0  0.66534  0.69603  0.76470  1.0000
  H   H4        1.0  0.96957  0.30420  0.73532  1.0000
  H   H5        1.0  0.77776  0.29634  0.05662  1.0000
  H   H6        1.0  0.48250  0.70343  0.44316  1.0000
  H   H7        1.0  0.22238  0.70372  0.94340  1.0000
  H   H8        1.0  0.51746  0.29655  0.55687  1.0000
  H   H9        1.0  0.41988  0.11352  0.99046  1.0000
  H   H10       1.0  0.30807  0.88646  0.50941  1.0000
  H   H11       1.0  0.58026  0.88654  0.00954  1.0000
  H   H12       1.0  0.69186  0.11353  0.49059  1.0000
  H   H13       1.0  0.01597  0.02651  0.04900  1.0000
  H   H14       1.0  0.99140  0.97370  0.45101  1.0000
  H   H15       1.0  0.98416  0.97352  0.95098  1.0000
  H   H16       1.0  0.00857  0.02628  0.54899  1.0000
  H   H17       1.0  0.81126  0.52065  0.17324  1.0000
  H   H18       1.0  0.29102  0.47925  0.32663  1.0000
  H   H19       1.0  0.18874  0.47940  0.82680  1.0000
  H   H20       1.0  0.70902  0.52074  0.67338  1.0000
  H   H21       1.0  0.98694  0.40289  0.18093  1.0000
  H   H22       1.0  0.58437  0.59692  0.31880  1.0000
  H   H23       1.0  0.01312  0.59715  0.81907  1.0000
  H   H24       1.0  0.41569  0.40308  0.68122  1.0000
  H   H25       1.0  0.77082  0.44606  0.24406  1.0000
  H   H26       1.0  0.32473  0.55373  0.25577  1.0000
  H   H27       1.0  0.22923  0.55393  0.75596  1.0000
  H   H28       1.0  0.67536  0.44628  0.74424  1.0000
  H   H29       1.0  0.83952  0.33221  0.33637  1.0000
  H   H30       1.0  0.50785  0.66833  0.16349  1.0000
  H   H31       1.0  0.16039  0.66777  0.66363  1.0000
  H   H32       1.0  0.49210  0.33168  0.83649  1.0000
  H   H33       1.0  0.88062  0.52305  0.43561  1.0000
  H   H34       1.0  0.35812  0.47734  0.06432  1.0000
  H   H35       1.0  0.11929  0.47693  0.56439  1.0000
  H   H36       1.0  0.64179  0.52266  0.93568  1.0000
  H   H37       1.0  0.09959  0.33055  0.48158  1.0000
  H   H38       1.0  0.76886  0.66935  0.01832  1.0000
  H   H39       1.0  0.90036  0.66937  0.51843  1.0000
  H   H40       1.0  0.23105  0.33064  0.98166  1.0000
  H   H41       1.0  0.08812  0.15464  0.37879  1.0000
  H   H42       1.0  0.93346  0.84553  0.12101  1.0000
  H   H43       1.0  0.91182  0.84531  0.62120  1.0000
  H   H44       1.0  0.06647  0.15448  0.87897  1.0000
  Pb  Pb1       1.0  0.45883  0.99997  0.25007  1.0000
  Pb  Pb2       1.0  0.54121  0.00002  0.74991  1.0000
  C   C1        1.0  0.15257  0.16095  0.14477  1.0000
  C   C2        1.0  0.99237  0.83906  0.35522  1.0000
  C   C3        1.0  0.84750  0.83907  0.85521  1.0000
  C   C4        1.0  0.00766  0.16094  0.64478  1.0000
  C   C5        1.0  0.35518  0.26490  0.18150  1.0000
  C   C6        1.0  0.09067  0.73500  0.31845  1.0000
  C   C7        1.0  0.64486  0.73513  0.81850  1.0000
  C   C8        1.0  0.90940  0.26500  0.68155  1.0000
  C   C9        1.0  0.58054  0.31614  0.15021  1.0000
  C   C10       1.0  0.26500  0.68373  0.34965  1.0000
  C   C11       1.0  0.41948  0.68389  0.84981  1.0000
  C   C12       1.0  0.73504  0.31627  0.65036  1.0000
  C   C13       1.0  0.60007  0.26009  0.08114  1.0000
  C   C14       1.0  0.34104  0.73978  0.41869  1.0000
  C   C15       1.0  0.40000  0.73994  0.91887  1.0000
  C   C16       1.0  0.65893  0.26022  0.58133  1.0000
  C   C17       1.0  0.39970  0.15665  0.04396  1.0000
  C   C18       1.0  0.24451  0.84332  0.45593  1.0000
  C   C19       1.0  0.60041  0.84338  0.95603  1.0000
  C   C20       1.0  0.75547  0.15668  0.54409  1.0000
  C   C21       1.0  0.17582  0.10735  0.07589  1.0000
  C   C22       1.0  0.06992  0.89273  0.42407  1.0000
  C   C23       1.0  0.82428  0.89268  0.92409  1.0000
  C   C24       1.0  0.93006  0.10726  0.57594  1.0000
  C   C25       1.0  0.91242  0.10612  0.17883  1.0000
  C   C26       1.0  0.80680  0.89395  0.32128  1.0000
  C   C27       1.0  0.08761  0.89389  0.82115  1.0000
  C   C28       1.0  0.19322  0.10604  0.67871  1.0000
  C   C29       1.0  0.79827  0.42718  0.18935  1.0000
  C   C30       1.0  0.37140  0.57266  0.31046  1.0000
  C   C31       1.0  0.20176  0.57284  0.81066  1.0000
  C   C32       1.0  0.62866  0.42736  0.68955  1.0000
  C   C33       1.0  0.67932  0.33725  0.36998  1.0000
  C   C34       1.0  0.34246  0.66317  0.12989  1.0000
  C   C35       1.0  0.32061  0.66272  0.63003  1.0000
  C   C36       1.0  0.65747  0.33683  0.87009  1.0000
  C   C37       1.0  0.70093  0.44334  0.42630  1.0000
  C   C38       1.0  0.25799  0.55696  0.07361  1.0000
  C   C39       1.0  0.29897  0.55661  0.57370  1.0000
  C   C40       1.0  0.74193  0.44303  0.92639  1.0000
  C   C41       1.0  0.49273  0.44548  0.46929  1.0000
  C   C42       1.0  0.04731  0.55457  0.03067  1.0000
  C   C43       1.0  0.50719  0.55447  0.53071  1.0000
  C   C44       1.0  0.95259  0.44542  0.96933  1.0000
  C   C45       1.0  0.26981  0.33821  0.45118  1.0000
  C   C46       1.0  0.93164  0.66186  0.04870  1.0000
  C   C47       1.0  0.73013  0.66173  0.54883  1.0000
  C   C48       1.0  0.06827  0.33814  0.95129  1.0000
  C   C49       1.0  0.26319  0.23704  0.39339  1.0000
  C   C50       1.0  0.02622  0.76315  0.10645  1.0000
  C   C51       1.0  0.73675  0.76290  0.60661  1.0000
  C   C52       1.0  0.97372  0.23686  0.89354  1.0000
  N   N1        1.0  0.46479  0.23534  0.35321  1.0000
  N   N2        1.0  0.22970  0.76503  0.14662  1.0000
  N   N3        1.0  0.53515  0.76462  0.64679  1.0000
  N   N4        1.0  0.77023  0.23498  0.85336  1.0000
  O   O1        1.0  0.73405  0.00987  0.14427  1.0000
  O   O2        1.0  0.72481  0.99017  0.35592  1.0000
  O   O3        1.0  0.26600  0.99012  0.85571  1.0000
  O   O4        1.0  0.27519  0.00982  0.64408  1.0000
  O   O5        1.0  0.89647  0.15672  0.24210  1.0000
  O   O6        1.0  0.73988  0.84338  0.25802  1.0000
  O   O7        1.0  0.10350  0.84330  0.75788  1.0000
  O   O8        1.0  0.26019  0.15664  0.74197  1.0000
