data_image0
_chemical_formula_structural       Zn4H60C60N8O12
_chemical_formula_sum              "Zn4 H60 C60 N8 O12"
_cell_length_a       9.39529
_cell_length_b       10.0564
_cell_length_c       15.626
_cell_angle_alpha    90
_cell_angle_beta     90
_cell_angle_gamma    102.841

_space_group_name_H-M_alt    "P 1"
_space_group_IT_number       1

loop_
  _space_group_symop_operation_xyz
  'x, y, z'

loop_
  _atom_site_type_symbol
  _atom_site_label
  _atom_site_symmetry_multiplicity
  _atom_site_fract_x
  _atom_site_fract_y
  _atom_site_fract_z
  _atom_site_occupancy
  Zn  Zn1       1.0  0.63114  0.98700  0.93639  1.0000
  Zn  Zn2       1.0  0.63114  0.48700  0.56361  1.0000
  Zn  Zn3       1.0  0.36886  0.01300  0.06361  1.0000
  Zn  Zn4       1.0  0.36886  0.51300  0.43639  1.0000
  H   H1        1.0  0.67923  0.04823  0.76070  1.0000
  H   H2        1.0  0.67923  0.54823  0.73930  1.0000
  H   H3        1.0  0.32077  0.95177  0.23930  1.0000
  H   H4        1.0  0.32077  0.45177  0.26070  1.0000
  H   H5        1.0  0.24900  0.19150  0.93113  1.0000
  H   H6        1.0  0.24899  0.69149  0.56887  1.0000
  H   H7        1.0  0.75100  0.80851  0.06887  1.0000
  H   H8        1.0  0.75100  0.30851  0.43113  1.0000
  H   H9        1.0  0.60643  0.26913  0.93611  1.0000
  H   H10       1.0  0.60643  0.76913  0.56388  1.0000
  H   H11       1.0  0.39357  0.73087  0.06388  1.0000
  H   H12       1.0  0.39357  0.23087  0.43611  1.0000
  H   H13       1.0  0.69198  0.80562  0.72475  1.0000
  H   H14       1.0  0.69198  0.30562  0.77525  1.0000
  H   H15       1.0  0.30802  0.19438  0.27525  1.0000
  H   H16       1.0  0.30801  0.69437  0.22475  1.0000
  H   H17       1.0  0.90375  0.00782  0.72283  1.0000
  H   H18       1.0  0.90375  0.50781  0.77717  1.0000
  H   H19       1.0  0.09625  0.99219  0.27717  1.0000
  H   H20       1.0  0.09625  0.49218  0.22282  1.0000
  H   H21       1.0  0.95567  0.86044  0.76467  1.0000
  H   H22       1.0  0.95567  0.36044  0.73533  1.0000
  H   H23       1.0  0.04433  0.13956  0.23533  1.0000
  H   H24       1.0  0.04433  0.63955  0.26467  1.0000
  H   H25       1.0  0.92770  0.99129  0.83462  1.0000
  H   H26       1.0  0.92771  0.49129  0.66538  1.0000
  H   H27       1.0  0.07230  0.00871  0.16538  1.0000
  H   H28       1.0  0.07229  0.50870  0.33462  1.0000
  H   H29       1.0  0.44202  0.81854  0.81244  1.0000
  H   H30       1.0  0.44202  0.31854  0.68756  1.0000
  H   H31       1.0  0.55798  0.18146  0.18756  1.0000
  H   H32       1.0  0.55798  0.68146  0.31244  1.0000
  H   H33       1.0  0.48150  0.87268  0.70591  1.0000
  H   H34       1.0  0.48150  0.37268  0.79410  1.0000
  H   H35       1.0  0.51850  0.12732  0.29410  1.0000
  H   H36       1.0  0.51850  0.62732  0.20590  1.0000
  H   H37       1.0  0.16001  0.15431  0.65970  1.0000
  H   H38       1.0  0.16002  0.65432  0.84030  1.0000
  H   H39       1.0  0.83999  0.84569  0.34030  1.0000
  H   H40       1.0  0.83999  0.34569  0.15970  1.0000
  H   H41       1.0  0.11755  0.31514  0.02205  1.0000
  H   H42       1.0  0.11756  0.81514  0.47795  1.0000
  H   H43       1.0  0.88244  0.68486  0.97795  1.0000
  H   H44       1.0  0.88245  0.18486  0.52205  1.0000
  H   H45       1.0  0.33575  0.00202  0.64749  1.0000
  H   H46       1.0  0.33576  0.50202  0.85251  1.0000
  H   H47       1.0  0.66425  0.99798  0.35251  1.0000
  H   H48       1.0  0.66425  0.49798  0.14749  1.0000
  H   H49       1.0  0.75689  0.50205  0.95578  1.0000
  H   H50       1.0  0.75689  0.00205  0.54422  1.0000
  H   H51       1.0  0.24311  0.49795  0.04422  1.0000
  H   H52       1.0  0.24311  0.99795  0.45578  1.0000
  H   H53       1.0  0.95458  0.09284  0.99086  1.0000
  H   H54       1.0  0.95458  0.59284  0.50914  1.0000
  H   H55       1.0  0.04542  0.90716  0.00914  1.0000
  H   H56       1.0  0.04542  0.40717  0.49086  1.0000
  H   H57       1.0  0.11584  0.24801  0.80292  1.0000
  H   H58       1.0  0.11584  0.74800  0.69708  1.0000
  H   H59       1.0  0.88416  0.75199  0.19708  1.0000
  H   H60       1.0  0.88416  0.25199  0.30292  1.0000
  C   C1        1.0  0.38855  0.00892  0.78126  1.0000
  C   C2        1.0  0.38856  0.50892  0.71874  1.0000
  C   C3        1.0  0.61145  0.99108  0.21873  1.0000
  C   C4        1.0  0.61145  0.49108  0.28127  1.0000
  C   C5        1.0  0.36358  0.06245  0.86257  1.0000
  C   C6        1.0  0.36358  0.56245  0.63743  1.0000
  C   C7        1.0  0.63643  0.93755  0.13743  1.0000
  C   C8        1.0  0.63642  0.43755  0.36257  1.0000
  C   C9        1.0  0.26441  0.14879  0.86861  1.0000
  C   C10       1.0  0.26440  0.64879  0.63139  1.0000
  C   C11       1.0  0.73560  0.85121  0.13139  1.0000
  C   C12       1.0  0.73559  0.35121  0.36861  1.0000
  C   C13       1.0  0.72147  0.28517  0.95352  1.0000
  C   C14       1.0  0.72147  0.78517  0.54648  1.0000
  C   C15       1.0  0.27853  0.71483  0.04648  1.0000
  C   C16       1.0  0.27853  0.21483  0.45352  1.0000
  C   C17       1.0  0.72752  0.86338  0.78396  1.0000
  C   C18       1.0  0.72753  0.36338  0.71604  1.0000
  C   C19       1.0  0.27248  0.13662  0.21604  1.0000
  C   C20       1.0  0.27247  0.63661  0.28396  1.0000
  C   C21       1.0  0.71096  0.76019  0.85774  1.0000
  C   C22       1.0  0.71095  0.26020  0.64226  1.0000
  C   C23       1.0  0.28904  0.23980  0.14226  1.0000
  C   C24       1.0  0.28904  0.73979  0.35774  1.0000
  C   C25       1.0  0.95288  0.43159  0.99216  1.0000
  C   C26       1.0  0.95288  0.93159  0.50784  1.0000
  C   C27       1.0  0.04712  0.56841  0.00784  1.0000
  C   C28       1.0  0.04712  0.06841  0.49216  1.0000
  C   C29       1.0  0.88825  0.93480  0.77594  1.0000
  C   C30       1.0  0.88825  0.43480  0.72406  1.0000
  C   C31       1.0  0.11175  0.06520  0.22406  1.0000
  C   C32       1.0  0.11175  0.56520  0.27594  1.0000
  C   C33       1.0  0.48466  0.90892  0.77260  1.0000
  C   C34       1.0  0.48466  0.40892  0.72740  1.0000
  C   C35       1.0  0.51534  0.09108  0.22740  1.0000
  C   C36       1.0  0.51534  0.59108  0.27260  1.0000
  C   C37       1.0  0.21613  0.12842  0.71625  1.0000
  C   C38       1.0  0.21614  0.62842  0.78375  1.0000
  C   C39       1.0  0.78387  0.87158  0.28375  1.0000
  C   C40       1.0  0.78387  0.37158  0.21625  1.0000
  C   C41       1.0  0.00617  0.31228  0.00154  1.0000
  C   C42       1.0  0.00617  0.81228  0.49846  1.0000
  C   C43       1.0  0.99383  0.68772  0.99846  1.0000
  C   C44       1.0  0.99383  0.18772  0.50154  1.0000
  C   C45       1.0  0.31492  0.04374  0.70967  1.0000
  C   C46       1.0  0.31492  0.54374  0.79033  1.0000
  C   C47       1.0  0.68508  0.95626  0.29033  1.0000
  C   C48       1.0  0.68508  0.45627  0.20967  1.0000
  C   C49       1.0  0.80605  0.41525  0.96749  1.0000
  C   C50       1.0  0.80604  0.91525  0.53251  1.0000
  C   C51       1.0  0.19396  0.58476  0.03251  1.0000
  C   C52       1.0  0.19396  0.08476  0.46749  1.0000
  C   C53       1.0  0.91477  0.18627  0.98490  1.0000
  C   C54       1.0  0.91477  0.68627  0.51510  1.0000
  C   C55       1.0  0.08523  0.81373  0.01509  1.0000
  C   C56       1.0  0.08523  0.31373  0.48491  1.0000
  C   C57       1.0  0.19148  0.18049  0.79644  1.0000
  C   C58       1.0  0.19148  0.68048  0.70356  1.0000
  C   C59       1.0  0.80852  0.81952  0.20356  1.0000
  C   C60       1.0  0.80852  0.31951  0.29644  1.0000
  N   N1        1.0  0.77458  0.17170  0.96093  1.0000
  N   N2        1.0  0.77458  0.67170  0.53907  1.0000
  N   N3        1.0  0.22542  0.82831  0.03907  1.0000
  N   N4        1.0  0.22542  0.32830  0.46093  1.0000
  N   N5        1.0  0.63819  0.96443  0.79897  1.0000
  N   N6        1.0  0.63819  0.46443  0.70103  1.0000
  N   N7        1.0  0.36181  0.03557  0.20103  1.0000
  N   N8        1.0  0.36181  0.53557  0.29897  1.0000
  O   O1        1.0  0.43231  0.03132  0.93283  1.0000
  O   O2        1.0  0.43231  0.53131  0.56717  1.0000
  O   O3        1.0  0.56769  0.96869  0.06717  1.0000
  O   O4        1.0  0.56769  0.46869  0.43283  1.0000
  O   O5        1.0  0.68321  0.80238  0.93273  1.0000
  O   O6        1.0  0.68322  0.30238  0.56727  1.0000
  O   O7        1.0  0.31678  0.19762  0.06727  1.0000
  O   O8        1.0  0.31678  0.69762  0.43273  1.0000
  O   O9        1.0  0.73350  0.64414  0.84335  1.0000
  O   O10       1.0  0.73349  0.14413  0.65665  1.0000
  O   O11       1.0  0.26651  0.35586  0.15665  1.0000
  O   O12       1.0  0.26650  0.85586  0.34335  1.0000
