data_image0
_chemical_formula_structural       Zn2H32C36N4Cl4O4
_chemical_formula_sum              "Zn2 H32 C36 N4 Cl4 O4"
_cell_length_a       8.75815
_cell_length_b       10.2626
_cell_length_c       10.5411
_cell_angle_alpha    86.9704
_cell_angle_beta     72.3471
_cell_angle_gamma    73.0265

_space_group_name_H-M_alt    "P 1"
_space_group_IT_number       1

loop_
  _space_group_symop_operation_xyz
  'x, y, z'

loop_
  _atom_site_type_symbol
  _atom_site_label
  _atom_site_symmetry_multiplicity
  _atom_site_fract_x
  _atom_site_fract_y
  _atom_site_fract_z
  _atom_site_occupancy
  Zn  Zn1       1.0  0.70871  0.79053  0.29416  1.0000
  Zn  Zn2       1.0  0.29129  0.20947  0.70584  1.0000
  H   H1        1.0  0.89057  0.57747  0.42199  1.0000
  H   H2        1.0  0.10943  0.42253  0.57801  1.0000
  H   H3        1.0  0.05300  0.32918  0.39068  1.0000
  H   H4        1.0  0.94699  0.67081  0.60932  1.0000
  H   H5        1.0  0.05403  0.19742  0.19479  1.0000
  H   H6        1.0  0.94597  0.80257  0.80522  1.0000
  H   H7        1.0  0.89207  0.31827  0.04339  1.0000
  H   H8        1.0  0.10792  0.68172  0.95661  1.0000
  H   H9        1.0  0.57413  0.61648  0.12172  1.0000
  H   H10       1.0  0.42587  0.38352  0.87828  1.0000
  H   H11       1.0  0.74558  0.68090  0.03351  1.0000
  H   H12       1.0  0.25443  0.31909  0.96649  1.0000
  H   H13       1.0  0.77671  0.36407  0.74670  1.0000
  H   H14       1.0  0.22328  0.63593  0.25330  1.0000
  H   H15       1.0  0.64737  0.44543  0.56381  1.0000
  H   H16       1.0  0.35262  0.55457  0.43620  1.0000
  H   H17       1.0  0.39998  0.83672  0.77201  1.0000
  H   H18       1.0  0.60002  0.16328  0.22799  1.0000
  H   H19       1.0  0.52269  0.75577  0.95119  1.0000
  H   H20       1.0  0.47731  0.24424  0.04881  1.0000
  H   H21       1.0  0.43310  0.88994  0.56143  1.0000
  H   H22       1.0  0.56690  0.11006  0.43857  1.0000
  H   H23       1.0  0.24425  0.84221  0.62747  1.0000
  H   H24       1.0  0.75575  0.15779  0.37253  1.0000
  H   H25       1.0  0.06684  0.86327  0.49409  1.0000
  H   H26       1.0  0.93316  0.13673  0.50591  1.0000
  H   H27       1.0  0.00769  0.92801  0.27908  1.0000
  H   H28       1.0  0.99231  0.07199  0.72092  1.0000
  H   H29       1.0  0.24352  0.95736  0.08167  1.0000
  H   H30       1.0  0.75648  0.04264  0.91832  1.0000
  H   H31       1.0  0.53107  0.90403  0.10884  1.0000
  H   H32       1.0  0.46894  0.09597  0.89115  1.0000
  C   C1        1.0  0.89456  0.51487  0.34008  1.0000
  C   C2        1.0  0.10544  0.48513  0.65992  1.0000
  C   C3        1.0  0.98308  0.37735  0.32245  1.0000
  C   C4        1.0  0.01691  0.62265  0.67755  1.0000
  C   C5        1.0  0.98360  0.30485  0.21422  1.0000
  C   C6        1.0  0.01639  0.69515  0.78579  1.0000
  C   C7        1.0  0.89425  0.37164  0.12891  1.0000
  C   C8        1.0  0.10575  0.62835  0.87110  1.0000
  C   C9        1.0  0.80829  0.50995  0.15267  1.0000
  C   C10       1.0  0.19170  0.49006  0.84733  1.0000
  C   C11       1.0  0.70869  0.58707  0.06484  1.0000
  C   C12       1.0  0.29131  0.41293  0.93516  1.0000
  C   C13       1.0  0.65998  0.55472  0.85963  1.0000
  C   C14       1.0  0.34001  0.44528  0.14037  1.0000
  C   C15       1.0  0.69372  0.46710  0.75054  1.0000
  C   C16       1.0  0.30628  0.53291  0.24946  1.0000
  C   C17       1.0  0.62363  0.51228  0.64872  1.0000
  C   C18       1.0  0.37636  0.48772  0.35129  1.0000
  C   C19       1.0  0.51972  0.64621  0.65402  1.0000
  C   C20       1.0  0.48028  0.35379  0.34598  1.0000
  C   C21       1.0  0.48268  0.73299  0.76361  1.0000
  C   C22       1.0  0.51732  0.26701  0.23639  1.0000
  C   C23       1.0  0.55318  0.68675  0.86653  1.0000
  C   C24       1.0  0.44682  0.31325  0.13347  1.0000
  C   C25       1.0  0.36335  0.82143  0.54642  1.0000
  C   C26       1.0  0.63665  0.17857  0.45358  1.0000
  C   C27       1.0  0.32877  0.84854  0.41492  1.0000
  C   C28       1.0  0.67124  0.15146  0.58508  1.0000
  C   C29       1.0  0.16705  0.87326  0.40651  1.0000
  C   C30       1.0  0.83296  0.12674  0.59348  1.0000
  C   C31       1.0  0.13353  0.91105  0.28666  1.0000
  C   C32       1.0  0.86647  0.08895  0.71334  1.0000
  C   C33       1.0  0.26402  0.92525  0.17698  1.0000
  C   C34       1.0  0.73598  0.07475  0.82302  1.0000
  C   C35       1.0  0.42332  0.89558  0.19097  1.0000
  C   C36       1.0  0.57668  0.10442  0.80903  1.0000
  N   N1        1.0  0.80949  0.58089  0.25693  1.0000
  N   N2        1.0  0.19051  0.41910  0.74306  1.0000
  N   N3        1.0  0.45678  0.85532  0.30603  1.0000
  N   N4        1.0  0.54323  0.14468  0.69397  1.0000
  Cl  Cl1       1.0  0.76901  0.83570  0.47620  1.0000
  Cl  Cl2       1.0  0.23099  0.16430  0.52380  1.0000
  Cl  Cl3       1.0  0.82772  0.90135  0.11679  1.0000
  Cl  Cl4       1.0  0.17228  0.09866  0.88321  1.0000
  O   O1        1.0  0.73985  0.50143  0.95282  1.0000
  O   O2        1.0  0.26015  0.49857  0.04719  1.0000
  O   O3        1.0  0.46083  0.68238  0.54585  1.0000
  O   O4        1.0  0.53917  0.31762  0.45415  1.0000
