data_image0
_chemical_formula_structural       La4H28C48O26
_chemical_formula_sum              "La4 H28 C48 O26"
_cell_length_a       8.60581
_cell_length_b       10.5562
_cell_length_c       14.323
_cell_angle_alpha    97.2897
_cell_angle_beta     102.229
_cell_angle_gamma    104.479

_space_group_name_H-M_alt    "P 1"
_space_group_IT_number       1

loop_
  _space_group_symop_operation_xyz
  'x, y, z'

loop_
  _atom_site_type_symbol
  _atom_site_label
  _atom_site_symmetry_multiplicity
  _atom_site_fract_x
  _atom_site_fract_y
  _atom_site_fract_z
  _atom_site_occupancy
  La  La1       1.0  0.16936  0.21960  0.50807  1.0000
  La  La2       1.0  0.83065  0.78039  0.49193  1.0000
  La  La3       1.0  0.69835  0.34786  0.49757  1.0000
  La  La4       1.0  0.30165  0.65213  0.50243  1.0000
  H   H1        1.0  0.77370  0.09679  0.15222  1.0000
  H   H2        1.0  0.22629  0.90322  0.84778  1.0000
  H   H3        1.0  0.59236  0.15964  0.01535  1.0000
  H   H4        1.0  0.40763  0.84037  0.98465  1.0000
  H   H5        1.0  0.54075  0.38239  0.03811  1.0000
  H   H6        1.0  0.45926  0.61763  0.96189  1.0000
  H   H7        1.0  0.67962  0.54538  0.19324  1.0000
  H   H8        1.0  0.32039  0.45462  0.80678  1.0000
  H   H9        1.0  0.60327  0.27997  0.85079  1.0000
  H   H10       1.0  0.39672  0.72002  0.14921  1.0000
  H   H11       1.0  0.83436  0.43357  0.98574  1.0000
  H   H12       1.0  0.16563  0.56641  0.01426  1.0000
  H   H13       1.0  0.97120  0.66059  0.96394  1.0000
  H   H14       1.0  0.02882  0.33938  0.03607  1.0000
  H   H15       1.0  0.88025  0.73619  0.80900  1.0000
  H   H16       1.0  0.11978  0.26380  0.19102  1.0000
  H   H17       1.0  0.55014  0.86731  0.80306  1.0000
  H   H18       1.0  0.44984  0.13273  0.19693  1.0000
  H   H19       1.0  0.75386  0.96243  0.96435  1.0000
  H   H20       1.0  0.24609  0.03759  0.03565  1.0000
  H   H21       1.0  0.01411  0.13887  0.97611  1.0000
  H   H22       1.0  0.98587  0.86114  0.02388  1.0000
  H   H23       1.0  0.06452  0.22729  0.82770  1.0000
  H   H24       1.0  0.93547  0.77271  0.17230  1.0000
  H   H25       1.0  0.14885  0.02088  0.63226  1.0000
  H   H26       1.0  0.85115  0.97912  0.36774  1.0000
  H   H27       1.0  0.26118  0.96280  0.57577  1.0000
  H   H28       1.0  0.73883  0.03720  0.42424  1.0000
  C   C1        1.0  0.92336  0.24403  0.33223  1.0000
  C   C2        1.0  0.07663  0.75597  0.66777  1.0000
  C   C3        1.0  0.82550  0.28436  0.24825  1.0000
  C   C4        1.0  0.17450  0.71564  0.75175  1.0000
  C   C5        1.0  0.75229  0.19478  0.15967  1.0000
  C   C6        1.0  0.24772  0.80521  0.84034  1.0000
  C   C7        1.0  0.65054  0.23012  0.08397  1.0000
  C   C8        1.0  0.34947  0.76988  0.91604  1.0000
  C   C9        1.0  0.62219  0.35529  0.09664  1.0000
  C   C10       1.0  0.37783  0.64473  0.90337  1.0000
  C   C11       1.0  0.69892  0.44677  0.18366  1.0000
  C   C12       1.0  0.30110  0.55324  0.81636  1.0000
  C   C13       1.0  0.80159  0.41193  0.25946  1.0000
  C   C14       1.0  0.19842  0.58805  0.74055  1.0000
  C   C15       1.0  0.89413  0.51199  0.35133  1.0000
  C   C16       1.0  0.10586  0.48801  0.64868  1.0000
  C   C17       1.0  0.47768  0.33164  0.67589  1.0000
  C   C18       1.0  0.52232  0.66835  0.32411  1.0000
  C   C19       1.0  0.64003  0.59747  0.64982  1.0000
  C   C20       1.0  0.35999  0.40254  0.35019  1.0000
  C   C21       1.0  0.69663  0.54905  0.74210  1.0000
  C   C22       1.0  0.30339  0.45096  0.25791  1.0000
  C   C23       1.0  0.61733  0.42102  0.75495  1.0000
  C   C24       1.0  0.38267  0.57900  0.24505  1.0000
  C   C25       1.0  0.66631  0.37999  0.84295  1.0000
  C   C26       1.0  0.33370  0.62000  0.15705  1.0000
  C   C27       1.0  0.79494  0.46555  0.91757  1.0000
  C   C28       1.0  0.20507  0.53444  0.08243  1.0000
  C   C29       1.0  0.87152  0.59337  0.90521  1.0000
  C   C30       1.0  0.12850  0.40661  0.09480  1.0000
  C   C31       1.0  0.82208  0.63597  0.81838  1.0000
  C   C32       1.0  0.17794  0.36403  0.18163  1.0000
  C   C33       1.0  0.58058  0.92088  0.62960  1.0000
  C   C34       1.0  0.41942  0.07912  0.37039  1.0000
  C   C35       1.0  0.69053  0.99577  0.72668  1.0000
  C   C36       1.0  0.30945  0.00423  0.27331  1.0000
  C   C37       1.0  0.66093  0.94866  0.81006  1.0000
  C   C38       1.0  0.33904  0.05135  0.18993  1.0000
  C   C39       1.0  0.77646  0.00104  0.89980  1.0000
  C   C40       1.0  0.22350  0.99898  0.10018  1.0000
  C   C41       1.0  0.92246  0.10022  0.90639  1.0000
  C   C42       1.0  0.07753  0.89980  0.09360  1.0000
  C   C43       1.0  0.95168  0.14909  0.82360  1.0000
  C   C44       1.0  0.04832  0.85092  0.17639  1.0000
  C   C45       1.0  0.83565  0.09804  0.73378  1.0000
  C   C46       1.0  0.16434  0.90195  0.26621  1.0000
  C   C47       1.0  0.86322  0.15525  0.64606  1.0000
  C   C48       1.0  0.13679  0.84475  0.35393  1.0000
  O   O1        1.0  0.91710  0.29309  0.41889  1.0000
  O   O2        1.0  0.08290  0.70689  0.58111  1.0000
  O   O3        1.0  0.01007  0.16580  0.32036  1.0000
  O   O4        1.0  0.98993  0.83420  0.67965  1.0000
  O   O5        1.0  0.35697  0.25182  0.69328  1.0000
  O   O6        1.0  0.64303  0.74818  0.30673  1.0000
  O   O7        1.0  0.48090  0.34398  0.58692  1.0000
  O   O8        1.0  0.51912  0.65601  0.41308  1.0000
  O   O9        1.0  0.71681  0.58875  0.58237  1.0000
  O   O10       1.0  0.28322  0.41125  0.41763  1.0000
  O   O11       1.0  0.52119  0.64774  0.64489  1.0000
  O   O12       1.0  0.47884  0.35228  0.35511  1.0000
  O   O13       1.0  0.65236  0.88706  0.56526  1.0000
  O   O14       1.0  0.34764  0.11293  0.43473  1.0000
  O   O15       1.0  0.42349  0.88367  0.61704  1.0000
  O   O16       1.0  0.57651  0.11633  0.38294  1.0000
  O   O17       1.0  0.80991  0.54416  0.41038  1.0000
  O   O18       1.0  0.19008  0.45583  0.58963  1.0000
  O   O19       1.0  0.04785  0.55823  0.36528  1.0000
  O   O20       1.0  0.95214  0.44177  0.63474  1.0000
  O   O21       1.0  0.74112  0.18357  0.59473  1.0000
  O   O22       1.0  0.25888  0.81640  0.40524  1.0000
  O   O23       1.0  0.00556  0.17355  0.62948  1.0000
  O   O24       1.0  0.99446  0.82645  0.37051  1.0000
  O   O25       1.0  0.16093  0.99490  0.56666  1.0000
  O   O26       1.0  0.83908  0.00509  0.43335  1.0000
