data_image0
_chemical_formula_structural       Cu2P2H44C50I2N4
_chemical_formula_sum              "Cu2 P2 H44 C50 I2 N4"
_cell_length_a       9.22517
_cell_length_b       11.3333
_cell_length_c       12.4204
_cell_angle_alpha    74.4278
_cell_angle_beta     76.6112
_cell_angle_gamma    71.9798

_space_group_name_H-M_alt    "P 1"
_space_group_IT_number       1

loop_
  _space_group_symop_operation_xyz
  'x, y, z'

loop_
  _atom_site_type_symbol
  _atom_site_label
  _atom_site_symmetry_multiplicity
  _atom_site_fract_x
  _atom_site_fract_y
  _atom_site_fract_z
  _atom_site_occupancy
  Cu  Cu1       1.0  0.86206  0.10770  0.02289  1.0000
  Cu  Cu2       1.0  0.13794  0.89230  0.97711  1.0000
  P   P1        1.0  0.75833  0.16775  0.18482  1.0000
  P   P2        1.0  0.24167  0.83225  0.81518  1.0000
  H   H1        1.0  0.89191  0.31017  0.81793  1.0000
  H   H2        1.0  0.10809  0.68983  0.18207  1.0000
  H   H3        1.0  0.75706  0.41891  0.64965  1.0000
  H   H4        1.0  0.24294  0.58109  0.35035  1.0000
  H   H5        1.0  0.43988  0.18421  0.79221  1.0000
  H   H6        1.0  0.56011  0.81578  0.20780  1.0000
  H   H7        1.0  0.58332  0.08962  0.95376  1.0000
  H   H8        1.0  0.41668  0.91038  0.04624  1.0000
  H   H9        1.0  0.39150  0.33568  0.48935  1.0000
  H   H10       1.0  0.60850  0.66432  0.51065  1.0000
  H   H11       1.0  0.31563  0.28982  0.63557  1.0000
  H   H12       1.0  0.68437  0.71018  0.36444  1.0000
  H   H13       1.0  0.48896  0.19287  0.57702  1.0000
  H   H14       1.0  0.51104  0.80713  0.42299  1.0000
  H   H15       1.0  0.79018  0.24863  0.38602  1.0000
  H   H16       1.0  0.20982  0.75137  0.61398  1.0000
  H   H17       1.0  0.84403  0.44273  0.40494  1.0000
  H   H18       1.0  0.15597  0.55727  0.59506  1.0000
  H   H19       1.0  0.87881  0.61457  0.23329  1.0000
  H   H20       1.0  0.12119  0.38544  0.76671  1.0000
  H   H21       1.0  0.85863  0.59083  0.04584  1.0000
  H   H22       1.0  0.14137  0.40917  0.95415  1.0000
  H   H23       1.0  0.81115  0.39345  0.02575  1.0000
  H   H24       1.0  0.18886  0.60655  0.97424  1.0000
  H   H25       1.0  0.57675  0.08843  0.41208  1.0000
  H   H26       1.0  0.42325  0.91157  0.58792  1.0000
  H   H27       1.0  0.65666  0.92852  0.58456  1.0000
  H   H28       1.0  0.34333  0.07148  0.41544  1.0000
  H   H29       1.0  0.92864  0.80290  0.58335  1.0000
  H   H30       1.0  0.07136  0.19710  0.41665  1.0000
  H   H31       1.0  0.12382  0.83562  0.40936  1.0000
  H   H32       1.0  0.87618  0.16438  0.59064  1.0000
  H   H33       1.0  0.04319  0.99052  0.23551  1.0000
  H   H34       1.0  0.95681  0.00948  0.76449  1.0000
  H   H35       1.0  0.55704  0.02556  0.17490  1.0000
  H   H36       1.0  0.44296  0.97444  0.82510  1.0000
  H   H37       1.0  0.27456  0.07672  0.17497  1.0000
  H   H38       1.0  0.72544  0.92328  0.82503  1.0000
  H   H39       1.0  0.10659  0.29081  0.19547  1.0000
  H   H40       1.0  0.89342  0.70919  0.80453  1.0000
  H   H41       1.0  0.21961  0.45068  0.22381  1.0000
  H   H42       1.0  0.78039  0.54933  0.77618  1.0000
  H   H43       1.0  0.50021  0.40015  0.22675  1.0000
  H   H44       1.0  0.49979  0.59985  0.77324  1.0000
  C   C1        1.0  0.78910  0.28754  0.80904  1.0000
  C   C2        1.0  0.21090  0.71246  0.19096  1.0000
  C   C3        1.0  0.71517  0.34657  0.71602  1.0000
  C   C4        1.0  0.28482  0.65343  0.28398  1.0000
  C   C5        1.0  0.58857  0.30911  0.70474  1.0000
  C   C6        1.0  0.41142  0.69089  0.29527  1.0000
  C   C7        1.0  0.54010  0.21537  0.79281  1.0000
  C   C8        1.0  0.45989  0.78463  0.20720  1.0000
  C   C9        1.0  0.61886  0.16262  0.88439  1.0000
  C   C10       1.0  0.38114  0.83738  0.11562  1.0000
  C   C11       1.0  0.51318  0.36444  0.60361  1.0000
  C   C12       1.0  0.48681  0.63556  0.39639  1.0000
  C   C13       1.0  0.42210  0.29225  0.57376  1.0000
  C   C14       1.0  0.57790  0.70775  0.42625  1.0000
  C   C15       1.0  0.79648  0.30853  0.20483  1.0000
  C   C16       1.0  0.20353  0.69147  0.79516  1.0000
  C   C17       1.0  0.80625  0.32311  0.31134  1.0000
  C   C18       1.0  0.19375  0.67689  0.68865  1.0000
  C   C19       1.0  0.83724  0.43220  0.32163  1.0000
  C   C20       1.0  0.16276  0.56780  0.67837  1.0000
  C   C21       1.0  0.85632  0.52811  0.22614  1.0000
  C   C22       1.0  0.14368  0.47189  0.77386  1.0000
  C   C23       1.0  0.84493  0.51501  0.11988  1.0000
  C   C24       1.0  0.15507  0.48499  0.88011  1.0000
  C   C25       1.0  0.81680  0.40511  0.10900  1.0000
  C   C26       1.0  0.18321  0.59489  0.89100  1.0000
  C   C27       1.0  0.80515  0.05011  0.31318  1.0000
  C   C28       1.0  0.19485  0.94989  0.68681  1.0000
  C   C29       1.0  0.69629  0.03190  0.41141  1.0000
  C   C30       1.0  0.30371  0.96810  0.58858  1.0000
  C   C31       1.0  0.74086  0.94239  0.50783  1.0000
  C   C32       1.0  0.25914  0.05762  0.49217  1.0000
  C   C33       1.0  0.89452  0.87155  0.50735  1.0000
  C   C34       1.0  0.10547  0.12846  0.49265  1.0000
  C   C35       1.0  0.00351  0.88992  0.40989  1.0000
  C   C36       1.0  0.99649  0.11008  0.59011  1.0000
  C   C37       1.0  0.95914  0.97764  0.31272  1.0000
  C   C38       1.0  0.04087  0.02236  0.68728  1.0000
  C   C39       1.0  0.54781  0.20923  0.20053  1.0000
  C   C40       1.0  0.45219  0.79077  0.79946  1.0000
  C   C41       1.0  0.48207  0.11836  0.18710  1.0000
  C   C42       1.0  0.51793  0.88164  0.81290  1.0000
  C   C43       1.0  0.32407  0.14705  0.18687  1.0000
  C   C44       1.0  0.67593  0.85295  0.81313  1.0000
  C   C45       1.0  0.22948  0.26737  0.19863  1.0000
  C   C46       1.0  0.77052  0.73263  0.80137  1.0000
  C   C47       1.0  0.29350  0.35721  0.21366  1.0000
  C   C48       1.0  0.70651  0.64279  0.78635  1.0000
  C   C49       1.0  0.45186  0.32881  0.21509  1.0000
  C   C50       1.0  0.54815  0.67119  0.78490  1.0000
  I   I1        1.0  0.85514  0.86589  0.05716  1.0000
  I   I2        1.0  0.14486  0.13411  0.94284  1.0000
  N   N1        1.0  0.74436  0.19504  0.89237  1.0000
  N   N2        1.0  0.25564  0.80496  0.10763  1.0000
  N   N3        1.0  0.53582  0.47409  0.54679  1.0000
  N   N4        1.0  0.46418  0.52592  0.45321  1.0000
