data_image0
_chemical_formula_structural       Rb4H24C28N4O24
_chemical_formula_sum              "Rb4 H24 C28 N4 O24"
_cell_length_a       6.85901
_cell_length_b       11.8292
_cell_length_c       11.7867
_cell_angle_alpha    90.0005
_cell_angle_beta     89.9995
_cell_angle_gamma    107.657

_space_group_name_H-M_alt    "P 1"
_space_group_IT_number       1

loop_
  _space_group_symop_operation_xyz
  'x, y, z'

loop_
  _atom_site_type_symbol
  _atom_site_label
  _atom_site_symmetry_multiplicity
  _atom_site_fract_x
  _atom_site_fract_y
  _atom_site_fract_z
  _atom_site_occupancy
  Rb  Rb1       1.0  0.23699  0.10928  0.88746  1.0000
  Rb  Rb2       1.0  0.26302  0.89072  0.38745  1.0000
  Rb  Rb3       1.0  0.76301  0.89072  0.11255  1.0000
  Rb  Rb4       1.0  0.73698  0.10928  0.61255  1.0000
  H   H1        1.0  0.60184  0.11526  0.30580  1.0000
  H   H2        1.0  0.89817  0.88475  0.80578  1.0000
  H   H3        1.0  0.39818  0.88474  0.69421  1.0000
  H   H4        1.0  0.10183  0.11525  0.19422  1.0000
  H   H5        1.0  0.59922  0.34940  0.50159  1.0000
  H   H6        1.0  0.90079  0.65062  0.00158  1.0000
  H   H7        1.0  0.40078  0.65061  0.49842  1.0000
  H   H8        1.0  0.09921  0.34937  0.99842  1.0000
  H   H9        1.0  0.59851  0.54599  0.42218  1.0000
  H   H10       1.0  0.90151  0.45402  0.92217  1.0000
  H   H11       1.0  0.40148  0.45401  0.57782  1.0000
  H   H12       1.0  0.09850  0.54597  0.07782  1.0000
  H   H13       1.0  0.58862  0.40837  0.08252  1.0000
  H   H14       1.0  0.91139  0.59163  0.58250  1.0000
  H   H15       1.0  0.41138  0.59163  0.91749  1.0000
  H   H16       1.0  0.08862  0.40837  0.41749  1.0000
  H   H17       1.0  0.73546  0.12079  0.94961  1.0000
  H   H18       1.0  0.76453  0.87921  0.44960  1.0000
  H   H19       1.0  0.26454  0.87921  0.05039  1.0000
  H   H20       1.0  0.23546  0.12079  0.55040  1.0000
  H   H21       1.0  0.65515  0.01091  0.87138  1.0000
  H   H22       1.0  0.84485  0.98909  0.37138  1.0000
  H   H23       1.0  0.34485  0.98909  0.12862  1.0000
  H   H24       1.0  0.15515  0.01091  0.62862  1.0000
  C   C1        1.0  0.59708  0.28683  0.21671  1.0000
  C   C2        1.0  0.90292  0.71318  0.71669  1.0000
  C   C3        1.0  0.40292  0.71317  0.78330  1.0000
  C   C4        1.0  0.09708  0.28682  0.28331  1.0000
  C   C5        1.0  0.59794  0.27040  0.33655  1.0000
  C   C6        1.0  0.90206  0.72961  0.83653  1.0000
  C   C7        1.0  0.40206  0.72960  0.66346  1.0000
  C   C8        1.0  0.09793  0.27038  0.16347  1.0000
  C   C9        1.0  0.59575  0.36366  0.41057  1.0000
  C   C10       1.0  0.90426  0.63635  0.91055  1.0000
  C   C11       1.0  0.40425  0.63634  0.58944  1.0000
  C   C12       1.0  0.09574  0.36364  0.08945  1.0000
  C   C13       1.0  0.59391  0.47145  0.36723  1.0000
  C   C14       1.0  0.90609  0.52856  0.86721  1.0000
  C   C15       1.0  0.40609  0.52856  0.63278  1.0000
  C   C16       1.0  0.09391  0.47143  0.13278  1.0000
  C   C17       1.0  0.58993  0.48658  0.24906  1.0000
  C   C18       1.0  0.91007  0.51343  0.74904  1.0000
  C   C19       1.0  0.41007  0.51342  0.75095  1.0000
  C   C20       1.0  0.08993  0.48657  0.25095  1.0000
  C   C21       1.0  0.59235  0.39565  0.17391  1.0000
  C   C22       1.0  0.90764  0.60435  0.67389  1.0000
  C   C23       1.0  0.40765  0.60435  0.82610  1.0000
  C   C24       1.0  0.09235  0.39564  0.32610  1.0000
  C   C25       1.0  0.60165  0.18799  0.13843  1.0000
  C   C26       1.0  0.89836  0.81201  0.63841  1.0000
  C   C27       1.0  0.39835  0.81201  0.86158  1.0000
  C   C28       1.0  0.10163  0.18799  0.36158  1.0000
  N   N1        1.0  0.58254  0.59881  0.20578  1.0000
  N   N2        1.0  0.91746  0.40120  0.70577  1.0000
  N   N3        1.0  0.41746  0.40120  0.79422  1.0000
  N   N4        1.0  0.08254  0.59880  0.29422  1.0000
  O   O1        1.0  0.78340  0.06590  0.90086  1.0000
  O   O2        1.0  0.71659  0.93410  0.40085  1.0000
  O   O3        1.0  0.21660  0.93410  0.09914  1.0000
  O   O4        1.0  0.28340  0.06591  0.59914  1.0000
  O   O5        1.0  0.60422  0.16735  0.37978  1.0000
  O   O6        1.0  0.89578  0.83266  0.87976  1.0000
  O   O7        1.0  0.39580  0.83265  0.62022  1.0000
  O   O8        1.0  0.10422  0.16733  0.12024  1.0000
  O   O9        1.0  0.61443  0.20434  0.03332  1.0000
  O   O10       1.0  0.88559  0.79566  0.53330  1.0000
  O   O11       1.0  0.38557  0.79566  0.96669  1.0000
  O   O12       1.0  0.11440  0.20434  0.46671  1.0000
  O   O13       1.0  0.58984  0.08665  0.18716  1.0000
  O   O14       1.0  0.91017  0.91336  0.68714  1.0000
  O   O15       1.0  0.41017  0.91336  0.81285  1.0000
  O   O16       1.0  0.08983  0.08664  0.31287  1.0000
  O   O17       1.0  0.56460  0.67599  0.27446  1.0000
  O   O18       1.0  0.93539  0.32401  0.77445  1.0000
  O   O19       1.0  0.43540  0.32401  0.72554  1.0000
  O   O20       1.0  0.06461  0.67598  0.22554  1.0000
  O   O21       1.0  0.59498  0.61597  0.10105  1.0000
  O   O22       1.0  0.90504  0.38404  0.60104  1.0000
  O   O23       1.0  0.40502  0.38404  0.89896  1.0000
  O   O24       1.0  0.09496  0.61596  0.39895  1.0000
