data_image0
_chemical_formula_structural       Ba2H14C16N2O10
_chemical_formula_sum              "Ba2 H14 C16 N2 O10"
_cell_length_a       7.60162
_cell_length_b       8.04373
_cell_length_c       8.36391
_cell_angle_alpha    79.9738
_cell_angle_beta     65.6841
_cell_angle_gamma    83.0751

_space_group_name_H-M_alt    "P 1"
_space_group_IT_number       1

loop_
  _space_group_symop_operation_xyz
  'x, y, z'

loop_
  _atom_site_type_symbol
  _atom_site_label
  _atom_site_symmetry_multiplicity
  _atom_site_fract_x
  _atom_site_fract_y
  _atom_site_fract_z
  _atom_site_occupancy
  Ba  Ba1       1.0  0.04505  0.60107  0.20942  1.0000
  Ba  Ba2       1.0  0.95495  0.39893  0.79058  1.0000
  H   H1        1.0  0.78850  0.95789  0.09857  1.0000
  H   H2        1.0  0.21151  0.04211  0.90143  1.0000
  H   H3        1.0  0.80377  0.81104  0.98590  1.0000
  H   H4        1.0  0.19623  0.18896  0.01410  1.0000
  H   H5        1.0  0.50364  0.71146  0.04190  1.0000
  H   H6        1.0  0.49635  0.28854  0.95811  1.0000
  H   H7        1.0  0.53014  0.55545  0.18991  1.0000
  H   H8        1.0  0.46985  0.44455  0.81009  1.0000
  H   H9        1.0  0.19605  0.06655  0.65595  1.0000
  H   H10       1.0  0.80395  0.93345  0.34405  1.0000
  H   H11       1.0  0.37531  0.56725  0.50885  1.0000
  H   H12       1.0  0.62470  0.43275  0.49115  1.0000
  H   H13       1.0  0.34761  0.98382  0.11960  1.0000
  H   H14       1.0  0.65239  0.01618  0.88040  1.0000
  C   C1        1.0  0.20628  0.22521  0.33708  1.0000
  C   C2        1.0  0.79373  0.77479  0.66292  1.0000
  C   C3        1.0  0.26077  0.04315  0.38446  1.0000
  C   C4        1.0  0.73923  0.95685  0.61554  1.0000
  C   C5        1.0  0.24294  0.98143  0.55703  1.0000
  C   C6        1.0  0.75706  0.01857  0.44297  1.0000
  C   C7        1.0  0.28317  0.80968  0.60215  1.0000
  C   C8        1.0  0.71683  0.19032  0.39786  1.0000
  C   C9        1.0  0.34717  0.70154  0.47294  1.0000
  C   C10       1.0  0.65283  0.29846  0.52706  1.0000
  C   C11       1.0  0.37720  0.76345  0.29657  1.0000
  C   C12       1.0  0.62280  0.23655  0.70343  1.0000
  C   C13       1.0  0.32910  0.93481  0.25500  1.0000
  C   C14       1.0  0.67090  0.06519  0.74500  1.0000
  C   C15       1.0  0.25246  0.73720  0.78908  1.0000
  C   C16       1.0  0.74754  0.26281  0.21092  1.0000
  N   N1        1.0  0.43894  0.65322  0.16923  1.0000
  N   N2        1.0  0.56106  0.34678  0.83077  1.0000
  O   O1        1.0  0.14225  0.32322  0.45599  1.0000
  O   O2        1.0  0.85776  0.67679  0.54400  1.0000
  O   O3        1.0  0.82116  0.83533  0.09050  1.0000
  O   O4        1.0  0.17884  0.16467  0.90950  1.0000
  O   O5        1.0  0.22439  0.27727  0.17772  1.0000
  O   O6        1.0  0.77561  0.72273  0.82228  1.0000
  O   O7        1.0  0.26152  0.82875  0.89408  1.0000
  O   O8        1.0  0.73848  0.17125  0.10592  1.0000
  O   O9        1.0  0.21533  0.57939  0.83709  1.0000
  O   O10       1.0  0.78467  0.42061  0.16291  1.0000
