data_image0
_chemical_formula_structural       Nd4H56C36O28
_chemical_formula_sum              "Nd4 H56 C36 O28"
_cell_length_a       7.74187
_cell_length_b       9.79736
_cell_length_c       18.0408
_cell_angle_alpha    79.4277
_cell_angle_beta     77.834
_cell_angle_gamma    66.7529

_space_group_name_H-M_alt    "P 1"
_space_group_IT_number       1

loop_
  _space_group_symop_operation_xyz
  'x, y, z'

loop_
  _atom_site_type_symbol
  _atom_site_label
  _atom_site_symmetry_multiplicity
  _atom_site_fract_x
  _atom_site_fract_y
  _atom_site_fract_z
  _atom_site_occupancy
  Nd  Nd1       1.0  0.21629  0.51363  0.53831  1.0000
  Nd  Nd2       1.0  0.26812  0.98631  0.96187  1.0000
  Nd  Nd3       1.0  0.78371  0.48637  0.46169  1.0000
  Nd  Nd4       1.0  0.73188  0.01369  0.03813  1.0000
  H   H1        1.0  0.00784  0.09221  0.58367  1.0000
  H   H2        1.0  0.68391  0.40781  0.91625  1.0000
  H   H3        1.0  0.99217  0.90779  0.41633  1.0000
  H   H4        1.0  0.31609  0.59219  0.08375  1.0000
  H   H5        1.0  0.84381  0.22288  0.64344  1.0000
  H   H6        1.0  0.70974  0.27743  0.85619  1.0000
  H   H7        1.0  0.15619  0.77712  0.35656  1.0000
  H   H8        1.0  0.29026  0.72257  0.14381  1.0000
  H   H9        1.0  0.04815  0.10855  0.74782  1.0000
  H   H10       1.0  0.90390  0.39152  0.75242  1.0000
  H   H11       1.0  0.95185  0.89145  0.25218  1.0000
  H   H12       1.0  0.09610  0.60848  0.24758  1.0000
  H   H13       1.0  0.21732  0.98043  0.68774  1.0000
  H   H14       1.0  0.88558  0.51937  0.81273  1.0000
  H   H15       1.0  0.78268  0.01957  0.31226  1.0000
  H   H16       1.0  0.11442  0.48063  0.18727  1.0000
  H   H17       1.0  0.80026  0.00886  0.73496  1.0000
  H   H18       1.0  0.54404  0.49173  0.76453  1.0000
  H   H19       1.0  0.19974  0.99114  0.26504  1.0000
  H   H20       1.0  0.45596  0.50827  0.23547  1.0000
  H   H21       1.0  0.97132  0.88268  0.67318  1.0000
  H   H22       1.0  0.52765  0.61775  0.82648  1.0000
  H   H23       1.0  0.02868  0.11732  0.32682  1.0000
  H   H24       1.0  0.47235  0.38225  0.17352  1.0000
  H   H25       1.0  0.92243  0.75677  0.80277  1.0000
  H   H26       1.0  0.48281  0.74338  0.69659  1.0000
  H   H27       1.0  0.07757  0.24323  0.19723  1.0000
  H   H28       1.0  0.51719  0.25662  0.30341  1.0000
  H   H29       1.0  0.16166  0.74727  0.77536  1.0000
  H   H30       1.0  0.68451  0.75299  0.72486  1.0000
  H   H31       1.0  0.83834  0.25273  0.22464  1.0000
  H   H32       1.0  0.31549  0.24701  0.27514  1.0000
  H   H33       1.0  0.21193  0.01646  0.46268  1.0000
  H   H34       1.0  0.69195  0.48306  0.03720  1.0000
  H   H35       1.0  0.78807  0.98353  0.53732  1.0000
  H   H36       1.0  0.30805  0.51694  0.96280  1.0000
  H   H37       1.0  0.42510  0.90935  0.40456  1.0000
  H   H38       1.0  0.74052  0.59026  0.09543  1.0000
  H   H39       1.0  0.57490  0.09065  0.59544  1.0000
  H   H40       1.0  0.25947  0.40974  0.90457  1.0000
  H   H41       1.0  0.38941  0.94781  0.57291  1.0000
  H   H42       1.0  0.90912  0.55232  0.92705  1.0000
  H   H43       1.0  0.61059  0.05219  0.42709  1.0000
  H   H44       1.0  0.09088  0.44768  0.07295  1.0000
  H   H45       1.0  0.59544  0.83100  0.51933  1.0000
  H   H46       1.0  0.94533  0.66905  0.98081  1.0000
  H   H47       1.0  0.40456  0.16900  0.48067  1.0000
  H   H48       1.0  0.05467  0.33096  0.01919  1.0000
  H   H49       1.0  0.47529  0.53844  0.63456  1.0000
  H   H50       1.0  0.64780  0.96111  0.86551  1.0000
  H   H51       1.0  0.52471  0.46156  0.36544  1.0000
  H   H52       1.0  0.35220  0.03889  0.13449  1.0000
  H   H53       1.0  0.36420  0.43781  0.68560  1.0000
  H   H54       1.0  0.48647  0.06205  0.81453  1.0000
  H   H55       1.0  0.63580  0.56219  0.31440  1.0000
  H   H56       1.0  0.51353  0.93795  0.18547  1.0000
  C   C1        1.0  0.09417  0.26307  0.59861  1.0000
  C   C2        1.0  0.95552  0.23676  0.90158  1.0000
  C   C3        1.0  0.90583  0.73693  0.40139  1.0000
  C   C4        1.0  0.04448  0.76324  0.09842  1.0000
  C   C5        1.0  0.99678  0.15396  0.63075  1.0000
  C   C6        1.0  0.78127  0.34613  0.86922  1.0000
  C   C7        1.0  0.00322  0.84603  0.36924  1.0000
  C   C8        1.0  0.21873  0.65387  0.13078  1.0000
  C   C9        1.0  0.06402  0.04631  0.70034  1.0000
  C   C10       1.0  0.81047  0.45377  0.79982  1.0000
  C   C11       1.0  0.93598  0.95369  0.29966  1.0000
  C   C12       1.0  0.18953  0.54623  0.20018  1.0000
  C   C13       1.0  0.95349  0.94161  0.72232  1.0000
  C   C14       1.0  0.61760  0.55877  0.77744  1.0000
  C   C15       1.0  0.04651  0.05838  0.27768  1.0000
  C   C16       1.0  0.38240  0.44123  0.22256  1.0000
  C   C17       1.0  0.01377  0.82270  0.79027  1.0000
  C   C18       1.0  0.62732  0.67748  0.70956  1.0000
  C   C19       1.0  0.98623  0.17731  0.20973  1.0000
  C   C20       1.0  0.37268  0.32252  0.29044  1.0000
  C   C21       1.0  0.99928  0.89228  0.86077  1.0000
  C   C22       1.0  0.75291  0.60777  0.63925  1.0000
  C   C23       1.0  0.00072  0.10772  0.13923  1.0000
  C   C24       1.0  0.24709  0.39223  0.36075  1.0000
  C   C25       1.0  0.30633  0.77993  0.49252  1.0000
  C   C26       1.0  0.57889  0.71963  0.00747  1.0000
  C   C27       1.0  0.69367  0.22007  0.50748  1.0000
  C   C28       1.0  0.42111  0.28037  0.99253  1.0000
  C   C29       1.0  0.34626  0.91919  0.46283  1.0000
  C   C30       1.0  0.72895  0.58046  0.03712  1.0000
  C   C31       1.0  0.65374  0.08081  0.53717  1.0000
  C   C32       1.0  0.27105  0.41954  0.96288  1.0000
  C   C33       1.0  0.46928  0.93429  0.51482  1.0000
  C   C34       1.0  0.91813  0.56570  0.98521  1.0000
  C   C35       1.0  0.53073  0.06571  0.48518  1.0000
  C   C36       1.0  0.08187  0.43431  0.01479  1.0000
  O   O1        1.0  0.21412  0.27922  0.63067  1.0000
  O   O2        1.0  0.12329  0.22052  0.86973  1.0000
  O   O3        1.0  0.78588  0.72078  0.36933  1.0000
  O   O4        1.0  0.87671  0.77948  0.13027  1.0000
  O   O5        1.0  0.04876  0.34358  0.53488  1.0000
  O   O6        1.0  0.92725  0.15620  0.96518  1.0000
  O   O7        1.0  0.95125  0.65642  0.46512  1.0000
  O   O8        1.0  0.07275  0.84380  0.03482  1.0000
  O   O9        1.0  0.83454  0.94179  0.90279  1.0000
  O   O10       1.0  0.67967  0.55783  0.59711  1.0000
  O   O11       1.0  0.16546  0.05821  0.09721  1.0000
  O   O12       1.0  0.32034  0.44216  0.40289  1.0000
  O   O13       1.0  0.14791  0.90183  0.87359  1.0000
  O   O14       1.0  0.92356  0.59854  0.62662  1.0000
  O   O15       1.0  0.85209  0.09817  0.12641  1.0000
  O   O16       1.0  0.07644  0.40146  0.37338  1.0000
  O   O17       1.0  0.15424  0.78470  0.53673  1.0000
  O   O18       1.0  0.47487  0.71487  0.96333  1.0000
  O   O19       1.0  0.84576  0.21529  0.46327  1.0000
  O   O20       1.0  0.52512  0.28513  0.03667  1.0000
  O   O21       1.0  0.43402  0.65231  0.47403  1.0000
  O   O22       1.0  0.56089  0.84730  0.02596  1.0000
  O   O23       1.0  0.56598  0.34769  0.52596  1.0000
  O   O24       1.0  0.43911  0.15270  0.97404  1.0000
  O   O25       1.0  0.34624  0.52987  0.65139  1.0000
  O   O26       1.0  0.52648  0.97000  0.84877  1.0000
  O   O27       1.0  0.65376  0.47013  0.34861  1.0000
  O   O28       1.0  0.47352  0.03000  0.15123  1.0000
