data_image0
_chemical_formula_structural       Zn2H12C12N4O12
_chemical_formula_sum              "Zn2 H12 C12 N4 O12"
_cell_length_a       7.34588
_cell_length_b       8.06922
_cell_length_c       11.2868
_cell_angle_alpha    58.0961
_cell_angle_beta     53.8105
_cell_angle_gamma    59.9109

_space_group_name_H-M_alt    "P 1"
_space_group_IT_number       1

loop_
  _space_group_symop_operation_xyz
  'x, y, z'

loop_
  _atom_site_type_symbol
  _atom_site_label
  _atom_site_symmetry_multiplicity
  _atom_site_fract_x
  _atom_site_fract_y
  _atom_site_fract_z
  _atom_site_occupancy
  Zn  Zn1       1.0  0.88958  0.78067  0.74373  1.0000
  Zn  Zn2       1.0  0.11041  0.21934  0.25628  1.0000
  H   H1        1.0  0.92306  0.36847  0.74650  1.0000
  H   H2        1.0  0.07692  0.63154  0.25351  1.0000
  H   H3        1.0  0.77966  0.05662  0.96861  1.0000
  H   H4        1.0  0.22036  0.94337  0.03138  1.0000
  H   H5        1.0  0.70453  0.11117  0.56486  1.0000
  H   H6        1.0  0.29547  0.88883  0.43515  1.0000
  H   H7        1.0  0.57786  0.16396  0.72215  1.0000
  H   H8        1.0  0.42214  0.83604  0.27785  1.0000
  H   H9        1.0  0.81432  0.72810  0.56362  1.0000
  H   H10       1.0  0.18567  0.27192  0.43638  1.0000
  H   H11       1.0  0.06542  0.77935  0.46858  1.0000
  H   H12       1.0  0.93458  0.22067  0.53142  1.0000
  C   C1        1.0  0.84651  0.34766  0.86902  1.0000
  C   C2        1.0  0.15350  0.65234  0.13097  1.0000
  C   C3        1.0  0.77540  0.17546  0.99074  1.0000
  C   C4        1.0  0.22460  0.82456  0.00925  1.0000
  C   C5        1.0  0.68435  0.29517  0.17002  1.0000
  C   C6        1.0  0.31564  0.70481  0.83001  1.0000
  C   C7        1.0  0.73393  0.47754  0.05054  1.0000
  C   C8        1.0  0.26607  0.52242  0.94946  1.0000
  C   C9        1.0  0.69194  0.66202  0.07635  1.0000
  C   C10       1.0  0.30805  0.33799  0.92365  1.0000
  C   C11       1.0  0.61528  0.24690  0.33868  1.0000
  C   C12       1.0  0.38474  0.75310  0.66132  1.0000
  N   N1        1.0  0.81755  0.49853  0.90199  1.0000
  N   N2        1.0  0.18245  0.50147  0.09799  1.0000
  N   N3        1.0  0.69779  0.14849  0.13938  1.0000
  N   N4        1.0  0.30222  0.85153  0.86061  1.0000
  O   O1        1.0  0.78453  0.18790  0.37110  1.0000
  O   O2        1.0  0.21547  0.81210  0.62888  1.0000
  O   O3        1.0  0.40890  0.25038  0.43887  1.0000
  O   O4        1.0  0.59111  0.74959  0.56112  1.0000
  O   O5        1.0  0.59828  0.65132  0.21494  1.0000
  O   O6        1.0  0.40168  0.34866  0.78509  1.0000
  O   O7        1.0  0.75375  0.81364  0.95442  1.0000
  O   O8        1.0  0.24625  0.18635  0.04558  1.0000
  O   O9        1.0  0.72196  0.07654  0.65768  1.0000
  O   O10       1.0  0.27804  0.92347  0.34232  1.0000
  O   O11       1.0  0.95713  0.70531  0.57005  1.0000
  O   O12       1.0  0.04287  0.29471  0.42995  1.0000
