data_image0
_chemical_formula_structural       Hg2H32C36N4Cl4O4
_chemical_formula_sum              "Hg2 H32 C36 N4 Cl4 O4"
_cell_length_a       9.08005
_cell_length_b       10.3354
_cell_length_c       10.8933
_cell_angle_alpha    86.0772
_cell_angle_beta     67.4002
_cell_angle_gamma    73.2781

_space_group_name_H-M_alt    "P 1"
_space_group_IT_number       1

loop_
  _space_group_symop_operation_xyz
  'x, y, z'

loop_
  _atom_site_type_symbol
  _atom_site_label
  _atom_site_symmetry_multiplicity
  _atom_site_fract_x
  _atom_site_fract_y
  _atom_site_fract_z
  _atom_site_occupancy
  Hg  Hg1       1.0  0.13973  0.31715  0.31683  1.0000
  Hg  Hg2       1.0  0.86027  0.68285  0.68318  1.0000
  H   H1        1.0  0.38397  0.42738  0.08188  1.0000
  H   H2        1.0  0.61602  0.57262  0.91812  1.0000
  H   H3        1.0  0.59182  0.38185  0.84459  1.0000
  H   H4        1.0  0.40818  0.61815  0.15542  1.0000
  H   H5        1.0  0.61159  0.18014  0.71655  1.0000
  H   H6        1.0  0.38841  0.81986  0.28345  1.0000
  H   H7        1.0  0.42414  0.03494  0.82821  1.0000
  H   H8        1.0  0.57586  0.96505  0.17179  1.0000
  H   H9        1.0  0.21024  0.04086  0.18015  1.0000
  H   H10       1.0  0.78976  0.95913  0.81985  1.0000
  H   H11       1.0  0.06259  0.13360  0.11118  1.0000
  H   H12       1.0  0.93741  0.86640  0.88882  1.0000
  H   H13       1.0  0.98402  0.96201  0.25209  1.0000
  H   H14       1.0  0.01598  0.03800  0.74791  1.0000
  H   H15       1.0  0.85012  0.78351  0.33334  1.0000
  H   H16       1.0  0.14988  0.21649  0.66666  1.0000
  H   H17       1.0  0.13868  0.55941  0.95649  1.0000
  H   H18       1.0  0.86132  0.44059  0.04351  1.0000
  H   H19       1.0  0.27942  0.74221  0.87477  1.0000
  H   H20       1.0  0.72057  0.25780  0.12523  1.0000
  H   H21       1.0  0.68471  0.64135  0.32585  1.0000
  H   H22       1.0  0.31529  0.35865  0.67415  1.0000
  H   H23       1.0  0.84287  0.57705  0.39262  1.0000
  H   H24       1.0  0.15713  0.42294  0.60738  1.0000
  H   H25       1.0  0.50700  0.50484  0.34160  1.0000
  H   H26       1.0  0.49300  0.49516  0.65839  1.0000
  H   H27       1.0  0.43789  0.28631  0.40034  1.0000
  H   H28       1.0  0.56211  0.71370  0.59965  1.0000
  H   H29       1.0  0.65012  0.08830  0.44122  1.0000
  H   H30       1.0  0.34987  0.91170  0.55878  1.0000
  H   H31       1.0  0.92578  0.11781  0.41227  1.0000
  H   H32       1.0  0.07422  0.88219  0.58773  1.0000
  C   C1        1.0  0.39765  0.34212  0.02069  1.0000
  C   C2        1.0  0.60235  0.65788  0.97931  1.0000
  C   C3        1.0  0.51110  0.31710  0.88966  1.0000
  C   C4        1.0  0.48890  0.68290  0.11034  1.0000
  C   C5        1.0  0.52184  0.20528  0.81868  1.0000
  C   C6        1.0  0.47816  0.79472  0.18132  1.0000
  C   C7        1.0  0.41865  0.12335  0.88034  1.0000
  C   C8        1.0  0.58135  0.87665  0.11966  1.0000
  C   C9        1.0  0.30795  0.15475  0.01241  1.0000
  C   C10       1.0  0.69206  0.84525  0.98759  1.0000
  C   C11       1.0  0.19274  0.07148  0.08622  1.0000
  C   C12       1.0  0.80726  0.92852  0.91378  1.0000
  C   C13       1.0  0.14163  0.86375  0.05748  1.0000
  C   C14       1.0  0.85837  0.13625  0.94252  1.0000
  C   C15       1.0  0.01962  0.87506  0.18548  1.0000
  C   C16       1.0  0.98038  0.12495  0.81452  1.0000
  C   C17       1.0  0.94154  0.77257  0.23165  1.0000
  C   C18       1.0  0.05846  0.22743  0.76835  1.0000
  C   C19       1.0  0.98661  0.65867  0.14943  1.0000
  C   C20       1.0  0.01339  0.34133  0.85057  1.0000
  C   C21       1.0  0.10728  0.64807  0.02002  1.0000
  C   C22       1.0  0.89271  0.35193  0.97998  1.0000
  C   C23       1.0  0.18414  0.74987  0.97454  1.0000
  C   C24       1.0  0.81586  0.25013  0.02546  1.0000
  C   C25       1.0  0.79654  0.55828  0.31740  1.0000
  C   C26       1.0  0.20347  0.44172  0.68260  1.0000
  C   C27       1.0  0.75343  0.42634  0.34342  1.0000
  C   C28       1.0  0.24657  0.57366  0.65658  1.0000
  C   C29       1.0  0.59777  0.41714  0.35706  1.0000
  C   C30       1.0  0.40224  0.58286  0.64294  1.0000
  C   C31       1.0  0.55854  0.29509  0.39089  1.0000
  C   C32       1.0  0.44146  0.70491  0.60911  1.0000
  C   C33       1.0  0.67565  0.18502  0.41220  1.0000
  C   C34       1.0  0.32434  0.81498  0.58780  1.0000
  C   C35       1.0  0.82975  0.20017  0.39540  1.0000
  C   C36       1.0  0.17025  0.79983  0.60460  1.0000
  N   N1        1.0  0.29898  0.26257  0.08084  1.0000
  N   N2        1.0  0.70102  0.73743  0.91916  1.0000
  N   N3        1.0  0.86777  0.31716  0.35999  1.0000
  N   N4        1.0  0.13223  0.68284  0.64001  1.0000
  Cl  Cl1       1.0  0.20258  0.52323  0.35107  1.0000
  Cl  Cl2       1.0  0.79742  0.47677  0.64893  1.0000
  Cl  Cl3       1.0  0.24423  0.09974  0.41283  1.0000
  Cl  Cl4       1.0  0.75577  0.90026  0.58718  1.0000
  O   O1        1.0  0.22866  0.95655  0.00396  1.0000
  O   O2        1.0  0.77135  0.04345  0.99604  1.0000
  O   O3        1.0  0.92219  0.54953  0.18653  1.0000
  O   O4        1.0  0.07781  0.45047  0.81347  1.0000
