data_image0
_chemical_formula_structural       Zn2H32C28N4O12
_chemical_formula_sum              "Zn2 H32 C28 N4 O12"
_cell_length_a       8.63095
_cell_length_b       9.16467
_cell_length_c       9.49503
_cell_angle_alpha    107.004
_cell_angle_beta     90
_cell_angle_gamma    90.0001

_space_group_name_H-M_alt    "P 1"
_space_group_IT_number       1

loop_
  _space_group_symop_operation_xyz
  'x, y, z'

loop_
  _atom_site_type_symbol
  _atom_site_label
  _atom_site_symmetry_multiplicity
  _atom_site_fract_x
  _atom_site_fract_y
  _atom_site_fract_z
  _atom_site_occupancy
  Zn  Zn1       1.0  0.50000  0.50000  1.00000  1.0000
  Zn  Zn2       1.0  0.00000  0.00000  0.50000  1.0000
  H   H1        1.0  0.34888  0.31627  0.79666  1.0000
  H   H2        1.0  0.84888  0.18373  0.70334  1.0000
  H   H3        1.0  0.65112  0.68373  0.20334  1.0000
  H   H4        1.0  0.15112  0.81627  0.29666  1.0000
  H   H5        1.0  0.51949  0.30183  0.71417  1.0000
  H   H6        1.0  0.01949  0.19817  0.78583  1.0000
  H   H7        1.0  0.48051  0.69817  0.28583  1.0000
  H   H8        1.0  0.98051  0.80183  0.21417  1.0000
  H   H9        1.0  0.52671  0.62380  0.73414  1.0000
  H   H10       1.0  0.02671  0.87620  0.76586  1.0000
  H   H11       1.0  0.47329  0.37619  0.26586  1.0000
  H   H12       1.0  0.97329  0.12381  0.23414  1.0000
  H   H13       1.0  0.32359  0.79593  0.14336  1.0000
  H   H14       1.0  0.82360  0.70407  0.35664  1.0000
  H   H15       1.0  0.67641  0.20407  0.85664  1.0000
  H   H16       1.0  0.17640  0.29593  0.64336  1.0000
  H   H17       1.0  0.53737  0.95769  0.62951  1.0000
  H   H18       1.0  0.03737  0.54231  0.87049  1.0000
  H   H19       1.0  0.46263  0.04231  0.37049  1.0000
  H   H20       1.0  0.96263  0.45769  0.12951  1.0000
  H   H21       1.0  0.53413  0.75700  0.55597  1.0000
  H   H22       1.0  0.03413  0.74300  0.94403  1.0000
  H   H23       1.0  0.46587  0.24300  0.44403  1.0000
  H   H24       1.0  0.96587  0.25700  0.05597  1.0000
  H   H25       1.0  0.23090  0.02827  0.08332  1.0000
  H   H26       1.0  0.73090  0.47173  0.41668  1.0000
  H   H27       1.0  0.76911  0.97173  0.91668  1.0000
  H   H28       1.0  0.26910  0.52827  0.58332  1.0000
  H   H29       1.0  0.29607  0.06031  0.83652  1.0000
  H   H30       1.0  0.79607  0.43969  0.66348  1.0000
  H   H31       1.0  0.70393  0.93969  0.16348  1.0000
  H   H32       1.0  0.20393  0.56031  0.33652  1.0000
  C   C1        1.0  0.32773  0.87376  0.51786  1.0000
  C   C2        1.0  0.82773  0.62624  0.98214  1.0000
  C   C3        1.0  0.67227  0.12624  0.48214  1.0000
  C   C4        1.0  0.17227  0.37376  0.01786  1.0000
  C   C5        1.0  0.46417  0.85575  0.61506  1.0000
  C   C6        1.0  0.96417  0.64425  0.88494  1.0000
  C   C7        1.0  0.53583  0.14425  0.38494  1.0000
  C   C8        1.0  0.03583  0.35575  0.11506  1.0000
  C   C9        1.0  0.41808  0.84451  0.76442  1.0000
  C   C10       1.0  0.91808  0.65549  0.73558  1.0000
  C   C11       1.0  0.58192  0.15549  0.23558  1.0000
  C   C12       1.0  0.08192  0.34451  0.26442  1.0000
  C   C13       1.0  0.46176  0.71736  0.80791  1.0000
  C   C14       1.0  0.96176  0.78264  0.69209  1.0000
  C   C15       1.0  0.53824  0.28264  0.19209  1.0000
  C   C16       1.0  0.03824  0.21736  0.30791  1.0000
  C   C17       1.0  0.34742  0.81226  0.03664  1.0000
  C   C18       1.0  0.84742  0.68774  0.46336  1.0000
  C   C19       1.0  0.65258  0.18774  0.96336  1.0000
  C   C20       1.0  0.15258  0.31226  0.53664  1.0000
  C   C21       1.0  0.29687  0.94204  0.00219  1.0000
  C   C22       1.0  0.79687  0.55796  0.49781  1.0000
  C   C23       1.0  0.70313  0.05796  0.99781  1.0000
  C   C24       1.0  0.20313  0.44204  0.50219  1.0000
  C   C25       1.0  0.33362  0.95942  0.86542  1.0000
  C   C26       1.0  0.83362  0.54058  0.63458  1.0000
  C   C27       1.0  0.66638  0.04058  0.13458  1.0000
  C   C28       1.0  0.16638  0.45942  0.36542  1.0000
  N   N1        1.0  0.42835  0.70155  0.94120  1.0000
  N   N2        1.0  0.92835  0.79845  0.55880  1.0000
  N   N3        1.0  0.57165  0.29845  0.05880  1.0000
  N   N4        1.0  0.07165  0.20155  0.44120  1.0000
  O   O1        1.0  0.22589  0.97183  0.57725  1.0000
  O   O2        1.0  0.72589  0.52818  0.92276  1.0000
  O   O3        1.0  0.77411  0.02817  0.42275  1.0000
  O   O4        1.0  0.27411  0.47182  0.07724  1.0000
  O   O5        1.0  0.44235  0.37159  0.77866  1.0000
  O   O6        1.0  0.94235  0.12841  0.72134  1.0000
  O   O7        1.0  0.55764  0.62841  0.22134  1.0000
  O   O8        1.0  0.05765  0.87159  0.27866  1.0000
  O   O9        1.0  0.32689  0.79166  0.38345  1.0000
  O   O10       1.0  0.82689  0.70834  0.11655  1.0000
  O   O11       1.0  0.67311  0.20834  0.61655  1.0000
  O   O12       1.0  0.17311  0.29166  0.88345  1.0000
