data_image0
_chemical_formula_structural       Pr4H28C32O36
_chemical_formula_sum              "Pr4 H28 C32 O36"
_cell_length_a       8.41439
_cell_length_b       8.78007
_cell_length_c       14.48
_cell_angle_alpha    90
_cell_angle_beta     90
_cell_angle_gamma    103.63

_space_group_name_H-M_alt    "P 1"
_space_group_IT_number       1

loop_
  _space_group_symop_operation_xyz
  'x, y, z'

loop_
  _atom_site_type_symbol
  _atom_site_label
  _atom_site_symmetry_multiplicity
  _atom_site_fract_x
  _atom_site_fract_y
  _atom_site_fract_z
  _atom_site_occupancy
  Pr  Pr1       1.0  0.36745  0.90481  0.81204  1.0000
  Pr  Pr2       1.0  0.63255  0.59519  0.31204  1.0000
  Pr  Pr3       1.0  0.63255  0.09519  0.18796  1.0000
  Pr  Pr4       1.0  0.36745  0.40481  0.68796  1.0000
  H   H1        1.0  0.92158  0.88603  0.70451  1.0000
  H   H2        1.0  0.07842  0.61397  0.20451  1.0000
  H   H3        1.0  0.07842  0.11397  0.29549  1.0000
  H   H4        1.0  0.92158  0.38603  0.79549  1.0000
  H   H5        1.0  0.82169  0.53674  0.65171  1.0000
  H   H6        1.0  0.17831  0.96326  0.15171  1.0000
  H   H7        1.0  0.17831  0.46326  0.34829  1.0000
  H   H8        1.0  0.82169  0.03674  0.84829  1.0000
  H   H9        1.0  0.43900  0.37436  0.92512  1.0000
  H   H10       1.0  0.56100  0.12563  0.42512  1.0000
  H   H11       1.0  0.56100  0.62563  0.07488  1.0000
  H   H12       1.0  0.43900  0.87436  0.57488  1.0000
  H   H13       1.0  0.00519  0.89730  0.90052  1.0000
  H   H14       1.0  0.99481  0.60270  0.40052  1.0000
  H   H15       1.0  0.99480  0.10270  0.09948  1.0000
  H   H16       1.0  0.00519  0.39730  0.59948  1.0000
  H   H17       1.0  0.86431  0.56505  0.04718  1.0000
  H   H18       1.0  0.13569  0.93495  0.54718  1.0000
  H   H19       1.0  0.13569  0.43495  0.95282  1.0000
  H   H20       1.0  0.86431  0.06505  0.45282  1.0000
  H   H21       1.0  0.35631  0.91678  0.03096  1.0000
  H   H22       1.0  0.64369  0.58321  0.53096  1.0000
  H   H23       1.0  0.64369  0.08321  0.96904  1.0000
  H   H24       1.0  0.35631  0.41679  0.46904  1.0000
  H   H25       1.0  0.35528  0.08468  0.99841  1.0000
  H   H26       1.0  0.64472  0.41532  0.49841  1.0000
  H   H27       1.0  0.64472  0.91532  0.00159  1.0000
  H   H28       1.0  0.35528  0.58468  0.50159  1.0000
  C   C1        1.0  0.66240  0.76265  0.68326  1.0000
  C   C2        1.0  0.33760  0.73735  0.18326  1.0000
  C   C3        1.0  0.33760  0.23735  0.31674  1.0000
  C   C4        1.0  0.66240  0.26265  0.81674  1.0000
  C   C5        1.0  0.84212  0.77397  0.68472  1.0000
  C   C6        1.0  0.15788  0.72603  0.18472  1.0000
  C   C7        1.0  0.15788  0.22603  0.31528  1.0000
  C   C8        1.0  0.84212  0.27397  0.81528  1.0000
  C   C9        1.0  0.90397  0.64903  0.66830  1.0000
  C   C10       1.0  0.09603  0.85097  0.16830  1.0000
  C   C11       1.0  0.09604  0.35097  0.33170  1.0000
  C   C12       1.0  0.90397  0.14903  0.83170  1.0000
  C   C13       1.0  0.08062  0.65104  0.67539  1.0000
  C   C14       1.0  0.91938  0.84896  0.17539  1.0000
  C   C15       1.0  0.91938  0.34896  0.32461  1.0000
  C   C16       1.0  0.08062  0.15104  0.82461  1.0000
  C   C17       1.0  0.46918  0.62571  0.89575  1.0000
  C   C18       1.0  0.53082  0.87429  0.39574  1.0000
  C   C19       1.0  0.53082  0.37429  0.10426  1.0000
  C   C20       1.0  0.46918  0.12572  0.60425  1.0000
  C   C21       1.0  0.47713  0.49081  0.95559  1.0000
  C   C22       1.0  0.52287  0.00919  0.45559  1.0000
  C   C23       1.0  0.52287  0.50919  0.04441  1.0000
  C   C24       1.0  0.47713  0.99081  0.54441  1.0000
  C   C25       1.0  0.02505  0.69560  0.93852  1.0000
  C   C26       1.0  0.97495  0.80440  0.43851  1.0000
  C   C27       1.0  0.97495  0.30440  0.06149  1.0000
  C   C28       1.0  0.02505  0.19560  0.56149  1.0000
  C   C29       1.0  0.96467  0.56104  0.00040  1.0000
  C   C30       1.0  0.03533  0.93896  0.50040  1.0000
  C   C31       1.0  0.03533  0.43896  0.99960  1.0000
  C   C32       1.0  0.96467  0.06104  0.49960  1.0000
  O   O1        1.0  0.14290  0.69981  0.88585  1.0000
  O   O2        1.0  0.85710  0.80019  0.38585  1.0000
  O   O3        1.0  0.85710  0.30019  0.11415  1.0000
  O   O4        1.0  0.14290  0.19981  0.61415  1.0000
  O   O5        1.0  0.94606  0.80842  0.94419  1.0000
  O   O6        1.0  0.05394  0.69158  0.44419  1.0000
  O   O7        1.0  0.05393  0.19158  0.05581  1.0000
  O   O8        1.0  0.94607  0.30842  0.55581  1.0000
  O   O9        1.0  0.40619  0.59919  0.81502  1.0000
  O   O10       1.0  0.59381  0.90081  0.31502  1.0000
  O   O11       1.0  0.59381  0.40081  0.18498  1.0000
  O   O12       1.0  0.40619  0.09919  0.68498  1.0000
  O   O13       1.0  0.51600  0.76579  0.92550  1.0000
  O   O14       1.0  0.48400  0.73420  0.42550  1.0000
  O   O15       1.0  0.48400  0.23421  0.07450  1.0000
  O   O16       1.0  0.51600  0.26580  0.57450  1.0000
  O   O17       1.0  0.61206  0.86923  0.72494  1.0000
  O   O18       1.0  0.38794  0.63077  0.22494  1.0000
  O   O19       1.0  0.38794  0.13077  0.27506  1.0000
  O   O20       1.0  0.61206  0.36923  0.77506  1.0000
  O   O21       1.0  0.56958  0.64648  0.64083  1.0000
  O   O22       1.0  0.43043  0.85352  0.14083  1.0000
  O   O23       1.0  0.43043  0.35352  0.35917  1.0000
  O   O24       1.0  0.56957  0.14648  0.85917  1.0000
  O   O25       1.0  0.18579  0.77745  0.69055  1.0000
  O   O26       1.0  0.81421  0.72255  0.19055  1.0000
  O   O27       1.0  0.81421  0.22255  0.30945  1.0000
  O   O28       1.0  0.18579  0.27745  0.80945  1.0000
  O   O29       1.0  0.11656  0.51751  0.66553  1.0000
  O   O30       1.0  0.88344  0.98249  0.16553  1.0000
  O   O31       1.0  0.88344  0.48250  0.33447  1.0000
  O   O32       1.0  0.11656  0.01751  0.83447  1.0000
  O   O33       1.0  0.31777  0.97400  0.97990  1.0000
  O   O34       1.0  0.68223  0.52600  0.47990  1.0000
  O   O35       1.0  0.68223  0.02600  0.02010  1.0000
  O   O36       1.0  0.31777  0.47400  0.52010  1.0000
