data_image0
_chemical_formula_structural       Cd2H32C36N4O10
_chemical_formula_sum              "Cd2 H32 C36 N4 O10"
_cell_length_a       8.3857
_cell_length_b       10.4833
_cell_length_c       10.9202
_cell_angle_alpha    112.055
_cell_angle_beta     94.9297
_cell_angle_gamma    103.197

_space_group_name_H-M_alt    "P 1"
_space_group_IT_number       1

loop_
  _space_group_symop_operation_xyz
  'x, y, z'

loop_
  _atom_site_type_symbol
  _atom_site_label
  _atom_site_symmetry_multiplicity
  _atom_site_fract_x
  _atom_site_fract_y
  _atom_site_fract_z
  _atom_site_occupancy
  Cd  Cd1       1.0  0.62743  0.13553  0.44141  1.0000
  Cd  Cd2       1.0  0.37257  0.86446  0.55859  1.0000
  H   H1        1.0  0.05311  0.91977  0.38271  1.0000
  H   H2        1.0  0.94689  0.08023  0.61729  1.0000
  H   H3        1.0  0.11213  0.69624  0.24233  1.0000
  H   H4        1.0  0.88787  0.30376  0.75767  1.0000
  H   H5        1.0  0.17288  0.65045  0.01550  1.0000
  H   H6        1.0  0.82713  0.34955  0.98450  1.0000
  H   H7        1.0  0.29074  0.83325  0.10232  1.0000
  H   H8        1.0  0.70926  0.16675  0.89768  1.0000
  H   H9        1.0  0.09674  0.90082  0.98053  1.0000
  H   H10       1.0  0.90327  0.09919  0.01948  1.0000
  H   H11       1.0  0.98334  0.71682  0.89158  1.0000
  H   H12       1.0  0.01668  0.28319  0.10842  1.0000
  H   H13       1.0  0.77923  0.80320  0.02894  1.0000
  H   H14       1.0  0.22077  0.19681  0.97105  1.0000
  H   H15       1.0  0.03863  0.04821  0.18510  1.0000
  H   H16       1.0  0.96137  0.95179  0.81490  1.0000
  H   H17       1.0  0.79020  0.24898  0.23187  1.0000
  H   H18       1.0  0.20979  0.75102  0.76812  1.0000
  H   H19       1.0  0.91704  0.48006  0.20994  1.0000
  H   H20       1.0  0.08296  0.51994  0.79006  1.0000
  H   H21       1.0  0.92010  0.71282  0.39897  1.0000
  H   H22       1.0  0.07990  0.28718  0.60104  1.0000
  H   H23       1.0  0.79239  0.70553  0.59154  1.0000
  H   H24       1.0  0.20760  0.29446  0.40846  1.0000
  H   H25       1.0  0.64990  0.68526  0.72592  1.0000
  H   H26       1.0  0.35010  0.31474  0.27408  1.0000
  H   H27       1.0  0.50209  0.64947  0.90258  1.0000
  H   H28       1.0  0.49791  0.35053  0.09742  1.0000
  H   H29       1.0  0.40472  0.39975  0.89537  1.0000
  H   H30       1.0  0.59529  0.60025  0.10464  1.0000
  H   H31       1.0  0.47852  0.20066  0.71876  1.0000
  H   H32       1.0  0.52148  0.79933  0.28124  1.0000
  C   C1        1.0  0.27267  0.01440  0.33198  1.0000
  C   C2        1.0  0.72732  0.98560  0.66802  1.0000
  C   C3        1.0  0.09497  0.91931  0.28997  1.0000
  C   C4        1.0  0.90503  0.08069  0.71003  1.0000
  C   C5        1.0  0.07988  0.76272  0.19267  1.0000
  C   C6        1.0  0.92012  0.23728  0.80733  1.0000
  C   C7        1.0  0.16437  0.75936  0.07229  1.0000
  C   C8        1.0  0.83564  0.24065  0.92771  1.0000
  C   C9        1.0  0.03904  0.80195  0.99209  1.0000
  C   C10       1.0  0.96097  0.19806  0.00791  1.0000
  C   C11       1.0  0.90487  0.81959  0.08003  1.0000
  C   C12       1.0  0.09513  0.18042  0.91996  1.0000
  C   C13       1.0  0.97058  0.95923  0.20795  1.0000
  C   C14       1.0  0.02942  0.04077  0.79205  1.0000
  C   C15       1.0  0.83678  0.01111  0.28239  1.0000
  C   C16       1.0  0.16322  0.98889  0.71761  1.0000
  C   C17       1.0  0.79495  0.35314  0.30950  1.0000
  C   C18       1.0  0.20505  0.64686  0.69049  1.0000
  C   C19       1.0  0.86563  0.48120  0.29844  1.0000
  C   C20       1.0  0.13436  0.51880  0.70156  1.0000
  C   C21       1.0  0.86559  0.60953  0.40176  1.0000
  C   C22       1.0  0.13441  0.39047  0.59825  1.0000
  C   C23       1.0  0.79426  0.60569  0.51122  1.0000
  C   C24       1.0  0.20573  0.39430  0.48878  1.0000
  C   C25       1.0  0.72387  0.47270  0.51490  1.0000
  C   C26       1.0  0.27613  0.52729  0.48510  1.0000
  C   C27       1.0  0.64250  0.46039  0.62735  1.0000
  C   C28       1.0  0.35750  0.53960  0.37264  1.0000
  C   C29       1.0  0.61301  0.57923  0.72720  1.0000
  C   C30       1.0  0.38699  0.42077  0.27279  1.0000
  C   C31       1.0  0.52907  0.55863  0.82596  1.0000
  C   C32       1.0  0.47093  0.44137  0.17404  1.0000
  C   C33       1.0  0.47714  0.42157  0.82387  1.0000
  C   C34       1.0  0.52286  0.57843  0.17613  1.0000
  C   C35       1.0  0.51419  0.30942  0.72343  1.0000
  C   C36       1.0  0.48581  0.69058  0.27657  1.0000
  N   N1        1.0  0.72633  0.34944  0.41483  1.0000
  N   N2        1.0  0.27367  0.65056  0.58517  1.0000
  N   N3        1.0  0.59485  0.32871  0.62807  1.0000
  N   N4        1.0  0.40515  0.67129  0.37193  1.0000
  O   O1        1.0  0.37449  0.97727  0.39967  1.0000
  O   O2        1.0  0.62551  0.02272  0.60033  1.0000
  O   O3        1.0  0.32004  0.11906  0.30161  1.0000
  O   O4        1.0  0.67996  0.88093  0.69839  1.0000
  O   O5        1.0  0.69110  0.98434  0.21819  1.0000
  O   O6        1.0  0.30889  0.01565  0.78181  1.0000
  O   O7        1.0  0.88117  0.08712  0.40955  1.0000
  O   O8        1.0  0.11882  0.91288  0.59045  1.0000
  O   O9        1.0  0.90405  0.70989  0.13209  1.0000
  O   O10       1.0  0.09595  0.29011  0.86790  1.0000
