data_image0
_chemical_formula_structural       Mo4H48C60S8N8O12
_chemical_formula_sum              "Mo4 H48 C60 S8 N8 O12"
_cell_length_a       7.81293
_cell_length_b       13.3993
_cell_length_c       16.417
_cell_angle_alpha    111.526
_cell_angle_beta     90
_cell_angle_gamma    90

_space_group_name_H-M_alt    "P 1"
_space_group_IT_number       1

loop_
  _space_group_symop_operation_xyz
  'x, y, z'

loop_
  _atom_site_type_symbol
  _atom_site_label
  _atom_site_symmetry_multiplicity
  _atom_site_fract_x
  _atom_site_fract_y
  _atom_site_fract_z
  _atom_site_occupancy
  Mo  Mo1       1.0  0.53757  0.75949  0.00043  1.0000
  Mo  Mo2       1.0  0.96243  0.25948  0.00043  1.0000
  Mo  Mo3       1.0  0.46243  0.24051  0.99957  1.0000
  Mo  Mo4       1.0  0.03757  0.74052  0.99957  1.0000
  H   H1        1.0  0.62432  0.59973  0.71411  1.0000
  H   H2        1.0  0.87567  0.09974  0.71411  1.0000
  H   H3        1.0  0.37567  0.40027  0.28589  1.0000
  H   H4        1.0  0.12433  0.90027  0.28589  1.0000
  H   H5        1.0  0.71539  0.41300  0.62141  1.0000
  H   H6        1.0  0.78461  0.91300  0.62141  1.0000
  H   H7        1.0  0.28462  0.58700  0.37859  1.0000
  H   H8        1.0  0.21539  0.08700  0.37859  1.0000
  H   H9        1.0  0.78446  0.28189  0.69151  1.0000
  H   H10       1.0  0.71554  0.78189  0.69151  1.0000
  H   H11       1.0  0.21555  0.71811  0.30849  1.0000
  H   H12       1.0  0.28446  0.21811  0.30849  1.0000
  H   H13       1.0  0.77354  0.33843  0.85351  1.0000
  H   H14       1.0  0.72647  0.83843  0.85351  1.0000
  H   H15       1.0  0.22647  0.66157  0.14649  1.0000
  H   H16       1.0  0.27354  0.16157  0.14649  1.0000
  H   H17       1.0  0.74514  0.46646  0.99214  1.0000
  H   H18       1.0  0.75486  0.96646  0.99214  1.0000
  H   H19       1.0  0.25486  0.53354  0.00786  1.0000
  H   H20       1.0  0.24514  0.03354  0.00786  1.0000
  H   H21       1.0  0.69118  0.54797  0.24035  1.0000
  H   H22       1.0  0.80882  0.04798  0.24035  1.0000
  H   H23       1.0  0.30882  0.45203  0.75965  1.0000
  H   H24       1.0  0.19117  0.95202  0.75965  1.0000
  H   H25       1.0  0.90343  0.59563  0.24006  1.0000
  H   H26       1.0  0.59657  0.09563  0.24006  1.0000
  H   H27       1.0  0.09657  0.40437  0.75994  1.0000
  H   H28       1.0  0.40343  0.90437  0.75994  1.0000
  H   H29       1.0  0.97823  0.75030  0.40897  1.0000
  H   H30       1.0  0.52177  0.25030  0.40896  1.0000
  H   H31       1.0  0.02177  0.24970  0.59103  1.0000
  H   H32       1.0  0.47823  0.74970  0.59104  1.0000
  H   H33       1.0  0.02227  0.75123  0.55836  1.0000
  H   H34       1.0  0.47774  0.25123  0.55836  1.0000
  H   H35       1.0  0.97774  0.24877  0.44164  1.0000
  H   H36       1.0  0.52226  0.74877  0.44164  1.0000
  H   H37       1.0  0.88061  0.61457  0.60478  1.0000
  H   H38       1.0  0.61940  0.11457  0.60478  1.0000
  H   H39       1.0  0.11940  0.38543  0.39522  1.0000
  H   H40       1.0  0.38061  0.88543  0.39522  1.0000
  H   H41       1.0  0.68823  0.47761  0.49993  1.0000
  H   H42       1.0  0.81177  0.97761  0.49993  1.0000
  H   H43       1.0  0.31177  0.52239  0.50007  1.0000
  H   H44       1.0  0.18823  0.02239  0.50007  1.0000
  H   H45       1.0  0.64470  0.47705  0.35013  1.0000
  H   H46       1.0  0.85530  0.97705  0.35013  1.0000
  H   H47       1.0  0.35530  0.52294  0.64987  1.0000
  H   H48       1.0  0.14470  0.02295  0.64987  1.0000
  C   C1        1.0  0.68887  0.49962  0.87560  1.0000
  C   C2        1.0  0.81113  0.99962  0.87560  1.0000
  C   C3        1.0  0.31114  0.50038  0.12439  1.0000
  C   C4        1.0  0.18887  0.00038  0.12440  1.0000
  C   C5        1.0  0.64465  0.57251  0.83448  1.0000
  C   C6        1.0  0.85535  0.07251  0.83449  1.0000
  C   C7        1.0  0.35535  0.42749  0.16552  1.0000
  C   C8        1.0  0.14465  0.92749  0.16551  1.0000
  C   C9        1.0  0.65621  0.54089  0.74321  1.0000
  C   C10       1.0  0.84378  0.04089  0.74321  1.0000
  C   C11       1.0  0.34379  0.45911  0.25679  1.0000
  C   C12       1.0  0.15621  0.95911  0.25679  1.0000
  C   C13       1.0  0.70696  0.43712  0.69233  1.0000
  C   C14       1.0  0.79304  0.93712  0.69233  1.0000
  C   C15       1.0  0.29305  0.56288  0.30767  1.0000
  C   C16       1.0  0.20695  0.06288  0.30767  1.0000
  C   C17       1.0  0.74753  0.36346  0.73179  1.0000
  C   C18       1.0  0.75247  0.86346  0.73179  1.0000
  C   C19       1.0  0.25247  0.63654  0.26821  1.0000
  C   C20       1.0  0.24753  0.13654  0.26821  1.0000
  C   C21       1.0  0.74008  0.39485  0.82219  1.0000
  C   C22       1.0  0.75992  0.89485  0.82219  1.0000
  C   C23       1.0  0.25993  0.60515  0.17781  1.0000
  C   C24       1.0  0.24008  0.10515  0.17781  1.0000
  C   C25       1.0  0.69388  0.52696  0.96874  1.0000
  C   C26       1.0  0.80612  0.02696  0.96874  1.0000
  C   C27       1.0  0.30612  0.47304  0.03126  1.0000
  C   C28       1.0  0.19388  0.97305  0.03126  1.0000
  C   C29       1.0  0.65993  0.71752  0.17327  1.0000
  C   C30       1.0  0.84007  0.21752  0.17328  1.0000
  C   C31       1.0  0.34007  0.28248  0.82672  1.0000
  C   C32       1.0  0.15993  0.78248  0.82673  1.0000
  C   C33       1.0  0.78289  0.61002  0.27710  1.0000
  C   C34       1.0  0.71711  0.11002  0.27710  1.0000
  C   C35       1.0  0.21711  0.38997  0.72290  1.0000
  C   C36       1.0  0.28288  0.88997  0.72290  1.0000
  C   C37       1.0  0.80797  0.61327  0.36893  1.0000
  C   C38       1.0  0.69203  0.11327  0.36893  1.0000
  C   C39       1.0  0.19204  0.38674  0.63107  1.0000
  C   C40       1.0  0.30796  0.88674  0.63107  1.0000
  C   C41       1.0  0.91388  0.69043  0.42867  1.0000
  C   C42       1.0  0.58612  0.19043  0.42867  1.0000
  C   C43       1.0  0.08612  0.30956  0.57133  1.0000
  C   C44       1.0  0.41388  0.80957  0.57133  1.0000
  C   C45       1.0  0.93836  0.69133  0.51311  1.0000
  C   C46       1.0  0.56164  0.19134  0.51311  1.0000
  C   C47       1.0  0.06164  0.30866  0.48689  1.0000
  C   C48       1.0  0.43836  0.80867  0.48689  1.0000
  C   C49       1.0  0.85745  0.61502  0.53936  1.0000
  C   C50       1.0  0.64255  0.11502  0.53936  1.0000
  C   C51       1.0  0.14255  0.38497  0.46064  1.0000
  C   C52       1.0  0.35745  0.88498  0.46064  1.0000
  C   C53       1.0  0.75090  0.53835  0.48066  1.0000
  C   C54       1.0  0.74910  0.03836  0.48067  1.0000
  C   C55       1.0  0.24910  0.46165  0.51934  1.0000
  C   C56       1.0  0.25090  0.96165  0.51934  1.0000
  C   C57       1.0  0.72620  0.53774  0.39619  1.0000
  C   C58       1.0  0.77381  0.03774  0.39619  1.0000
  C   C59       1.0  0.27380  0.46226  0.60381  1.0000
  C   C60       1.0  0.22619  0.96226  0.60381  1.0000
  S   S1        1.0  0.58664  0.83202  0.15731  1.0000
  S   S2        1.0  0.91336  0.33202  0.15731  1.0000
  S   S3        1.0  0.41336  0.16798  0.84269  1.0000
  S   S4        1.0  0.08664  0.66798  0.84269  1.0000
  S   S5        1.0  0.70090  0.74012  0.28271  1.0000
  S   S6        1.0  0.79910  0.24012  0.28271  1.0000
  S   S7        1.0  0.29910  0.25988  0.71729  1.0000
  S   S8        1.0  0.20090  0.75988  0.71729  1.0000
  N   N1        1.0  0.65044  0.61878  0.02896  1.0000
  N   N2        1.0  0.84956  0.11878  0.02896  1.0000
  N   N3        1.0  0.34956  0.38122  0.97104  1.0000
  N   N4        1.0  0.15044  0.88121  0.97104  1.0000
  N   N5        1.0  0.68656  0.62390  0.11278  1.0000
  N   N6        1.0  0.81343  0.12390  0.11278  1.0000
  N   N7        1.0  0.31343  0.37610  0.88722  1.0000
  N   N8        1.0  0.18657  0.87610  0.88722  1.0000
  O   O1        1.0  0.52220  0.88806  0.00355  1.0000
  O   O2        1.0  0.97780  0.38806  0.00356  1.0000
  O   O3        1.0  0.47780  0.11194  0.99644  1.0000
  O   O4        1.0  0.02221  0.61194  0.99645  1.0000
  O   O5        1.0  0.32525  0.71713  0.00094  1.0000
  O   O6        1.0  0.17475  0.21713  0.00094  1.0000
  O   O7        1.0  0.67475  0.28287  0.99906  1.0000
  O   O8        1.0  0.82525  0.78287  0.99906  1.0000
  O   O9        1.0  0.59174  0.67248  0.88035  1.0000
  O   O10       1.0  0.90825  0.17247  0.88035  1.0000
  O   O11       1.0  0.40826  0.32752  0.11965  1.0000
  O   O12       1.0  0.09174  0.82753  0.11965  1.0000
