data_image0
_chemical_formula_structural       Zn4H16C28S4O8
_chemical_formula_sum              "Zn4 H16 C28 S4 O8"
_cell_length_a       7.0179
_cell_length_b       7.53379
_cell_length_c       14.075
_cell_angle_alpha    105.568
_cell_angle_beta     91.2216
_cell_angle_gamma    89.9818

_space_group_name_H-M_alt    "P 1"
_space_group_IT_number       1

loop_
  _space_group_symop_operation_xyz
  'x, y, z'

loop_
  _atom_site_type_symbol
  _atom_site_label
  _atom_site_symmetry_multiplicity
  _atom_site_fract_x
  _atom_site_fract_y
  _atom_site_fract_z
  _atom_site_occupancy
  Zn  Zn1       1.0  0.85697  0.31603  0.56363  1.0000
  Zn  Zn2       1.0  0.35692  0.24732  0.56358  1.0000
  Zn  Zn3       1.0  0.14303  0.68397  0.43637  1.0000
  Zn  Zn4       1.0  0.64308  0.75267  0.43642  1.0000
  H   H1        1.0  0.07178  0.48058  0.86826  1.0000
  H   H2        1.0  0.57135  0.38833  0.86822  1.0000
  H   H3        1.0  0.92822  0.51942  0.13174  1.0000
  H   H4        1.0  0.42865  0.61167  0.13178  1.0000
  H   H5        1.0  0.05289  0.29457  0.98923  1.0000
  H   H6        1.0  0.55264  0.69566  0.98917  1.0000
  H   H7        1.0  0.94711  0.70543  0.01077  1.0000
  H   H8        1.0  0.44735  0.30434  0.01083  1.0000
  H   H9        1.0  0.07984  0.95080  0.93116  1.0000
  H   H10       1.0  0.57986  0.98119  0.93114  1.0000
  H   H11       1.0  0.92016  0.04921  0.06884  1.0000
  H   H12       1.0  0.42013  0.01881  0.06886  1.0000
  H   H13       1.0  0.11290  0.80017  0.75210  1.0000
  H   H14       1.0  0.61307  0.95228  0.75209  1.0000
  H   H15       1.0  0.88710  0.19983  0.24791  1.0000
  H   H16       1.0  0.38693  0.04772  0.24791  1.0000
  C   C1        1.0  0.11534  0.05310  0.70966  1.0000
  C   C2        1.0  0.61536  0.65674  0.70962  1.0000
  C   C3        1.0  0.88466  0.94690  0.29034  1.0000
  C   C4        1.0  0.38464  0.34326  0.29038  1.0000
  C   C5        1.0  0.10638  0.24818  0.74264  1.0000
  C   C6        1.0  0.60624  0.49474  0.74261  1.0000
  C   C7        1.0  0.89362  0.75182  0.25736  1.0000
  C   C8        1.0  0.39376  0.50526  0.25739  1.0000
  C   C9        1.0  0.08163  0.33085  0.84360  1.0000
  C   C10       1.0  0.58128  0.51330  0.84355  1.0000
  C   C11       1.0  0.91837  0.66915  0.15640  1.0000
  C   C12       1.0  0.41872  0.48670  0.15645  1.0000
  C   C13       1.0  0.07048  0.22595  0.91117  1.0000
  C   C14       1.0  0.57029  0.68602  0.91111  1.0000
  C   C15       1.0  0.92952  0.77406  0.08883  1.0000
  C   C16       1.0  0.42971  0.31398  0.08889  1.0000
  C   C17       1.0  0.08470  0.03437  0.87895  1.0000
  C   C18       1.0  0.58465  0.84528  0.87891  1.0000
  C   C19       1.0  0.91531  0.96564  0.12105  1.0000
  C   C20       1.0  0.41535  0.15472  0.12109  1.0000
  C   C21       1.0  0.10458  0.94970  0.77903  1.0000
  C   C22       1.0  0.60459  0.82974  0.77899  1.0000
  C   C23       1.0  0.89541  0.05030  0.22097  1.0000
  C   C24       1.0  0.39541  0.17026  0.22101  1.0000
  C   C25       1.0  0.13431  0.94430  0.60489  1.0000
  C   C26       1.0  0.63459  0.66041  0.60484  1.0000
  C   C27       1.0  0.86569  0.05570  0.39511  1.0000
  C   C28       1.0  0.36541  0.33959  0.39516  1.0000
  S   S1        1.0  0.12106  0.40512  0.66804  1.0000
  S   S2        1.0  0.62103  0.26298  0.66803  1.0000
  S   S3        1.0  0.87894  0.59489  0.33196  1.0000
  S   S4        1.0  0.37897  0.73702  0.33197  1.0000
  O   O1        1.0  0.21145  0.00936  0.53958  1.0000
  O   O2        1.0  0.71123  0.52961  0.53949  1.0000
  O   O3        1.0  0.78855  0.99064  0.46042  1.0000
  O   O4        1.0  0.28877  0.47039  0.46051  1.0000
  O   O5        1.0  0.07214  0.77880  0.57975  1.0000
  O   O6        1.0  0.57292  0.80101  0.57978  1.0000
  O   O7        1.0  0.92786  0.22120  0.42025  1.0000
  O   O8        1.0  0.42708  0.19899  0.42022  1.0000
