data_image0
_chemical_formula_structural       Tl2H8Au2C34N2Cl20
_chemical_formula_sum              "Tl2 H8 Au2 C34 N2 Cl20"
_cell_length_a       8.90418
_cell_length_b       12.1059
_cell_length_c       12.3148
_cell_angle_alpha    69.1347
_cell_angle_beta     80.0122
_cell_angle_gamma    70.0182

_space_group_name_H-M_alt    "P 1"
_space_group_IT_number       1

loop_
  _space_group_symop_operation_xyz
  'x, y, z'

loop_
  _atom_site_type_symbol
  _atom_site_label
  _atom_site_symmetry_multiplicity
  _atom_site_fract_x
  _atom_site_fract_y
  _atom_site_fract_z
  _atom_site_occupancy
  Tl  Tl1       1.0  0.94223  0.73051  0.57197  1.0000
  Tl  Tl2       1.0  0.05778  0.26949  0.42803  1.0000
  H   H1        1.0  0.94946  0.49614  0.87270  1.0000
  H   H2        1.0  0.05053  0.50385  0.12730  1.0000
  H   H3        1.0  0.77887  0.39934  0.03049  1.0000
  H   H4        1.0  0.22112  0.60067  0.96952  1.0000
  H   H5        1.0  0.36829  0.67552  0.84625  1.0000
  H   H6        1.0  0.63170  0.32449  0.15375  1.0000
  H   H7        1.0  0.55621  0.76082  0.69799  1.0000
  H   H8        1.0  0.44379  0.23918  0.30200  1.0000
  Au  Au1       1.0  0.00000  0.00000  0.50000  1.0000
  Au  Au2       1.0  0.00000  0.50000  0.50000  1.0000
  C   C1        1.0  0.06684  0.04062  0.32438  1.0000
  C   C2        1.0  0.93316  0.95938  0.67561  1.0000
  C   C3        1.0  0.21903  0.05144  0.27861  1.0000
  C   C4        1.0  0.78098  0.94856  0.72139  1.0000
  C   C5        1.0  0.26239  0.08726  0.15867  1.0000
  C   C6        1.0  0.73761  0.91274  0.84133  1.0000
  C   C7        1.0  0.14668  0.11881  0.07924  1.0000
  C   C8        1.0  0.85333  0.88119  0.92076  1.0000
  C   C9        1.0  0.99380  0.10638  0.12122  1.0000
  C   C10       1.0  0.00621  0.89362  0.87878  1.0000
  C   C11       1.0  0.95843  0.06534  0.24197  1.0000
  C   C12       1.0  0.04157  0.93466  0.75802  1.0000
  C   C13       1.0  0.22606  0.50666  0.43003  1.0000
  C   C14       1.0  0.77394  0.49334  0.56998  1.0000
  C   C15       1.0  0.25212  0.61009  0.33962  1.0000
  C   C16       1.0  0.74788  0.38990  0.66038  1.0000
  C   C17       1.0  0.40467  0.61416  0.28746  1.0000
  C   C18       1.0  0.59533  0.38584  0.71255  1.0000
  C   C19       1.0  0.53782  0.50872  0.32427  1.0000
  C   C20       1.0  0.46218  0.49127  0.67573  1.0000
  C   C21       1.0  0.51692  0.40305  0.41357  1.0000
  C   C22       1.0  0.48308  0.59694  0.58643  1.0000
  C   C23       1.0  0.36311  0.40518  0.46592  1.0000
  C   C24       1.0  0.63689  0.59481  0.53409  1.0000
  C   C25       1.0  0.81928  0.53429  0.87012  1.0000
  C   C26       1.0  0.18071  0.46571  0.12989  1.0000
  C   C27       1.0  0.72212  0.47965  0.95910  1.0000
  C   C28       1.0  0.27788  0.52036  0.04090  1.0000
  C   C29       1.0  0.55454  0.52769  0.95423  1.0000
  C   C30       1.0  0.44545  0.47232  0.04577  1.0000
  C   C31       1.0  0.49587  0.63105  0.85753  1.0000
  C   C32       1.0  0.50413  0.36896  0.14247  1.0000
  C   C33       1.0  0.60201  0.67995  0.77286  1.0000
  C   C34       1.0  0.39799  0.32005  0.22714  1.0000
  N   N1        1.0  0.76172  0.63334  0.77767  1.0000
  N   N2        1.0  0.23828  0.36666  0.22233  1.0000
  Cl  Cl1       1.0  0.36153  0.02103  0.37447  1.0000
  Cl  Cl2       1.0  0.63848  0.97897  0.62553  1.0000
  Cl  Cl3       1.0  0.45242  0.09337  0.10867  1.0000
  Cl  Cl4       1.0  0.54759  0.90663  0.89133  1.0000
  Cl  Cl5       1.0  0.19077  0.17350  0.93247  1.0000
  Cl  Cl6       1.0  0.80923  0.82650  0.06753  1.0000
  Cl  Cl7       1.0  0.85367  0.14306  0.02390  1.0000
  Cl  Cl8       1.0  0.14633  0.85695  0.97610  1.0000
  Cl  Cl9       1.0  0.77252  0.04288  0.29028  1.0000
  Cl  Cl10      1.0  0.22748  0.95712  0.70972  1.0000
  Cl  Cl11      1.0  0.08992  0.73909  0.28842  1.0000
  Cl  Cl12      1.0  0.91008  0.26090  0.71158  1.0000
  Cl  Cl13      1.0  0.43074  0.74355  0.17925  1.0000
  Cl  Cl14      1.0  0.56926  0.25645  0.82075  1.0000
  Cl  Cl15      1.0  0.72405  0.50885  0.25729  1.0000
  Cl  Cl16      1.0  0.27594  0.49115  0.74271  1.0000
  Cl  Cl17      1.0  0.67538  0.26973  0.45342  1.0000
  Cl  Cl18      1.0  0.32462  0.73026  0.54657  1.0000
  Cl  Cl19      1.0  0.34338  0.27251  0.57679  1.0000
  Cl  Cl20      1.0  0.65663  0.72749  0.42322  1.0000
