data_image0
_chemical_formula_structural       Zn4P4H48C24N12Cl8O4
_chemical_formula_sum              "Zn4 P4 H48 C24 N12 Cl8 O4"
_cell_length_a       7.03336
_cell_length_b       7.2389
_cell_length_c       20.9256
_cell_angle_alpha    90
_cell_angle_beta     90
_cell_angle_gamma    101.96

_space_group_name_H-M_alt    "P 1"
_space_group_IT_number       1

loop_
  _space_group_symop_operation_xyz
  'x, y, z'

loop_
  _atom_site_type_symbol
  _atom_site_label
  _atom_site_symmetry_multiplicity
  _atom_site_fract_x
  _atom_site_fract_y
  _atom_site_fract_z
  _atom_site_occupancy
  Zn  Zn1       1.0  0.59519  0.42463  0.60944  1.0000
  Zn  Zn2       1.0  0.40481  0.07537  0.10944  1.0000
  Zn  Zn3       1.0  0.40481  0.57537  0.39056  1.0000
  Zn  Zn4       1.0  0.59519  0.92463  0.89056  1.0000
  P   P1        1.0  0.93419  0.19823  0.64907  1.0000
  P   P2        1.0  0.06580  0.30177  0.14907  1.0000
  P   P3        1.0  0.06580  0.80177  0.35093  1.0000
  P   P4        1.0  0.93420  0.69823  0.85093  1.0000
  H   H1        1.0  0.16428  0.44349  0.59414  1.0000
  H   H2        1.0  0.83572  0.05651  0.09414  1.0000
  H   H3        1.0  0.83572  0.55651  0.40586  1.0000
  H   H4        1.0  0.16428  0.94349  0.90586  1.0000
  H   H5        1.0  0.21170  0.44339  0.67813  1.0000
  H   H6        1.0  0.78829  0.05661  0.17813  1.0000
  H   H7        1.0  0.78829  0.55661  0.32187  1.0000
  H   H8        1.0  0.21171  0.94339  0.82187  1.0000
  H   H9        1.0  0.03035  0.13393  0.75575  1.0000
  H   H10       1.0  0.96965  0.36607  0.25575  1.0000
  H   H11       1.0  0.96965  0.86607  0.24425  1.0000
  H   H12       1.0  0.03035  0.63393  0.74425  1.0000
  H   H13       1.0  0.86714  0.93409  0.72322  1.0000
  H   H14       1.0  0.13286  0.56591  0.22322  1.0000
  H   H15       1.0  0.13286  0.06590  0.27678  1.0000
  H   H16       1.0  0.86714  0.43409  0.77678  1.0000
  H   H17       1.0  0.78838  0.93008  0.58365  1.0000
  H   H18       1.0  0.21162  0.56992  0.08365  1.0000
  H   H19       1.0  0.21162  0.06992  0.41635  1.0000
  H   H20       1.0  0.78838  0.43008  0.91635  1.0000
  H   H21       1.0  0.90210  0.12763  0.53569  1.0000
  H   H22       1.0  0.09790  0.37237  0.03569  1.0000
  H   H23       1.0  0.09790  0.87237  0.46431  1.0000
  H   H24       1.0  0.90210  0.62763  0.96431  1.0000
  H   H25       1.0  0.45812  0.04608  0.67383  1.0000
  H   H26       1.0  0.54188  0.45392  0.17383  1.0000
  H   H27       1.0  0.54188  0.95392  0.32618  1.0000
  H   H28       1.0  0.45812  0.54608  0.82618  1.0000
  H   H29       1.0  0.36589  0.20468  0.72455  1.0000
  H   H30       1.0  0.63411  0.29532  0.22455  1.0000
  H   H31       1.0  0.63411  0.79532  0.27545  1.0000
  H   H32       1.0  0.36589  0.70468  0.77545  1.0000
  H   H33       1.0  0.25175  0.20606  0.52700  1.0000
  H   H34       1.0  0.74825  0.29394  0.02700  1.0000
  H   H35       1.0  0.74825  0.79394  0.47300  1.0000
  H   H36       1.0  0.25175  0.70606  0.97300  1.0000
  H   H37       1.0  0.39195  0.04570  0.55792  1.0000
  H   H38       1.0  0.60806  0.45430  0.05792  1.0000
  H   H39       1.0  0.60805  0.95430  0.44208  1.0000
  H   H40       1.0  0.39194  0.54571  0.94208  1.0000
  H   H41       1.0  0.24044  0.78643  0.62417  1.0000
  H   H42       1.0  0.75956  0.71357  0.12417  1.0000
  H   H43       1.0  0.75956  0.21357  0.37583  1.0000
  H   H44       1.0  0.24044  0.28643  0.87583  1.0000
  H   H45       1.0  0.98351  0.74968  0.63992  1.0000
  H   H46       1.0  0.01649  0.75032  0.13992  1.0000
  H   H47       1.0  0.01649  0.25032  0.36008  1.0000
  H   H48       1.0  0.98351  0.24968  0.86008  1.0000
  C   C1        1.0  0.17072  0.35324  0.63605  1.0000
  C   C2        1.0  0.82927  0.14676  0.13605  1.0000
  C   C3        1.0  0.82927  0.64676  0.36395  1.0000
  C   C4        1.0  0.17072  0.85324  0.86395  1.0000
  C   C5        1.0  0.99270  0.04779  0.71253  1.0000
  C   C6        1.0  0.00730  0.45221  0.21253  1.0000
  C   C7        1.0  0.00730  0.95221  0.28747  1.0000
  C   C8        1.0  0.99270  0.54779  0.78747  1.0000
  C   C9        1.0  0.91607  0.04626  0.57918  1.0000
  C   C10       1.0  0.08393  0.45374  0.07918  1.0000
  C   C11       1.0  0.08392  0.95374  0.42082  1.0000
  C   C12       1.0  0.91607  0.54626  0.92082  1.0000
  C   C13       1.0  0.33517  0.11461  0.68207  1.0000
  C   C14       1.0  0.66483  0.38539  0.18207  1.0000
  C   C15       1.0  0.66483  0.88539  0.31793  1.0000
  C   C16       1.0  0.33517  0.61461  0.81793  1.0000
  C   C17       1.0  0.26934  0.11441  0.56741  1.0000
  C   C18       1.0  0.73066  0.38559  0.06740  1.0000
  C   C19       1.0  0.73066  0.88559  0.43259  1.0000
  C   C20       1.0  0.26934  0.61442  0.93260  1.0000
  C   C21       1.0  0.11794  0.85587  0.63290  1.0000
  C   C22       1.0  0.88206  0.64413  0.13290  1.0000
  C   C23       1.0  0.88206  0.14413  0.36710  1.0000
  C   C24       1.0  0.11794  0.35587  0.86710  1.0000
  N   N1        1.0  0.32291  0.23933  0.62503  1.0000
  N   N2        1.0  0.67709  0.26067  0.12503  1.0000
  N   N3        1.0  0.67709  0.76067  0.37497  1.0000
  N   N4        1.0  0.32291  0.73933  0.87497  1.0000
  N   N5        1.0  0.16097  0.96906  0.69183  1.0000
  N   N6        1.0  0.83903  0.53094  0.19183  1.0000
  N   N7        1.0  0.83903  0.03094  0.30817  1.0000
  N   N8        1.0  0.16097  0.46906  0.80817  1.0000
  N   N9        1.0  0.09508  0.96982  0.57665  1.0000
  N   N10       1.0  0.90492  0.53018  0.07665  1.0000
  N   N11       1.0  0.90492  0.03018  0.42335  1.0000
  N   N12       1.0  0.09508  0.46982  0.92335  1.0000
  Cl  Cl1       1.0  0.71303  0.40254  0.51194  1.0000
  Cl  Cl2       1.0  0.28697  0.09746  0.01194  1.0000
  Cl  Cl3       1.0  0.28697  0.59746  0.48806  1.0000
  Cl  Cl4       1.0  0.71303  0.90254  0.98806  1.0000
  Cl  Cl5       1.0  0.57750  0.68914  0.66195  1.0000
  Cl  Cl6       1.0  0.42250  0.81086  0.16195  1.0000
  Cl  Cl7       1.0  0.42250  0.31086  0.33805  1.0000
  Cl  Cl8       1.0  0.57750  0.18914  0.83805  1.0000
  O   O1        1.0  0.77061  0.29927  0.66467  1.0000
  O   O2        1.0  0.22938  0.20073  0.16467  1.0000
  O   O3        1.0  0.22938  0.70073  0.33533  1.0000
  O   O4        1.0  0.77061  0.79927  0.83533  1.0000
