data_image0
_chemical_formula_structural       Hg4P4H48C24N12Cl8O4
_chemical_formula_sum              "Hg4 P4 H48 C24 N12 Cl8 O4"
_cell_length_a       7.31801
_cell_length_b       7.3024
_cell_length_c       21.0889
_cell_angle_alpha    90
_cell_angle_beta     90
_cell_angle_gamma    103.162

_space_group_name_H-M_alt    "P 1"
_space_group_IT_number       1

loop_
  _space_group_symop_operation_xyz
  'x, y, z'

loop_
  _atom_site_type_symbol
  _atom_site_label
  _atom_site_symmetry_multiplicity
  _atom_site_fract_x
  _atom_site_fract_y
  _atom_site_fract_z
  _atom_site_occupancy
  Hg  Hg1       1.0  0.43551  0.53159  0.59546  1.0000
  Hg  Hg2       1.0  0.56449  0.96841  0.09546  1.0000
  Hg  Hg3       1.0  0.56449  0.46841  0.40454  1.0000
  Hg  Hg4       1.0  0.43551  0.03160  0.90454  1.0000
  P   P1        1.0  0.10445  0.80855  0.65143  1.0000
  P   P2        1.0  0.89553  0.69146  0.15143  1.0000
  P   P3        1.0  0.89555  0.19145  0.34857  1.0000
  P   P4        1.0  0.10445  0.30855  0.84857  1.0000
  H   H1        1.0  0.89003  0.56521  0.59193  1.0000
  H   H2        1.0  0.10997  0.93479  0.09193  1.0000
  H   H3        1.0  0.10997  0.43479  0.40807  1.0000
  H   H4        1.0  0.89004  0.06521  0.90807  1.0000
  H   H5        1.0  0.83108  0.55693  0.67430  1.0000
  H   H6        1.0  0.16892  0.94307  0.17430  1.0000
  H   H7        1.0  0.16892  0.44307  0.32570  1.0000
  H   H8        1.0  0.83108  0.05693  0.82570  1.0000
  H   H9        1.0  0.25080  0.08237  0.58936  1.0000
  H   H10       1.0  0.74919  0.41763  0.08936  1.0000
  H   H11       1.0  0.74920  0.91763  0.41064  1.0000
  H   H12       1.0  0.25081  0.58237  0.91064  1.0000
  H   H13       1.0  0.14357  0.88793  0.54004  1.0000
  H   H14       1.0  0.85643  0.61207  0.04004  1.0000
  H   H15       1.0  0.85643  0.11207  0.45996  1.0000
  H   H16       1.0  0.14357  0.38793  0.95996  1.0000
  H   H17       1.0  0.99214  0.86036  0.75573  1.0000
  H   H18       1.0  0.00786  0.63964  0.25573  1.0000
  H   H19       1.0  0.00787  0.13964  0.24427  1.0000
  H   H20       1.0  0.99214  0.36036  0.74427  1.0000
  H   H21       1.0  0.15459  0.06524  0.72799  1.0000
  H   H22       1.0  0.84541  0.43476  0.22799  1.0000
  H   H23       1.0  0.84542  0.93476  0.27201  1.0000
  H   H24       1.0  0.15459  0.56524  0.77201  1.0000
  H   H25       1.0  0.81508  0.80671  0.52550  1.0000
  H   H26       1.0  0.18492  0.69329  0.02550  1.0000
  H   H27       1.0  0.18492  0.19329  0.47450  1.0000
  H   H28       1.0  0.81508  0.30671  0.97450  1.0000
  H   H29       1.0  0.67047  0.95491  0.55596  1.0000
  H   H30       1.0  0.32953  0.54510  0.05596  1.0000
  H   H31       1.0  0.32953  0.04509  0.44404  1.0000
  H   H32       1.0  0.67047  0.45490  0.94404  1.0000
  H   H33       1.0  0.05262  0.25369  0.64482  1.0000
  H   H34       1.0  0.94738  0.24631  0.14482  1.0000
  H   H35       1.0  0.94738  0.74631  0.35518  1.0000
  H   H36       1.0  0.05262  0.75369  0.85518  1.0000
  H   H37       1.0  0.80744  0.21252  0.62554  1.0000
  H   H38       1.0  0.19257  0.28748  0.12555  1.0000
  H   H39       1.0  0.19257  0.78748  0.37446  1.0000
  H   H40       1.0  0.80743  0.71252  0.87446  1.0000
  H   H41       1.0  0.67670  0.78283  0.71914  1.0000
  H   H42       1.0  0.32330  0.71718  0.21914  1.0000
  H   H43       1.0  0.32331  0.21718  0.28086  1.0000
  H   H44       1.0  0.67670  0.28282  0.78086  1.0000
  H   H45       1.0  0.59063  0.94056  0.66899  1.0000
  H   H46       1.0  0.40937  0.55944  0.16899  1.0000
  H   H47       1.0  0.40937  0.05944  0.33101  1.0000
  H   H48       1.0  0.59063  0.44055  0.83101  1.0000
  C   C1        1.0  0.87761  0.65116  0.63388  1.0000
  C   C2        1.0  0.12239  0.84884  0.13388  1.0000
  C   C3        1.0  0.12239  0.34884  0.36612  1.0000
  C   C4        1.0  0.87761  0.15116  0.86612  1.0000
  C   C5        1.0  0.12659  0.96648  0.58326  1.0000
  C   C6        1.0  0.87341  0.53352  0.08326  1.0000
  C   C7        1.0  0.87341  0.03352  0.41674  1.0000
  C   C8        1.0  0.12659  0.46648  0.91674  1.0000
  C   C9        1.0  0.03569  0.95085  0.71424  1.0000
  C   C10       1.0  0.96430  0.54915  0.21424  1.0000
  C   C11       1.0  0.96431  0.04915  0.28576  1.0000
  C   C12       1.0  0.03569  0.45085  0.78576  1.0000
  C   C13       1.0  0.78927  0.89074  0.56631  1.0000
  C   C14       1.0  0.21073  0.60926  0.06631  1.0000
  C   C15       1.0  0.21074  0.10926  0.43369  1.0000
  C   C16       1.0  0.78927  0.39074  0.93369  1.0000
  C   C17       1.0  0.92462  0.14527  0.63507  1.0000
  C   C18       1.0  0.07538  0.35473  0.13507  1.0000
  C   C19       1.0  0.07538  0.85473  0.36493  1.0000
  C   C20       1.0  0.92462  0.64527  0.86493  1.0000
  C   C21       1.0  0.71023  0.87706  0.67817  1.0000
  C   C22       1.0  0.28977  0.62294  0.17816  1.0000
  C   C23       1.0  0.28977  0.12294  0.32184  1.0000
  C   C24       1.0  0.71023  0.37706  0.82183  1.0000
  N   N1        1.0  0.73446  0.76224  0.62139  1.0000
  N   N2        1.0  0.26554  0.73776  0.12139  1.0000
  N   N3        1.0  0.26554  0.23776  0.37861  1.0000
  N   N4        1.0  0.73446  0.26224  0.87861  1.0000
  N   N5        1.0  0.95525  0.04040  0.57808  1.0000
  N   N6        1.0  0.04475  0.45960  0.07809  1.0000
  N   N7        1.0  0.04475  0.95960  0.42191  1.0000
  N   N8        1.0  0.95525  0.54040  0.92191  1.0000
  N   N9        1.0  0.87583  0.02622  0.69176  1.0000
  N   N10       1.0  0.12417  0.47378  0.19176  1.0000
  N   N11       1.0  0.12418  0.97378  0.30824  1.0000
  N   N12       1.0  0.87583  0.52622  0.80824  1.0000
  Cl  Cl1       1.0  0.31360  0.63641  0.49877  1.0000
  Cl  Cl2       1.0  0.68640  0.86360  0.99877  1.0000
  Cl  Cl3       1.0  0.68640  0.36359  0.50123  1.0000
  Cl  Cl4       1.0  0.31360  0.13641  0.00123  1.0000
  Cl  Cl5       1.0  0.46589  0.30271  0.67414  1.0000
  Cl  Cl6       1.0  0.53411  0.19729  0.17414  1.0000
  Cl  Cl7       1.0  0.53411  0.69729  0.32586  1.0000
  Cl  Cl8       1.0  0.46589  0.80271  0.82586  1.0000
  O   O1        1.0  0.26276  0.71373  0.66601  1.0000
  O   O2        1.0  0.73725  0.78627  0.16601  1.0000
  O   O3        1.0  0.73725  0.28627  0.33399  1.0000
  O   O4        1.0  0.26276  0.21373  0.83399  1.0000
