data_image0
_chemical_formula_structural       Ca2H16C12N4O12
_chemical_formula_sum              "Ca2 H16 C12 N4 O12"
_cell_length_a       5.15676
_cell_length_b       7.0596
_cell_length_c       12.7627
_cell_angle_alpha    90.0012
_cell_angle_beta     90.0007
_cell_angle_gamma    106.98

_space_group_name_H-M_alt    "P 1"
_space_group_IT_number       1

loop_
  _space_group_symop_operation_xyz
  'x, y, z'

loop_
  _atom_site_type_symbol
  _atom_site_label
  _atom_site_symmetry_multiplicity
  _atom_site_fract_x
  _atom_site_fract_y
  _atom_site_fract_z
  _atom_site_occupancy
  Ca  Ca1       1.0  1.00000  0.50000  1.00000  1.0000
  Ca  Ca2       1.0  0.00000  1.00000  0.50000  1.0000
  H   H1        1.0  0.00576  0.90885  0.86561  1.0000
  H   H2        1.0  0.99422  0.59118  0.36560  1.0000
  H   H3        1.0  0.99424  0.09117  0.13439  1.0000
  H   H4        1.0  0.00579  0.40884  0.63440  1.0000
  H   H5        1.0  0.81214  0.07446  0.88023  1.0000
  H   H6        1.0  0.18784  0.42555  0.38022  1.0000
  H   H7        1.0  0.18785  0.92555  0.11977  1.0000
  H   H8        1.0  0.81215  0.57445  0.61978  1.0000
  H   H9        1.0  0.32323  0.73946  0.78254  1.0000
  H   H10       1.0  0.67676  0.76055  0.28253  1.0000
  H   H11       1.0  0.67676  0.26055  0.21747  1.0000
  H   H12       1.0  0.32323  0.23945  0.71747  1.0000
  H   H13       1.0  0.39326  0.78201  0.64601  1.0000
  H   H14       1.0  0.60673  0.71799  0.14600  1.0000
  H   H15       1.0  0.60673  0.21799  0.35399  1.0000
  H   H16       1.0  0.39326  0.28201  0.85400  1.0000
  C   C1        1.0  0.62002  0.79068  0.94324  1.0000
  C   C2        1.0  0.37996  0.70932  0.44324  1.0000
  C   C3        1.0  0.37997  0.20932  0.05676  1.0000
  C   C4        1.0  0.62006  0.29068  0.55676  1.0000
  C   C5        1.0  0.79862  0.92001  0.86015  1.0000
  C   C6        1.0  0.20140  0.57999  0.36014  1.0000
  C   C7        1.0  0.20138  0.07999  0.13985  1.0000
  C   C8        1.0  0.79860  0.42001  0.63985  1.0000
  C   C9        1.0  0.71143  0.89090  0.74655  1.0000
  C   C10       1.0  0.28852  0.60909  0.24653  1.0000
  C   C11       1.0  0.28857  0.10911  0.25345  1.0000
  C   C12       1.0  0.71147  0.39091  0.75347  1.0000
  N   N1        1.0  0.45777  0.79081  0.72303  1.0000
  N   N2        1.0  0.54224  0.70920  0.22302  1.0000
  N   N3        1.0  0.54221  0.20919  0.27698  1.0000
  N   N4        1.0  0.45776  0.29081  0.77697  1.0000
  O   O1        1.0  0.73886  0.71977  0.01437  1.0000
  O   O2        1.0  0.26117  0.78024  0.51435  1.0000
  O   O3        1.0  0.26116  0.28023  0.98564  1.0000
  O   O4        1.0  0.73887  0.21976  0.48564  1.0000
  O   O5        1.0  0.36573  0.76311  0.93962  1.0000
  O   O6        1.0  0.63429  0.73688  0.43962  1.0000
  O   O7        1.0  0.63429  0.23688  0.06037  1.0000
  O   O8        1.0  0.36572  0.26311  0.56037  1.0000
  O   O9        1.0  0.88767  0.96484  0.67739  1.0000
  O   O10       1.0  0.11235  0.53516  0.17740  1.0000
  O   O11       1.0  0.11232  0.03515  0.32261  1.0000
  O   O12       1.0  0.88764  0.46483  0.82260  1.0000
