data_image0
_chemical_formula_structural       Cu4H36C28N12O16
_chemical_formula_sum              "Cu4 H36 C28 N12 O16"
_cell_length_a       7.37901
_cell_length_b       9.65776
_cell_length_c       16.1137
_cell_angle_alpha    89.9997
_cell_angle_beta     90.0003
_cell_angle_gamma    90.0001

_space_group_name_H-M_alt    "P 1"
_space_group_IT_number       1

loop_
  _space_group_symop_operation_xyz
  'x, y, z'

loop_
  _atom_site_type_symbol
  _atom_site_label
  _atom_site_symmetry_multiplicity
  _atom_site_fract_x
  _atom_site_fract_y
  _atom_site_fract_z
  _atom_site_occupancy
  Cu  Cu1       1.0  0.74860  0.83941  0.83476  1.0000
  Cu  Cu2       1.0  0.25140  0.66059  0.33476  1.0000
  Cu  Cu3       1.0  0.75140  0.33941  0.16524  1.0000
  Cu  Cu4       1.0  0.24860  0.16059  0.66524  1.0000
  H   H1        1.0  0.70816  0.23111  0.84769  1.0000
  H   H2        1.0  0.29184  0.26888  0.34769  1.0000
  H   H3        1.0  0.79184  0.73111  0.15232  1.0000
  H   H4        1.0  0.20816  0.76889  0.65232  1.0000
  H   H5        1.0  0.60020  0.02068  0.93493  1.0000
  H   H6        1.0  0.39980  0.47932  0.43493  1.0000
  H   H7        1.0  0.89981  0.52067  0.06508  1.0000
  H   H8        1.0  0.10019  0.97933  0.56508  1.0000
  H   H9        1.0  0.53786  0.03287  0.83534  1.0000
  H   H10       1.0  0.46214  0.46713  0.33534  1.0000
  H   H11       1.0  0.96214  0.53287  0.16467  1.0000
  H   H12       1.0  0.03786  0.96713  0.66467  1.0000
  H   H13       1.0  0.94414  0.05563  0.96286  1.0000
  H   H14       1.0  0.05586  0.44437  0.46286  1.0000
  H   H15       1.0  0.55586  0.55563  0.03714  1.0000
  H   H16       1.0  0.44414  0.94437  0.53714  1.0000
  H   H17       1.0  0.01679  0.21651  0.92188  1.0000
  H   H18       1.0  0.98321  0.28349  0.42187  1.0000
  H   H19       1.0  0.48322  0.71651  0.07812  1.0000
  H   H20       1.0  0.51678  0.78350  0.57813  1.0000
  H   H21       1.0  0.86684  0.52120  0.87467  1.0000
  H   H22       1.0  0.13317  0.97880  0.37466  1.0000
  H   H23       1.0  0.63316  0.02119  0.12533  1.0000
  H   H24       1.0  0.36684  0.47880  0.62533  1.0000
  H   H25       1.0  0.95899  0.35778  0.75564  1.0000
  H   H26       1.0  0.04101  0.14222  0.25563  1.0000
  H   H27       1.0  0.54101  0.85777  0.24436  1.0000
  H   H28       1.0  0.45899  0.64223  0.74436  1.0000
  H   H29       1.0  0.96793  0.48511  0.61733  1.0000
  H   H30       1.0  0.03206  0.01489  0.11733  1.0000
  H   H31       1.0  0.53207  0.98509  0.38267  1.0000
  H   H32       1.0  0.46793  0.51490  0.88267  1.0000
  H   H33       1.0  0.86302  0.75641  0.65391  1.0000
  H   H34       1.0  0.13698  0.74360  0.15391  1.0000
  H   H35       1.0  0.63698  0.25640  0.34609  1.0000
  H   H36       1.0  0.36302  0.24360  0.84609  1.0000
  C   C1        1.0  0.89711  0.09522  0.78771  1.0000
  C   C2        1.0  0.10288  0.40478  0.28771  1.0000
  C   C3        1.0  0.60288  0.59521  0.21229  1.0000
  C   C4        1.0  0.39711  0.90479  0.71229  1.0000
  C   C5        1.0  0.77876  0.13336  0.86175  1.0000
  C   C6        1.0  0.22124  0.36664  0.36175  1.0000
  C   C7        1.0  0.72124  0.63335  0.13825  1.0000
  C   C8        1.0  0.27876  0.86665  0.63825  1.0000
  C   C9        1.0  0.89606  0.15564  0.93862  1.0000
  C   C10       1.0  0.10394  0.34436  0.43862  1.0000
  C   C11       1.0  0.60395  0.65563  0.06139  1.0000
  C   C12       1.0  0.39605  0.84437  0.56138  1.0000
  C   C13       1.0  0.79601  0.23507  0.00723  1.0000
  C   C14       1.0  0.20399  0.26492  0.50723  1.0000
  C   C15       1.0  0.70399  0.73506  0.99277  1.0000
  C   C16       1.0  0.29601  0.76493  0.49277  1.0000
  C   C17       1.0  0.88231  0.55092  0.81023  1.0000
  C   C18       1.0  0.11768  0.94908  0.31023  1.0000
  C   C19       1.0  0.61768  0.05092  0.18977  1.0000
  C   C20       1.0  0.38232  0.44908  0.68977  1.0000
  C   C21       1.0  0.93064  0.53491  0.67513  1.0000
  C   C22       1.0  0.06935  0.96509  0.17513  1.0000
  C   C23       1.0  0.56936  0.03490  0.32487  1.0000
  C   C24       1.0  0.43064  0.46509  0.82487  1.0000
  C   C25       1.0  0.88106  0.66822  0.69451  1.0000
  C   C26       1.0  0.11894  0.83178  0.19451  1.0000
  C   C27       1.0  0.61894  0.16821  0.30549  1.0000
  C   C28       1.0  0.38106  0.33179  0.80549  1.0000
  N   N1        1.0  0.64663  0.02098  0.87528  1.0000
  N   N2        1.0  0.35337  0.47902  0.37528  1.0000
  N   N3        1.0  0.85337  0.52098  0.12472  1.0000
  N   N4        1.0  0.14663  0.97902  0.62472  1.0000
  N   N5        1.0  0.85154  0.67692  0.77920  1.0000
  N   N6        1.0  0.14847  0.82308  0.27920  1.0000
  N   N7        1.0  0.64846  0.17692  0.22080  1.0000
  N   N8        1.0  0.35154  0.32308  0.72080  1.0000
  N   N9        1.0  0.93070  0.46321  0.74897  1.0000
  N   N10       1.0  0.06930  0.03679  0.24896  1.0000
  N   N11       1.0  0.56930  0.96320  0.25103  1.0000
  N   N12       1.0  0.43070  0.53680  0.75103  1.0000
  O   O1        1.0  0.99551  0.18718  0.75581  1.0000
  O   O2        1.0  0.00449  0.31282  0.25581  1.0000
  O   O3        1.0  0.50448  0.68716  0.24419  1.0000
  O   O4        1.0  0.49552  0.81284  0.74419  1.0000
  O   O5        1.0  0.89358  0.96898  0.76202  1.0000
  O   O6        1.0  0.10641  0.53102  0.26202  1.0000
  O   O7        1.0  0.60641  0.46898  0.23798  1.0000
  O   O8        1.0  0.39359  0.03102  0.73798  1.0000
  O   O9        1.0  0.87574  0.22812  0.07882  1.0000
  O   O10       1.0  0.12426  0.27188  0.57882  1.0000
  O   O11       1.0  0.62427  0.72813  0.92118  1.0000
  O   O12       1.0  0.37575  0.77186  0.42118  1.0000
  O   O13       1.0  0.65375  0.30050  0.99210  1.0000
  O   O14       1.0  0.34625  0.19949  0.49211  1.0000
  O   O15       1.0  0.84625  0.80051  0.00789  1.0000
  O   O16       1.0  0.15375  0.69950  0.50789  1.0000
