data_image0
_chemical_formula_structural       Ag2H22C20S2N6O6
_chemical_formula_sum              "Ag2 H22 C20 S2 N6 O6"
_cell_length_a       4.60628
_cell_length_b       10.1935
_cell_length_c       12.541
_cell_angle_alpha    84.5648
_cell_angle_beta     84.1684
_cell_angle_gamma    85.3294

_space_group_name_H-M_alt    "P 1"
_space_group_IT_number       1

loop_
  _space_group_symop_operation_xyz
  'x, y, z'

loop_
  _atom_site_type_symbol
  _atom_site_label
  _atom_site_symmetry_multiplicity
  _atom_site_fract_x
  _atom_site_fract_y
  _atom_site_fract_z
  _atom_site_occupancy
  Ag  Ag1       1.0  0.22363  0.35789  0.06881  1.0000
  Ag  Ag2       1.0  0.77635  0.64209  0.93119  1.0000
  H   H1        1.0  0.79157  0.81334  0.39428  1.0000
  H   H2        1.0  0.20846  0.18666  0.60573  1.0000
  H   H3        1.0  0.70878  0.93352  0.48881  1.0000
  H   H4        1.0  0.29124  0.06650  0.51120  1.0000
  H   H5        1.0  0.04833  0.93103  0.40985  1.0000
  H   H6        1.0  0.95171  0.06898  0.59016  1.0000
  H   H7        1.0  0.45511  0.86682  0.25448  1.0000
  H   H8        1.0  0.54494  0.13317  0.74552  1.0000
  H   H9        1.0  0.18042  0.10753  0.03133  1.0000
  H   H10       1.0  0.81958  0.89245  0.96867  1.0000
  H   H11       1.0  0.99287  0.00351  0.13429  1.0000
  H   H12       1.0  0.00715  0.99648  0.86572  1.0000
  H   H13       1.0  0.30241  0.93680  0.05884  1.0000
  H   H14       1.0  0.69760  0.06318  0.94117  1.0000
  H   H15       1.0  0.04989  0.31120  0.36036  1.0000
  H   H16       1.0  0.95007  0.68881  0.63965  1.0000
  H   H17       1.0  0.09246  0.47915  0.30735  1.0000
  H   H18       1.0  0.90751  0.52086  0.69266  1.0000
  H   H19       1.0  0.60492  0.63808  0.32829  1.0000
  H   H20       1.0  0.39502  0.36192  0.67171  1.0000
  H   H21       1.0  0.76298  0.27917  0.52937  1.0000
  H   H22       1.0  0.23699  0.72082  0.47063  1.0000
  C   C1        1.0  0.65893  0.21838  0.23843  1.0000
  C   C2        1.0  0.34108  0.78162  0.76157  1.0000
  C   C3        1.0  0.68932  0.01014  0.32365  1.0000
  C   C4        1.0  0.31069  0.98986  0.67635  1.0000
  C   C5        1.0  0.81587  0.91597  0.40848  1.0000
  C   C6        1.0  0.18413  0.08404  0.59152  1.0000
  C   C7        1.0  0.50751  0.96937  0.25261  1.0000
  C   C8        1.0  0.49253  0.03063  0.74739  1.0000
  C   C9        1.0  0.40044  0.06292  0.17424  1.0000
  C   C10       1.0  0.59960  0.93707  0.82576  1.0000
  C   C11       1.0  0.20818  0.02679  0.09454  1.0000
  C   C12       1.0  0.79185  0.97320  0.90546  1.0000
  C   C13       1.0  0.93436  0.40532  0.33458  1.0000
  C   C14       1.0  0.06561  0.59469  0.66541  1.0000
  C   C15       1.0  0.71047  0.45367  0.42002  1.0000
  C   C16       1.0  0.28947  0.54635  0.57998  1.0000
  C   C17       1.0  0.56042  0.57814  0.40419  1.0000
  C   C18       1.0  0.43952  0.42188  0.59581  1.0000
  C   C19       1.0  0.64697  0.37600  0.51652  1.0000
  C   C20       1.0  0.35298  0.62401  0.48348  1.0000
  S   S1        1.0  0.76708  0.38157  0.21235  1.0000
  S   S2        1.0  0.23291  0.61843  0.78765  1.0000
  N   N1        1.0  0.47506  0.18863  0.16821  1.0000
  N   N2        1.0  0.52495  0.81137  0.83179  1.0000
  N   N3        1.0  0.76617  0.13645  0.31623  1.0000
  N   N4        1.0  0.23385  0.86356  0.68377  1.0000
  N   N5        1.0  0.29491  0.66756  0.11939  1.0000
  N   N6        1.0  0.70510  0.33243  0.88060  1.0000
  O   O1        1.0  0.22720  0.59850  0.04525  1.0000
  O   O2        1.0  0.77284  0.40150  0.95474  1.0000
  O   O3        1.0  0.12724  0.68168  0.20290  1.0000
  O   O4        1.0  0.87275  0.31830  0.79710  1.0000
  O   O5        1.0  0.53798  0.72079  0.10443  1.0000
  O   O6        1.0  0.46202  0.27921  0.89557  1.0000
