data_image0
_chemical_formula_structural       Cd2H30C36Br2N24
_chemical_formula_sum              "Cd2 H30 C36 Br2 N24"
_cell_length_a       11.0488
_cell_length_b       10.9702
_cell_length_c       10.9702
_cell_angle_alpha    69.8024
_cell_angle_beta     64.4185
_cell_angle_gamma    64.4186

_space_group_name_H-M_alt    "P 1"
_space_group_IT_number       1

loop_
  _space_group_symop_operation_xyz
  'x, y, z'

loop_
  _atom_site_type_symbol
  _atom_site_label
  _atom_site_symmetry_multiplicity
  _atom_site_fract_x
  _atom_site_fract_y
  _atom_site_fract_z
  _atom_site_occupancy
  Cd  Cd1       1.0  0.74190  0.62949  0.36543  1.0000
  Cd  Cd2       1.0  0.24190  0.36543  0.62949  1.0000
  H   H1        1.0  0.49228  0.23806  0.78083  1.0000
  H   H2        1.0  0.99228  0.78083  0.23806  1.0000
  H   H3        1.0  0.67585  0.08599  0.97701  1.0000
  H   H4        1.0  0.17585  0.97701  0.08599  1.0000
  H   H5        1.0  0.44198  0.90450  0.44518  1.0000
  H   H6        1.0  0.94198  0.44518  0.90450  1.0000
  H   H7        1.0  0.18576  0.04472  0.51292  1.0000
  H   H8        1.0  0.68576  0.51292  0.04472  1.0000
  H   H9        1.0  0.99873  0.93562  0.61101  1.0000
  H   H10       1.0  0.49873  0.61101  0.93562  1.0000
  H   H11       1.0  0.06172  0.68312  0.65136  1.0000
  H   H12       1.0  0.56172  0.65136  0.68312  1.0000
  H   H13       1.0  0.57249  0.28507  0.48120  1.0000
  H   H14       1.0  0.07249  0.48120  0.28507  1.0000
  H   H15       1.0  0.70346  0.36831  0.40146  1.0000
  H   H16       1.0  0.20346  0.40146  0.36831  1.0000
  H   H17       1.0  0.78203  0.86978  0.46095  1.0000
  H   H18       1.0  0.28204  0.46095  0.86978  1.0000
  H   H19       1.0  0.86344  0.06206  0.42414  1.0000
  H   H20       1.0  0.36344  0.42414  0.06206  1.0000
  H   H21       1.0  0.85879  0.25086  0.21850  1.0000
  H   H22       1.0  0.35879  0.21850  0.25086  1.0000
  H   H23       1.0  0.76868  0.25586  0.04368  1.0000
  H   H24       1.0  0.26868  0.04368  0.25585  1.0000
  H   H25       1.0  0.67730  0.71628  0.10826  1.0000
  H   H26       1.0  0.17730  0.10825  0.71627  1.0000
  H   H27       1.0  0.50484  0.84284  0.13679  1.0000
  H   H28       1.0  0.00484  0.13679  0.84284  1.0000
  H   H29       1.0  0.44893  0.91097  0.90752  1.0000
  H   H30       1.0  0.94893  0.90752  0.91097  1.0000
  C   C1        1.0  0.60125  0.23636  0.73988  1.0000
  C   C2        1.0  0.10125  0.73988  0.23636  1.0000
  C   C3        1.0  0.39673  0.71317  0.50461  1.0000
  C   C4        1.0  0.89673  0.50461  0.71317  1.0000
  C   C5        1.0  0.36112  0.85567  0.48653  1.0000
  C   C6        1.0  0.86112  0.48653  0.85567  1.0000
  C   C7        1.0  0.21687  0.93338  0.52577  1.0000
  C   C8        1.0  0.71687  0.52577  0.93338  1.0000
  C   C9        1.0  0.11059  0.87173  0.58226  1.0000
  C   C10       1.0  0.61059  0.58225  0.87173  1.0000
  C   C11       1.0  0.14496  0.72974  0.60439  1.0000
  C   C12       1.0  0.64496  0.60438  0.72974  1.0000
  C   C13       1.0  0.28964  0.65061  0.56535  1.0000
  C   C14       1.0  0.78965  0.56535  0.65061  1.0000
  C   C15       1.0  0.49803  0.49137  0.51337  1.0000
  C   C16       1.0  0.99803  0.51337  0.49137  1.0000
  C   C17       1.0  0.61214  0.35497  0.49355  1.0000
  C   C18       1.0  0.11214  0.49355  0.35497  1.0000
  C   C19       1.0  0.73878  0.94994  0.26690  1.0000
  C   C20       1.0  0.23878  0.26690  0.94994  1.0000
  C   C21       1.0  0.78246  0.95056  0.36887  1.0000
  C   C22       1.0  0.28246  0.36887  0.95056  1.0000
  C   C23       1.0  0.82639  0.05978  0.34781  1.0000
  C   C24       1.0  0.32639  0.34781  0.05977  1.0000
  C   C25       1.0  0.82344  0.16712  0.23114  1.0000
  C   C26       1.0  0.32344  0.23114  0.16712  1.0000
  C   C27       1.0  0.77455  0.17066  0.13172  1.0000
  C   C28       1.0  0.27455  0.13172  0.17066  1.0000
  C   C29       1.0  0.73274  0.05992  0.15178  1.0000
  C   C30       1.0  0.23274  0.15179  0.05992  1.0000
  C   C31       1.0  0.66745  0.90257  0.13632  1.0000
  C   C32       1.0  0.16745  0.13632  0.90257  1.0000
  C   C33       1.0  0.61918  0.82753  0.08483  1.0000
  C   C34       1.0  0.11919  0.08483  0.82753  1.0000
  C   C35       1.0  0.55956  0.90527  0.86395  1.0000
  C   C36       1.0  0.05956  0.86395  0.90527  1.0000
  Br  Br1       1.0  0.89859  0.49180  0.17017  1.0000
  Br  Br2       1.0  0.39859  0.17016  0.49180  1.0000
  N   N1        1.0  0.52753  0.60939  0.47262  1.0000
  N   N2        1.0  0.02754  0.47262  0.60939  1.0000
  N   N3        1.0  0.35730  0.50966  0.57137  1.0000
  N   N4        1.0  0.85730  0.57137  0.50966  1.0000
  N   N5        1.0  0.66775  0.28665  0.60887  1.0000
  N   N6        1.0  0.16775  0.60887  0.28665  1.0000
  N   N7        1.0  0.69116  0.18590  0.80894  1.0000
  N   N8        1.0  0.19116  0.80894  0.18590  1.0000
  N   N9        1.0  0.81554  0.20531  0.71656  1.0000
  N   N10       1.0  0.31554  0.71656  0.20531  1.0000
  N   N11       1.0  0.69885  0.85239  0.25278  1.0000
  N   N12       1.0  0.19885  0.25278  0.85239  1.0000
  N   N13       1.0  0.68478  0.02716  0.07332  1.0000
  N   N14       1.0  0.18478  0.07332  0.02716  1.0000
  N   N15       1.0  0.64578  0.86930  0.93718  1.0000
  N   N16       1.0  0.14578  0.93718  0.86930  1.0000
  N   N17       1.0  0.77796  0.86564  0.84732  1.0000
  N   N18       1.0  0.27796  0.84732  0.86564  1.0000
  N   N19       1.0  0.76897  0.90074  0.72459  1.0000
  N   N20       1.0  0.26897  0.72459  0.90074  1.0000
  N   N21       1.0  0.63458  0.92609  0.73096  1.0000
  N   N22       1.0  0.13458  0.73096  0.92609  1.0000
  N   N23       1.0  0.80282  0.26627  0.59579  1.0000
  N   N24       1.0  0.30282  0.59579  0.26627  1.0000
