data_image0
_chemical_formula_structural       Cd2H20C28S8N4O10
_chemical_formula_sum              "Cd2 H20 C28 S8 N4 O10"
_cell_length_a       7.5937
_cell_length_b       7.59368
_cell_length_c       16.5396
_cell_angle_alpha    81.5888
_cell_angle_beta     81.5888
_cell_angle_gamma    71.4468

_space_group_name_H-M_alt    "P 1"
_space_group_IT_number       1

loop_
  _space_group_symop_operation_xyz
  'x, y, z'

loop_
  _atom_site_type_symbol
  _atom_site_label
  _atom_site_symmetry_multiplicity
  _atom_site_fract_x
  _atom_site_fract_y
  _atom_site_fract_z
  _atom_site_occupancy
  Cd  Cd1       1.0  0.12678  0.87323  0.75000  1.0000
  Cd  Cd2       1.0  0.87321  0.12678  0.25000  1.0000
  H   H1        1.0  0.83534  0.26814  0.47851  1.0000
  H   H2        1.0  0.73188  0.16465  0.02149  1.0000
  H   H3        1.0  0.16466  0.73187  0.52148  1.0000
  H   H4        1.0  0.26813  0.83533  0.97852  1.0000
  H   H5        1.0  0.64823  0.56997  0.40667  1.0000
  H   H6        1.0  0.43006  0.35176  0.09334  1.0000
  H   H7        1.0  0.35175  0.43004  0.59333  1.0000
  H   H8        1.0  0.56996  0.64824  0.90667  1.0000
  H   H9        1.0  0.56123  0.86189  0.47065  1.0000
  H   H10       1.0  0.13814  0.43876  0.02936  1.0000
  H   H11       1.0  0.43875  0.13812  0.52935  1.0000
  H   H12       1.0  0.86188  0.56124  0.97065  1.0000
  H   H13       1.0  0.65666  0.86548  0.60970  1.0000
  H   H14       1.0  0.13453  0.34334  0.89031  1.0000
  H   H15       1.0  0.34334  0.13452  0.39030  1.0000
  H   H16       1.0  0.86548  0.65666  0.10970  1.0000
  H   H17       1.0  0.38730  0.49565  0.73657  1.0000
  H   H18       1.0  0.50434  0.61269  0.76343  1.0000
  H   H19       1.0  0.61268  0.50435  0.26343  1.0000
  H   H20       1.0  0.49565  0.38730  0.23656  1.0000
  C   C1        1.0  0.96007  0.24234  0.63759  1.0000
  C   C2        1.0  0.75767  0.03992  0.86241  1.0000
  C   C3        1.0  0.03992  0.75767  0.36240  1.0000
  C   C4        1.0  0.24234  0.96008  0.13760  1.0000
  C   C5        1.0  0.85037  0.39995  0.58298  1.0000
  C   C6        1.0  0.60006  0.14962  0.91702  1.0000
  C   C7        1.0  0.14963  0.60005  0.41700  1.0000
  C   C8        1.0  0.39995  0.85038  0.08299  1.0000
  C   C9        1.0  0.79642  0.39856  0.50627  1.0000
  C   C10       1.0  0.60146  0.20357  0.99373  1.0000
  C   C11       1.0  0.20357  0.60145  0.49372  1.0000
  C   C12       1.0  0.39855  0.79642  0.00628  1.0000
  C   C13       1.0  0.69169  0.56689  0.46678  1.0000
  C   C14       1.0  0.43314  0.30830  0.03323  1.0000
  C   C15       1.0  0.30831  0.43312  0.53321  1.0000
  C   C16       1.0  0.56688  0.69169  0.96678  1.0000
  C   C17       1.0  0.64186  0.73311  0.50341  1.0000
  C   C18       1.0  0.26692  0.35812  0.99660  1.0000
  C   C19       1.0  0.35813  0.26690  0.49659  1.0000
  C   C20       1.0  0.73310  0.64187  0.00341  1.0000
  C   C21       1.0  0.69465  0.73649  0.58081  1.0000
  C   C22       1.0  0.26352  0.30535  0.91919  1.0000
  C   C23       1.0  0.30535  0.26352  0.41918  1.0000
  C   C24       1.0  0.73649  0.69465  0.08082  1.0000
  C   C25       1.0  0.79835  0.56772  0.61876  1.0000
  C   C26       1.0  0.43229  0.20164  0.88125  1.0000
  C   C27       1.0  0.20165  0.43228  0.38124  1.0000
  C   C28       1.0  0.56772  0.79836  0.11876  1.0000
  S   S1        1.0  0.04154  0.02121  0.61023  1.0000
  S   S2        1.0  0.97879  0.95844  0.88976  1.0000
  S   S3        1.0  0.95844  0.97879  0.38976  1.0000
  S   S4        1.0  0.02121  0.04155  0.11024  1.0000
  S   S5        1.0  0.88937  0.51172  0.71564  1.0000
  S   S6        1.0  0.48828  0.11063  0.78436  1.0000
  S   S7        1.0  0.11063  0.48828  0.28435  1.0000
  S   S8        1.0  0.51173  0.88937  0.21564  1.0000
  N   N1        1.0  0.98765  0.28701  0.70826  1.0000
  N   N2        1.0  0.71299  0.01234  0.79174  1.0000
  N   N3        1.0  0.01233  0.71300  0.29174  1.0000
  N   N4        1.0  0.28700  0.98766  0.20827  1.0000
  O   O1        1.0  0.74090  0.54013  0.78358  1.0000
  O   O2        1.0  0.45987  0.25909  0.71642  1.0000
  O   O3        1.0  0.25909  0.45989  0.21641  1.0000
  O   O4        1.0  0.54014  0.74089  0.28358  1.0000
  O   O5        1.0  0.03379  0.59774  0.71889  1.0000
  O   O6        1.0  0.40225  0.96621  0.78111  1.0000
  O   O7        1.0  0.96622  0.40225  0.28110  1.0000
  O   O8        1.0  0.59774  0.03379  0.21890  1.0000
  O   O9        1.0  0.37984  0.62016  0.75000  1.0000
  O   O10       1.0  0.62015  0.37985  0.25000  1.0000
