data_image0
_chemical_formula_structural       Cd2H24C18S2N12O12
_chemical_formula_sum              "Cd2 H24 C18 S2 N12 O12"
_cell_length_a       7.64736
_cell_length_b       8.40918
_cell_length_c       12.8707
_cell_angle_alpha    72.367
_cell_angle_beta     86.1248
_cell_angle_gamma    68.6561

_space_group_name_H-M_alt    "P 1"
_space_group_IT_number       1

loop_
  _space_group_symop_operation_xyz
  'x, y, z'

loop_
  _atom_site_type_symbol
  _atom_site_label
  _atom_site_symmetry_multiplicity
  _atom_site_fract_x
  _atom_site_fract_y
  _atom_site_fract_z
  _atom_site_occupancy
  Cd  Cd1       1.0  0.18707  0.95325  0.67811  1.0000
  Cd  Cd2       1.0  0.81292  0.04675  0.32189  1.0000
  H   H1        1.0  0.04205  0.24166  0.00828  1.0000
  H   H2        1.0  0.95796  0.75834  0.99171  1.0000
  H   H3        1.0  0.14381  0.56439  0.63985  1.0000
  H   H4        1.0  0.85618  0.43562  0.36014  1.0000
  H   H5        1.0  0.59064  0.81949  0.66270  1.0000
  H   H6        1.0  0.40935  0.18051  0.33730  1.0000
  H   H7        1.0  0.48093  0.71498  0.62818  1.0000
  H   H8        1.0  0.51907  0.28502  0.37182  1.0000
  H   H9        1.0  0.22132  0.18068  0.49362  1.0000
  H   H10       1.0  0.77868  0.81934  0.50638  1.0000
  H   H11       1.0  0.34235  0.21416  0.57588  1.0000
  H   H12       1.0  0.65765  0.78586  0.42412  1.0000
  H   H13       1.0  0.29526  0.97506  0.18249  1.0000
  H   H14       1.0  0.70475  0.02494  0.81750  1.0000
  H   H15       1.0  0.54870  0.67865  0.21896  1.0000
  H   H16       1.0  0.45130  0.32134  0.78104  1.0000
  H   H17       1.0  0.65566  0.53375  0.07079  1.0000
  H   H18       1.0  0.34434  0.46622  0.92921  1.0000
  H   H19       1.0  0.50771  0.68226  0.88337  1.0000
  H   H20       1.0  0.49228  0.31772  0.11663  1.0000
  H   H21       1.0  0.97058  0.32014  0.69762  1.0000
  H   H22       1.0  0.02943  0.67986  0.30237  1.0000
  H   H23       1.0  0.80740  0.35128  0.80153  1.0000
  H   H24       1.0  0.19261  0.64872  0.19847  1.0000
  C   C1        1.0  0.08665  0.58206  0.71687  1.0000
  C   C2        1.0  0.91335  0.41794  0.28313  1.0000
  C   C3        1.0  0.25661  0.99212  0.01290  1.0000
  C   C4        1.0  0.74340  0.00787  0.98710  1.0000
  C   C5        1.0  0.34069  0.91258  0.11792  1.0000
  C   C6        1.0  0.65932  0.08741  0.88208  1.0000
  C   C7        1.0  0.48363  0.74546  0.13686  1.0000
  C   C8        1.0  0.51637  0.25454  0.86314  1.0000
  C   C9        1.0  0.54253  0.66373  0.05328  1.0000
  C   C10       1.0  0.45747  0.33626  0.94672  1.0000
  C   C11       1.0  0.45963  0.74419  0.94821  1.0000
  C   C12       1.0  0.54036  0.25581  0.05179  1.0000
  C   C13       1.0  0.31367  0.91075  0.92859  1.0000
  C   C14       1.0  0.68632  0.08924  0.07141  1.0000
  C   C15       1.0  0.08916  0.16850  0.85930  1.0000
  C   C16       1.0  0.91085  0.83149  0.14070  1.0000
  C   C17       1.0  0.95385  0.33154  0.78052  1.0000
  C   C18       1.0  0.04616  0.66845  0.21948  1.0000
  S   S1        1.0  0.72845  0.10867  0.58328  1.0000
  S   S2        1.0  0.27155  0.89135  0.41672  1.0000
  N   N1        1.0  0.20602  0.02504  0.83376  1.0000
  N   N2        1.0  0.79398  0.97495  0.16623  1.0000
  N   N3        1.0  0.11350  0.15326  0.96611  1.0000
  N   N4        1.0  0.88651  0.84673  0.03389  1.0000
  N   N5        1.0  0.98893  0.49038  0.78275  1.0000
  N   N6        1.0  0.01108  0.50962  0.21725  1.0000
  N   N7        1.0  0.09669  0.70113  0.76206  1.0000
  N   N8        1.0  0.90330  0.29887  0.23793  1.0000
  N   N9        1.0  0.00316  0.68056  0.85574  1.0000
  N   N10       1.0  0.99684  0.31944  0.14426  1.0000
  N   N11       1.0  0.93750  0.55392  0.86920  1.0000
  N   N12       1.0  0.06250  0.44608  0.13080  1.0000
  O   O1        1.0  0.86944  0.11426  0.65510  1.0000
  O   O2        1.0  0.13056  0.88575  0.34490  1.0000
  O   O3        1.0  0.53959  0.22367  0.60445  1.0000
  O   O4        1.0  0.46041  0.77635  0.39555  1.0000
  O   O5        1.0  0.73968  0.91824  0.60747  1.0000
  O   O6        1.0  0.26031  0.08178  0.39254  1.0000
  O   O7        1.0  0.77164  0.17527  0.46627  1.0000
  O   O8        1.0  0.22835  0.82474  0.53373  1.0000
  O   O9        1.0  0.50694  0.74866  0.69046  1.0000
  O   O10       1.0  0.49305  0.25134  0.30954  1.0000
  O   O11       1.0  0.21467  0.21237  0.56286  1.0000
  O   O12       1.0  0.78532  0.78764  0.43715  1.0000
