data_image0
_chemical_formula_structural       Cd2H16C22S4N16
_chemical_formula_sum              "Cd2 H16 C22 S4 N16"
_cell_length_a       8.25692
_cell_length_b       8.4709
_cell_length_c       10.7602
_cell_angle_alpha    92.5213
_cell_angle_beta     94.813
_cell_angle_gamma    101.129

_space_group_name_H-M_alt    "P 1"
_space_group_IT_number       1

loop_
  _space_group_symop_operation_xyz
  'x, y, z'

loop_
  _atom_site_type_symbol
  _atom_site_label
  _atom_site_symmetry_multiplicity
  _atom_site_fract_x
  _atom_site_fract_y
  _atom_site_fract_z
  _atom_site_occupancy
  Cd  Cd1       1.0  0.26972  0.25946  0.13570  1.0000
  Cd  Cd2       1.0  0.73028  0.74053  0.86430  1.0000
  H   H1        1.0  0.72054  0.41316  0.54895  1.0000
  H   H2        1.0  0.27946  0.58685  0.45105  1.0000
  H   H3        1.0  0.82707  0.25195  0.15710  1.0000
  H   H4        1.0  0.17293  0.74805  0.84290  1.0000
  H   H5        1.0  0.57965  0.19981  0.72977  1.0000
  H   H6        1.0  0.42035  0.80019  0.27024  1.0000
  H   H7        1.0  0.32442  0.99811  0.75430  1.0000
  H   H8        1.0  0.67559  0.00189  0.24570  1.0000
  H   H9        1.0  0.10828  0.91245  0.57572  1.0000
  H   H10       1.0  0.89172  0.08755  0.42428  1.0000
  H   H11       1.0  0.14033  0.02821  0.36840  1.0000
  H   H12       1.0  0.85967  0.97179  0.63160  1.0000
  H   H13       1.0  0.61578  0.46827  0.19756  1.0000
  H   H14       1.0  0.38422  0.53173  0.80244  1.0000
  H   H15       1.0  0.68592  0.60599  0.32854  1.0000
  H   H16       1.0  0.31408  0.39402  0.67146  1.0000
  C   C1        1.0  0.90126  0.33951  0.22636  1.0000
  C   C2        1.0  0.09874  0.66050  0.77364  1.0000
  C   C3        1.0  0.49677  0.23213  0.53696  1.0000
  C   C4        1.0  0.50323  0.76788  0.46304  1.0000
  C   C5        1.0  0.48333  0.16498  0.65280  1.0000
  C   C6        1.0  0.51667  0.83502  0.34721  1.0000
  C   C7        1.0  0.34024  0.05106  0.66451  1.0000
  C   C8        1.0  0.65976  0.94894  0.33549  1.0000
  C   C9        1.0  0.21757  0.00353  0.56340  1.0000
  C   C10       1.0  0.78244  0.99647  0.43660  1.0000
  C   C11       1.0  0.23278  0.06843  0.44729  1.0000
  C   C12       1.0  0.76722  0.93157  0.55271  1.0000
  C   C13       1.0  0.37465  0.18517  0.43444  1.0000
  C   C14       1.0  0.62536  0.81483  0.56556  1.0000
  C   C15       1.0  0.57118  0.36580  0.37180  1.0000
  C   C16       1.0  0.42881  0.63420  0.62820  1.0000
  C   C17       1.0  0.67364  0.48006  0.29363  1.0000
  C   C18       1.0  0.32636  0.51995  0.70637  1.0000
  C   C19       1.0  0.58886  0.35483  0.94581  1.0000
  C   C20       1.0  0.41114  0.64517  0.05418  1.0000
  C   C21       1.0  0.95211  0.12373  0.89133  1.0000
  C   C22       1.0  0.04790  0.87629  0.10867  1.0000
  S   S1        1.0  0.52915  0.18869  0.01500  1.0000
  S   S2        1.0  0.47085  0.81131  0.98500  1.0000
  S   S3        1.0  0.05709  0.30386  0.93395  1.0000
  S   S4        1.0  0.94290  0.69613  0.06604  1.0000
  N   N1        1.0  0.42615  0.27046  0.33212  1.0000
  N   N2        1.0  0.57385  0.72954  0.66789  1.0000
  N   N3        1.0  0.61788  0.34764  0.49396  1.0000
  N   N4        1.0  0.38212  0.65237  0.50604  1.0000
  N   N5        1.0  0.84209  0.45060  0.29286  1.0000
  N   N6        1.0  0.15791  0.54941  0.70714  1.0000
  N   N7        1.0  0.06317  0.36193  0.25782  1.0000
  N   N8        1.0  0.93683  0.63807  0.74218  1.0000
  N   N9        1.0  0.10037  0.48893  0.34362  1.0000
  N   N10       1.0  0.89963  0.51108  0.65638  1.0000
  N   N11       1.0  0.63366  0.47039  0.89045  1.0000
  N   N12       1.0  0.36634  0.52960  0.10954  1.0000
  N   N13       1.0  0.87376  0.99443  0.85787  1.0000
  N   N14       1.0  0.12622  0.00554  0.14212  1.0000
  N   N15       1.0  0.96865  0.54393  0.36546  1.0000
  N   N16       1.0  0.03135  0.45607  0.63455  1.0000
