data_image0
_chemical_formula_structural       Sm4H32C28N4O32
_chemical_formula_sum              "Sm4 H32 C28 N4 O32"
_cell_length_a       7.71406
_cell_length_b       9.20478
_cell_length_c       15.5009
_cell_angle_alpha    100.996
_cell_angle_beta     89.9997
_cell_angle_gamma    89.9996

_space_group_name_H-M_alt    "P 1"
_space_group_IT_number       1

loop_
  _space_group_symop_operation_xyz
  'x, y, z'

loop_
  _atom_site_type_symbol
  _atom_site_label
  _atom_site_symmetry_multiplicity
  _atom_site_fract_x
  _atom_site_fract_y
  _atom_site_fract_z
  _atom_site_occupancy
  Sm  Sm1       1.0  0.82430  0.98920  0.74757  1.0000
  Sm  Sm2       1.0  0.32430  0.51080  0.75243  1.0000
  Sm  Sm3       1.0  0.17570  0.01079  0.25242  1.0000
  Sm  Sm4       1.0  0.67570  0.48921  0.24757  1.0000
  H   H1        1.0  0.07782  0.14729  0.89832  1.0000
  H   H2        1.0  0.57783  0.35271  0.60168  1.0000
  H   H3        1.0  0.92218  0.85271  0.10168  1.0000
  H   H4        1.0  0.42218  0.64730  0.39832  1.0000
  H   H5        1.0  0.11994  0.18012  0.80110  1.0000
  H   H6        1.0  0.61995  0.31988  0.69891  1.0000
  H   H7        1.0  0.88004  0.81990  0.19891  1.0000
  H   H8        1.0  0.38005  0.68011  0.30109  1.0000
  H   H9        1.0  0.54597  0.98006  0.58989  1.0000
  H   H10       1.0  0.04599  0.51996  0.91012  1.0000
  H   H11       1.0  0.45403  0.01990  0.41010  1.0000
  H   H12       1.0  0.95401  0.48006  0.08989  1.0000
  H   H13       1.0  0.68504  0.09117  0.56731  1.0000
  H   H14       1.0  0.18505  0.40883  0.93270  1.0000
  H   H15       1.0  0.31496  0.90882  0.43270  1.0000
  H   H16       1.0  0.81495  0.59118  0.06731  1.0000
  H   H17       1.0  0.49631  0.84318  0.78774  1.0000
  H   H18       1.0  0.99631  0.65681  0.71226  1.0000
  H   H19       1.0  0.50370  0.15680  0.21227  1.0000
  H   H20       1.0  0.00369  0.34320  0.28774  1.0000
  H   H21       1.0  0.48695  0.81940  0.68752  1.0000
  H   H22       1.0  0.98696  0.68059  0.81248  1.0000
  H   H23       1.0  0.51305  0.18059  0.31249  1.0000
  H   H24       1.0  0.01305  0.31941  0.18752  1.0000
  H   H25       1.0  0.50860  0.38268  0.01525  1.0000
  H   H26       1.0  0.00861  0.11733  0.48475  1.0000
  H   H27       1.0  0.49138  0.61734  0.98475  1.0000
  H   H28       1.0  0.99139  0.88267  0.51525  1.0000
  H   H29       1.0  0.73092  0.01029  0.10778  1.0000
  H   H30       1.0  0.23095  0.48971  0.39221  1.0000
  H   H31       1.0  0.26907  0.98972  0.89223  1.0000
  H   H32       1.0  0.76908  0.51027  0.60778  1.0000
  C   C1        1.0  0.62479  0.20908  0.91961  1.0000
  C   C2        1.0  0.12479  0.29091  0.58039  1.0000
  C   C3        1.0  0.37521  0.79091  0.08040  1.0000
  C   C4        1.0  0.87521  0.70908  0.41960  1.0000
  C   C5        1.0  0.57461  0.27636  0.00345  1.0000
  C   C6        1.0  0.07462  0.22364  0.49656  1.0000
  C   C7        1.0  0.42537  0.72363  0.99656  1.0000
  C   C8        1.0  0.92538  0.77637  0.50343  1.0000
  C   C9        1.0  0.61636  0.20725  0.07469  1.0000
  C   C10       1.0  0.11637  0.29275  0.42531  1.0000
  C   C11       1.0  0.38365  0.79275  0.92532  1.0000
  C   C12       1.0  0.88366  0.70725  0.57468  1.0000
  C   C13       1.0  0.69830  0.06708  0.05452  1.0000
  C   C14       1.0  0.19832  0.43291  0.44547  1.0000
  C   C15       1.0  0.30169  0.93293  0.94548  1.0000
  C   C16       1.0  0.80170  0.56708  0.55452  1.0000
  C   C17       1.0  0.74176  0.00749  0.96804  1.0000
  C   C18       1.0  0.24178  0.49251  0.53196  1.0000
  C   C19       1.0  0.25821  0.99254  0.03197  1.0000
  C   C20       1.0  0.75824  0.50748  0.46803  1.0000
  C   C21       1.0  0.59710  0.28153  0.84203  1.0000
  C   C22       1.0  0.09709  0.21847  0.65798  1.0000
  C   C23       1.0  0.40291  0.71846  0.15798  1.0000
  C   C24       1.0  0.90289  0.78154  0.34202  1.0000
  C   C25       1.0  0.83595  0.86140  0.94015  1.0000
  C   C26       1.0  0.33596  0.63862  0.55985  1.0000
  C   C27       1.0  0.16405  0.13864  0.05986  1.0000
  C   C28       1.0  0.66406  0.36138  0.44015  1.0000
  N   N1        1.0  0.70739  0.07793  0.90127  1.0000
  N   N2        1.0  0.20740  0.42207  0.59872  1.0000
  N   N3        1.0  0.29262  0.92207  0.09872  1.0000
  N   N4        1.0  0.79261  0.57792  0.40126  1.0000
  O   O1        1.0  0.05941  0.11076  0.83405  1.0000
  O   O2        1.0  0.55941  0.38923  0.66595  1.0000
  O   O3        1.0  0.94059  0.88924  0.16595  1.0000
  O   O4        1.0  0.44060  0.61077  0.33405  1.0000
  O   O5        1.0  0.66560  0.01233  0.60044  1.0000
  O   O6        1.0  0.16561  0.48766  0.89956  1.0000
  O   O7        1.0  0.33439  0.98765  0.39957  1.0000
  O   O8        1.0  0.83438  0.51234  0.10043  1.0000
  O   O9        1.0  0.54042  0.88968  0.73798  1.0000
  O   O10       1.0  0.04041  0.61031  0.76201  1.0000
  O   O11       1.0  0.45959  0.11031  0.26202  1.0000
  O   O12       1.0  0.95959  0.38969  0.23798  1.0000
  O   O13       1.0  0.68114  0.22651  0.77181  1.0000
  O   O14       1.0  0.18116  0.27350  0.72819  1.0000
  O   O15       1.0  0.31881  0.77350  0.22819  1.0000
  O   O16       1.0  0.81881  0.72651  0.27181  1.0000
  O   O17       1.0  0.49641  0.39132  0.84919  1.0000
  O   O18       1.0  0.99635  0.10871  0.65080  1.0000
  O   O19       1.0  0.50362  0.60867  0.15080  1.0000
  O   O20       1.0  0.00359  0.89133  0.34920  1.0000
  O   O21       1.0  0.87282  0.82886  0.85774  1.0000
  O   O22       1.0  0.37281  0.67113  0.64227  1.0000
  O   O23       1.0  0.12721  0.17113  0.14228  1.0000
  O   O24       1.0  0.62720  0.32885  0.35773  1.0000
  O   O25       1.0  0.87431  0.78158  0.99516  1.0000
  O   O26       1.0  0.37431  0.71842  0.50483  1.0000
  O   O27       1.0  0.12569  0.21841  0.00482  1.0000
  O   O28       1.0  0.62570  0.28158  0.49516  1.0000
  O   O29       1.0  0.58074  0.27063  0.15613  1.0000
  O   O30       1.0  0.08075  0.22936  0.34387  1.0000
  O   O31       1.0  0.41925  0.72936  0.84387  1.0000
  O   O32       1.0  0.91926  0.77064  0.65613  1.0000
