data_image0
_chemical_formula_structural       Y4H32C28N4O32
_chemical_formula_sum              "Y4 H32 C28 N4 O32"
_cell_length_a       7.43198
_cell_length_b       9.15126
_cell_length_c       15.6477
_cell_angle_alpha    103.449
_cell_angle_beta     89.9991
_cell_angle_gamma    89.9978

_space_group_name_H-M_alt    "P 1"
_space_group_IT_number       1

loop_
  _space_group_symop_operation_xyz
  'x, y, z'

loop_
  _atom_site_type_symbol
  _atom_site_label
  _atom_site_symmetry_multiplicity
  _atom_site_fract_x
  _atom_site_fract_y
  _atom_site_fract_z
  _atom_site_occupancy
  Y   Y1        1.0  0.68362  0.99148  0.74894  1.0000
  Y   Y2        1.0  0.18362  0.50853  0.75106  1.0000
  Y   Y3        1.0  0.31637  0.00852  0.25106  1.0000
  Y   Y4        1.0  0.81637  0.49146  0.24893  1.0000
  H   H1        1.0  0.02148  0.82698  0.69799  1.0000
  H   H2        1.0  0.52146  0.67304  0.80201  1.0000
  H   H3        1.0  0.97852  0.17301  0.30201  1.0000
  H   H4        1.0  0.47853  0.32695  0.19799  1.0000
  H   H5        1.0  0.99903  0.83902  0.79600  1.0000
  H   H6        1.0  0.49903  0.66102  0.70400  1.0000
  H   H7        1.0  0.00098  0.16099  0.20399  1.0000
  H   H8        1.0  0.50098  0.33898  0.29600  1.0000
  H   H9        1.0  0.42926  0.15135  0.89759  1.0000
  H   H10       1.0  0.92927  0.34866  0.60241  1.0000
  H   H11       1.0  0.57074  0.84866  0.10241  1.0000
  H   H12       1.0  0.07073  0.65134  0.39759  1.0000
  H   H13       1.0  0.38431  0.18706  0.80254  1.0000
  H   H14       1.0  0.88432  0.31297  0.69747  1.0000
  H   H15       1.0  0.61568  0.81295  0.19747  1.0000
  H   H16       1.0  0.11568  0.68702  0.30252  1.0000
  H   H17       1.0  0.80004  0.01968  0.56142  1.0000
  H   H18       1.0  0.30004  0.48033  0.93859  1.0000
  H   H19       1.0  0.19994  0.98032  0.43859  1.0000
  H   H20       1.0  0.69995  0.51967  0.06141  1.0000
  H   H21       1.0  0.94100  0.89667  0.57176  1.0000
  H   H22       1.0  0.44100  0.60333  0.92824  1.0000
  H   H23       1.0  0.05898  0.10334  0.42824  1.0000
  H   H24       1.0  0.55900  0.39667  0.07177  1.0000
  H   H25       1.0  0.01521  0.38561  0.01784  1.0000
  H   H26       1.0  0.51520  0.11437  0.48216  1.0000
  H   H27       1.0  0.98480  0.61438  0.98216  1.0000
  H   H28       1.0  0.48481  0.88560  0.51784  1.0000
  H   H29       1.0  0.76178  0.02049  0.10422  1.0000
  H   H30       1.0  0.26176  0.47950  0.39578  1.0000
  H   H31       1.0  0.23823  0.97951  0.89578  1.0000
  H   H32       1.0  0.73824  0.52050  0.60422  1.0000
  C   C1        1.0  0.92113  0.27982  0.84231  1.0000
  C   C2        1.0  0.42114  0.22020  0.65768  1.0000
  C   C3        1.0  0.07887  0.72018  0.15769  1.0000
  C   C4        1.0  0.57886  0.77979  0.34232  1.0000
  C   C5        1.0  0.88755  0.21171  0.91940  1.0000
  C   C6        1.0  0.38756  0.28832  0.58059  1.0000
  C   C7        1.0  0.11245  0.78830  0.08060  1.0000
  C   C8        1.0  0.61246  0.71167  0.41941  1.0000
  C   C9        1.0  0.94057  0.28055  0.00395  1.0000
  C   C10       1.0  0.44057  0.21944  0.49605  1.0000
  C   C11       1.0  0.05944  0.71945  0.99605  1.0000
  C   C12       1.0  0.55944  0.78054  0.50394  1.0000
  C   C13       1.0  0.89016  0.21527  0.07385  1.0000
  C   C14       1.0  0.39016  0.28473  0.42615  1.0000
  C   C15       1.0  0.10984  0.78473  0.92615  1.0000
  C   C16       1.0  0.60985  0.71527  0.57385  1.0000
  C   C17       1.0  0.79971  0.07518  0.05211  1.0000
  C   C18       1.0  0.29972  0.42482  0.44789  1.0000
  C   C19       1.0  0.20028  0.92482  0.94789  1.0000
  C   C20       1.0  0.70029  0.57518  0.55211  1.0000
  C   C21       1.0  0.75550  0.01308  0.96506  1.0000
  C   C22       1.0  0.25552  0.48692  0.53494  1.0000
  C   C23       1.0  0.24450  0.98692  0.03494  1.0000
  C   C24       1.0  0.74450  0.51308  0.46506  1.0000
  C   C25       1.0  0.65268  0.86717  0.93378  1.0000
  C   C26       1.0  0.15271  0.63282  0.56621  1.0000
  C   C27       1.0  0.34732  0.13284  0.06622  1.0000
  C   C28       1.0  0.84730  0.36718  0.43379  1.0000
  N   N1        1.0  0.79554  0.08163  0.89997  1.0000
  N   N2        1.0  0.29557  0.41839  0.60003  1.0000
  N   N3        1.0  0.20446  0.91838  0.10003  1.0000
  N   N4        1.0  0.70445  0.58160  0.39996  1.0000
  O   O1        1.0  0.83158  0.22275  0.77244  1.0000
  O   O2        1.0  0.33158  0.27725  0.72756  1.0000
  O   O3        1.0  0.16843  0.77724  0.22756  1.0000
  O   O4        1.0  0.66840  0.72276  0.27244  1.0000
  O   O5        1.0  0.03090  0.38755  0.84975  1.0000
  O   O6        1.0  0.53090  0.11246  0.65025  1.0000
  O   O7        1.0  0.96909  0.61246  0.15025  1.0000
  O   O8        1.0  0.46911  0.88753  0.34974  1.0000
  O   O9        1.0  0.92630  0.28238  0.15585  1.0000
  O   O10       1.0  0.42630  0.21762  0.34416  1.0000
  O   O11       1.0  0.07368  0.71763  0.84415  1.0000
  O   O12       1.0  0.57370  0.78238  0.65584  1.0000
  O   O13       1.0  0.62208  0.83252  0.85060  1.0000
  O   O14       1.0  0.12207  0.66750  0.64940  1.0000
  O   O15       1.0  0.37791  0.16748  0.14940  1.0000
  O   O16       1.0  0.87792  0.33248  0.35061  1.0000
  O   O17       1.0  0.60160  0.78965  0.98631  1.0000
  O   O18       1.0  0.10158  0.71037  0.51371  1.0000
  O   O19       1.0  0.39842  0.21034  0.01370  1.0000
  O   O20       1.0  0.89842  0.28963  0.48629  1.0000
  O   O21       1.0  0.96505  0.89554  0.75030  1.0000
  O   O22       1.0  0.46503  0.60449  0.74969  1.0000
  O   O23       1.0  0.03495  0.10446  0.24969  1.0000
  O   O24       1.0  0.53496  0.39551  0.25031  1.0000
  O   O25       1.0  0.44088  0.11331  0.83291  1.0000
  O   O26       1.0  0.94089  0.38671  0.66709  1.0000
  O   O27       1.0  0.55912  0.88670  0.16709  1.0000
  O   O28       1.0  0.05911  0.61328  0.33291  1.0000
  O   O29       1.0  0.87027  0.98298  0.60459  1.0000
  O   O30       1.0  0.37027  0.51703  0.89541  1.0000
  O   O31       1.0  0.12973  0.01702  0.39541  1.0000
  O   O32       1.0  0.62972  0.48298  0.10459  1.0000
