data_image0
_chemical_formula_structural       Nd4H32C28N4O32
_chemical_formula_sum              "Nd4 H32 C28 N4 O32"
_cell_length_a       7.74465
_cell_length_b       9.25787
_cell_length_c       15.5497
_cell_angle_alpha    100.526
_cell_angle_beta     89.9996
_cell_angle_gamma    89.9987

_space_group_name_H-M_alt    "P 1"
_space_group_IT_number       1

loop_
  _space_group_symop_operation_xyz
  'x, y, z'

loop_
  _atom_site_type_symbol
  _atom_site_label
  _atom_site_symmetry_multiplicity
  _atom_site_fract_x
  _atom_site_fract_y
  _atom_site_fract_z
  _atom_site_occupancy
  Nd  Nd1       1.0  0.17474  0.98780  0.74652  1.0000
  Nd  Nd2       1.0  0.67473  0.51221  0.75348  1.0000
  Nd  Nd3       1.0  0.82526  0.01220  0.25348  1.0000
  Nd  Nd4       1.0  0.32527  0.48780  0.24652  1.0000
  H   H1        1.0  0.45542  0.98659  0.59054  1.0000
  H   H2        1.0  0.95539  0.51348  0.90949  1.0000
  H   H3        1.0  0.54459  0.01345  0.40947  1.0000
  H   H4        1.0  0.04461  0.48653  0.09052  1.0000
  H   H5        1.0  0.31707  0.09475  0.56525  1.0000
  H   H6        1.0  0.81706  0.40529  0.93476  1.0000
  H   H7        1.0  0.68293  0.90527  0.43475  1.0000
  H   H8        1.0  0.18295  0.59471  0.06524  1.0000
  H   H9        1.0  0.91969  0.14813  0.89788  1.0000
  H   H10       1.0  0.41968  0.35188  0.60212  1.0000
  H   H11       1.0  0.08030  0.85186  0.10212  1.0000
  H   H12       1.0  0.58032  0.64812  0.39787  1.0000
  H   H13       1.0  0.87832  0.17966  0.80058  1.0000
  H   H14       1.0  0.37831  0.32035  0.69943  1.0000
  H   H15       1.0  0.12167  0.82033  0.19941  1.0000
  H   H16       1.0  0.62169  0.67965  0.30057  1.0000
  H   H17       1.0  0.50859  0.84602  0.78642  1.0000
  H   H18       1.0  0.00859  0.65398  0.71357  1.0000
  H   H19       1.0  0.49141  0.15399  0.21358  1.0000
  H   H20       1.0  0.99141  0.34601  0.28643  1.0000
  H   H21       1.0  0.51661  0.82022  0.68615  1.0000
  H   H22       1.0  0.01661  0.67976  0.81384  1.0000
  H   H23       1.0  0.48339  0.17978  0.31385  1.0000
  H   H24       1.0  0.98340  0.32023  0.18616  1.0000
  H   H25       1.0  0.48634  0.38036  0.01479  1.0000
  H   H26       1.0  0.98636  0.11964  0.48521  1.0000
  H   H27       1.0  0.51366  0.61965  0.98521  1.0000
  H   H28       1.0  0.01364  0.88035  0.51479  1.0000
  H   H29       1.0  0.27011  0.00700  0.10724  1.0000
  H   H30       1.0  0.77013  0.49300  0.39275  1.0000
  H   H31       1.0  0.72989  0.99300  0.89276  1.0000
  H   H32       1.0  0.22988  0.50699  0.60725  1.0000
  C   C1        1.0  0.39970  0.28169  0.84284  1.0000
  C   C2        1.0  0.89971  0.21831  0.65717  1.0000
  C   C3        1.0  0.60030  0.71831  0.15717  1.0000
  C   C4        1.0  0.10030  0.78170  0.34283  1.0000
  C   C5        1.0  0.37252  0.20786  0.91984  1.0000
  C   C6        1.0  0.87253  0.29214  0.58016  1.0000
  C   C7        1.0  0.62747  0.79214  0.08016  1.0000
  C   C8        1.0  0.12747  0.70785  0.41984  1.0000
  C   C9        1.0  0.42201  0.27416  0.00326  1.0000
  C   C10       1.0  0.92202  0.22583  0.49674  1.0000
  C   C11       1.0  0.57798  0.72583  0.99674  1.0000
  C   C12       1.0  0.07797  0.77417  0.50326  1.0000
  C   C13       1.0  0.38237  0.20396  0.07420  1.0000
  C   C14       1.0  0.88240  0.29603  0.42580  1.0000
  C   C15       1.0  0.61762  0.79603  0.92580  1.0000
  C   C16       1.0  0.11761  0.70397  0.57420  1.0000
  C   C17       1.0  0.30177  0.06447  0.05424  1.0000
  C   C18       1.0  0.80179  0.43552  0.44575  1.0000
  C   C19       1.0  0.69822  0.93553  0.94576  1.0000
  C   C20       1.0  0.19822  0.56447  0.55424  1.0000
  C   C21       1.0  0.25847  0.00592  0.96825  1.0000
  C   C22       1.0  0.75848  0.49408  0.53175  1.0000
  C   C23       1.0  0.74153  0.99408  0.03175  1.0000
  C   C24       1.0  0.24152  0.50592  0.46825  1.0000
  C   C25       1.0  0.16574  0.86027  0.94119  1.0000
  C   C26       1.0  0.66574  0.63973  0.55880  1.0000
  C   C27       1.0  0.83427  0.13973  0.05880  1.0000
  C   C28       1.0  0.33425  0.36025  0.44120  1.0000
  N   N1        1.0  0.29175  0.07691  0.90164  1.0000
  N   N2        1.0  0.79175  0.42309  0.59836  1.0000
  N   N3        1.0  0.70825  0.92309  0.09836  1.0000
  N   N4        1.0  0.20825  0.57691  0.40164  1.0000
  O   O1        1.0  0.31804  0.22721  0.77245  1.0000
  O   O2        1.0  0.81804  0.27281  0.72755  1.0000
  O   O3        1.0  0.68195  0.77280  0.22755  1.0000
  O   O4        1.0  0.18199  0.72720  0.27245  1.0000
  O   O5        1.0  0.49816  0.39208  0.85062  1.0000
  O   O6        1.0  0.99815  0.10793  0.64938  1.0000
  O   O7        1.0  0.50185  0.60792  0.14938  1.0000
  O   O8        1.0  0.00184  0.89206  0.35062  1.0000
  O   O9        1.0  0.12826  0.82765  0.85930  1.0000
  O   O10       1.0  0.62823  0.67235  0.64068  1.0000
  O   O11       1.0  0.87176  0.17235  0.14069  1.0000
  O   O12       1.0  0.37175  0.32764  0.35931  1.0000
  O   O13       1.0  0.12935  0.78073  0.99651  1.0000
  O   O14       1.0  0.62936  0.71926  0.50348  1.0000
  O   O15       1.0  0.87064  0.21926  0.00349  1.0000
  O   O16       1.0  0.37064  0.28074  0.49652  1.0000
  O   O17       1.0  0.41837  0.26588  0.15520  1.0000
  O   O18       1.0  0.91839  0.23410  0.34480  1.0000
  O   O19       1.0  0.58161  0.73412  0.84481  1.0000
  O   O20       1.0  0.08162  0.76588  0.65519  1.0000
  O   O21       1.0  0.33466  0.01536  0.59812  1.0000
  O   O22       1.0  0.83466  0.48465  0.90187  1.0000
  O   O23       1.0  0.66534  0.98465  0.40187  1.0000
  O   O24       1.0  0.16534  0.51537  0.09814  1.0000
  O   O25       1.0  0.93844  0.11122  0.83411  1.0000
  O   O26       1.0  0.43843  0.38880  0.66590  1.0000
  O   O27       1.0  0.06156  0.88876  0.16588  1.0000
  O   O28       1.0  0.56158  0.61120  0.33410  1.0000
  O   O29       1.0  0.46410  0.89074  0.73604  1.0000
  O   O30       1.0  0.96409  0.60925  0.76394  1.0000
  O   O31       1.0  0.53591  0.10927  0.26395  1.0000
  O   O32       1.0  0.03592  0.39075  0.23606  1.0000
