data_image0
_chemical_formula_structural       Zn2H28C40N12O14
_chemical_formula_sum              "Zn2 H28 C40 N12 O14"
_cell_length_a       8.0697
_cell_length_b       11.241
_cell_length_c       11.4056
_cell_angle_alpha    83.007
_cell_angle_beta     87.204
_cell_angle_gamma    77.0893

_space_group_name_H-M_alt    "P 1"
_space_group_IT_number       1

loop_
  _space_group_symop_operation_xyz
  'x, y, z'

loop_
  _atom_site_type_symbol
  _atom_site_label
  _atom_site_symmetry_multiplicity
  _atom_site_fract_x
  _atom_site_fract_y
  _atom_site_fract_z
  _atom_site_occupancy
  Zn  Zn1       1.0  0.41812  0.18839  0.92836  1.0000
  Zn  Zn2       1.0  0.58188  0.81161  0.07164  1.0000
  H   H1        1.0  0.43322  0.03993  0.76660  1.0000
  H   H2        1.0  0.56678  0.96007  0.23340  1.0000
  H   H3        1.0  0.43005  0.17871  0.71125  1.0000
  H   H4        1.0  0.56994  0.82129  0.28875  1.0000
  H   H5        1.0  0.17472  0.43195  0.83289  1.0000
  H   H6        1.0  0.82528  0.56806  0.16712  1.0000
  H   H7        1.0  0.86283  0.52564  0.83921  1.0000
  H   H8        1.0  0.13717  0.47436  0.16079  1.0000
  H   H9        1.0  0.67001  0.41000  0.96501  1.0000
  H   H10       1.0  0.32999  0.59000  0.03499  1.0000
  H   H11       1.0  0.79643  0.21188  0.07961  1.0000
  H   H12       1.0  0.20356  0.78812  0.92039  1.0000
  H   H13       1.0  0.23743  0.85221  0.25509  1.0000
  H   H14       1.0  0.76257  0.14780  0.74491  1.0000
  H   H15       1.0  0.85718  0.32065  0.39094  1.0000
  H   H16       1.0  0.14282  0.67934  0.60906  1.0000
  H   H17       1.0  0.68245  0.19075  0.51228  1.0000
  H   H18       1.0  0.31755  0.80925  0.48772  1.0000
  H   H19       1.0  0.71002  0.97214  0.46782  1.0000
  H   H20       1.0  0.28998  0.02786  0.53218  1.0000
  H   H21       1.0  0.90523  0.89608  0.30352  1.0000
  H   H22       1.0  0.09477  0.10392  0.69647  1.0000
  H   H23       1.0  0.53454  0.42942  0.15712  1.0000
  H   H24       1.0  0.46546  0.57058  0.84287  1.0000
  H   H25       1.0  0.29810  0.57912  0.46892  1.0000
  H   H26       1.0  0.70189  0.42088  0.53108  1.0000
  H   H27       1.0  0.26602  0.21471  0.40265  1.0000
  H   H28       1.0  0.73398  0.78529  0.59735  1.0000
  C   C1        1.0  0.05341  0.21889  0.01785  1.0000
  C   C2        1.0  0.94659  0.78111  0.98215  1.0000
  C   C3        1.0  0.08675  0.38695  0.88691  1.0000
  C   C4        1.0  0.91325  0.61305  0.11310  1.0000
  C   C5        1.0  0.91295  0.43823  0.89113  1.0000
  C   C6        1.0  0.08705  0.56177  0.10887  1.0000
  C   C7        1.0  0.80720  0.37534  0.96178  1.0000
  C   C8        1.0  0.19280  0.62466  0.03822  1.0000
  C   C9        1.0  0.87796  0.26358  0.02651  1.0000
  C   C10       1.0  0.12204  0.73642  0.97349  1.0000
  C   C11       1.0  0.14309  0.09905  0.07270  1.0000
  C   C12       1.0  0.85691  0.90095  0.92730  1.0000
  C   C13       1.0  0.22631  0.92452  0.18175  1.0000
  C   C14       1.0  0.77369  0.07548  0.81825  1.0000
  C   C15       1.0  0.98417  0.06986  0.26690  1.0000
  C   C16       1.0  0.01583  0.93014  0.73310  1.0000
  C   C17       1.0  0.86551  0.22561  0.37545  1.0000
  C   C18       1.0  0.13450  0.77439  0.62455  1.0000
  C   C19       1.0  0.76919  0.15230  0.44328  1.0000
  C   C20       1.0  0.23081  0.84770  0.55672  1.0000
  C   C21       1.0  0.78506  0.03179  0.41875  1.0000
  C   C22       1.0  0.21494  0.96821  0.58125  1.0000
  C   C23       1.0  0.89538  0.98804  0.32778  1.0000
  C   C24       1.0  0.10463  0.01196  0.67222  1.0000
  C   C25       1.0  0.40906  0.30966  0.27347  1.0000
  C   C26       1.0  0.59093  0.69034  0.72653  1.0000
  C   C27       1.0  0.46326  0.41895  0.23982  1.0000
  C   C28       1.0  0.53674  0.58106  0.76018  1.0000
  C   C29       1.0  0.42525  0.51584  0.31007  1.0000
  C   C30       1.0  0.57474  0.48416  0.68993  1.0000
  C   C31       1.0  0.32939  0.50419  0.41435  1.0000
  C   C32       1.0  0.67060  0.49581  0.58565  1.0000
  C   C33       1.0  0.27210  0.39623  0.44490  1.0000
  C   C34       1.0  0.72790  0.60377  0.55510  1.0000
  C   C35       1.0  0.31184  0.29815  0.37722  1.0000
  C   C36       1.0  0.68816  0.70185  0.62278  1.0000
  C   C37       1.0  0.44784  0.20554  0.19696  1.0000
  C   C38       1.0  0.55216  0.79446  0.80304  1.0000
  C   C39       1.0  0.47754  0.63529  0.27106  1.0000
  C   C40       1.0  0.52246  0.36471  0.72894  1.0000
  N   N1        1.0  0.15578  0.27974  0.94866  1.0000
  N   N2        1.0  0.84422  0.72026  0.05134  1.0000
  N   N3        1.0  0.28332  0.03752  0.02296  1.0000
  N   N4        1.0  0.71668  0.96248  0.97704  1.0000
  N   N5        1.0  0.33449  0.92820  0.09149  1.0000
  N   N6        1.0  0.66551  0.07180  0.90851  1.0000
  N   N7        1.0  0.10313  0.03037  0.17377  1.0000
  N   N8        1.0  0.89687  0.96963  0.82623  1.0000
  N   N9        1.0  0.97318  0.18535  0.28824  1.0000
  N   N10       1.0  0.02682  0.81465  0.71176  1.0000
  N   N11       1.0  0.16335  0.38669  0.55075  1.0000
  N   N12       1.0  0.83665  0.61331  0.44926  1.0000
  O   O1        1.0  0.48279  0.23622  0.08813  1.0000
  O   O2        1.0  0.51721  0.76378  0.91187  1.0000
  O   O3        1.0  0.44093  0.10000  0.24566  1.0000
  O   O4        1.0  0.55908  0.90000  0.75434  1.0000
  O   O5        1.0  0.52728  0.65074  0.16314  1.0000
  O   O6        1.0  0.47272  0.34926  0.83686  1.0000
  O   O7        1.0  0.46519  0.71217  0.34550  1.0000
  O   O8        1.0  0.53481  0.28783  0.65450  1.0000
  O   O9        1.0  0.13625  0.47266  0.61351  1.0000
  O   O10       1.0  0.86375  0.52733  0.38650  1.0000
  O   O11       1.0  0.10181  0.29445  0.57220  1.0000
  O   O12       1.0  0.89820  0.70554  0.42779  1.0000
  O   O13       1.0  0.36741  0.12672  0.76645  1.0000
  O   O14       1.0  0.63259  0.87328  0.23355  1.0000
