data_image0
_chemical_formula_structural       Cu2H24C40N12O12
_chemical_formula_sum              "Cu2 H24 C40 N12 O12"
_cell_length_a       8.72278
_cell_length_b       10.5453
_cell_length_c       12.0217
_cell_angle_alpha    73.167
_cell_angle_beta     74.5801
_cell_angle_gamma    70.865

_space_group_name_H-M_alt    "P 1"
_space_group_IT_number       1

loop_
  _space_group_symop_operation_xyz
  'x, y, z'

loop_
  _atom_site_type_symbol
  _atom_site_label
  _atom_site_symmetry_multiplicity
  _atom_site_fract_x
  _atom_site_fract_y
  _atom_site_fract_z
  _atom_site_occupancy
  Cu  Cu1       1.0  0.63849  0.32743  0.44977  1.0000
  Cu  Cu2       1.0  0.36158  0.67262  0.55016  1.0000
  H   H1        1.0  0.14224  0.26626  0.60999  1.0000
  H   H2        1.0  0.85776  0.73373  0.39001  1.0000
  H   H3        1.0  0.33621  0.08932  0.50222  1.0000
  H   H4        1.0  0.66380  0.91068  0.49776  1.0000
  H   H5        1.0  0.23555  0.01773  0.35761  1.0000
  H   H6        1.0  0.76445  0.98228  0.64237  1.0000
  H   H7        1.0  0.94286  0.12189  0.33261  1.0000
  H   H8        1.0  0.05714  0.87810  0.66738  1.0000
  H   H9        1.0  0.59498  0.61241  0.73977  1.0000
  H   H10       1.0  0.40501  0.38756  0.26021  1.0000
  H   H11       1.0  0.28769  0.44847  0.71247  1.0000
  H   H12       1.0  0.71231  0.55153  0.28754  1.0000
  H   H13       1.0  0.21756  0.39384  0.93159  1.0000
  H   H14       1.0  0.78243  0.60618  0.06841  1.0000
  H   H15       1.0  0.93294  0.36076  0.03213  1.0000
  H   H16       1.0  0.06706  0.63927  0.96787  1.0000
  H   H17       1.0  0.73427  0.38978  0.90387  1.0000
  H   H18       1.0  0.26572  0.61024  0.09613  1.0000
  H   H19       1.0  0.53630  0.01402  0.34840  1.0000
  H   H20       1.0  0.46369  0.98597  0.65161  1.0000
  H   H21       1.0  0.63231  0.84397  0.04507  1.0000
  H   H22       1.0  0.36768  0.15604  0.95492  1.0000
  H   H23       1.0  0.82108  0.18332  0.02072  1.0000
  H   H24       1.0  0.17890  0.81671  0.97928  1.0000
  C   C1        1.0  0.93963  0.28529  0.52951  1.0000
  C   C2        1.0  0.06039  0.71468  0.47048  1.0000
  C   C3        1.0  0.10115  0.23066  0.54964  1.0000
  C   C4        1.0  0.89886  0.76932  0.45035  1.0000
  C   C5        1.0  0.20958  0.13266  0.48781  1.0000
  C   C6        1.0  0.79044  0.86733  0.51217  1.0000
  C   C7        1.0  0.15469  0.09332  0.40775  1.0000
  C   C8        1.0  0.84531  0.90668  0.59225  1.0000
  C   C9        1.0  0.99071  0.15107  0.39343  1.0000
  C   C10       1.0  0.00928  0.84894  0.60657  1.0000
  C   C11       1.0  0.81147  0.39303  0.57994  1.0000
  C   C12       1.0  0.18854  0.60694  0.42007  1.0000
  C   C13       1.0  0.64434  0.54652  0.67719  1.0000
  C   C14       1.0  0.35567  0.45344  0.32281  1.0000
  C   C15       1.0  0.91085  0.43539  0.74397  1.0000
  C   C16       1.0  0.08915  0.56460  0.25603  1.0000
  C   C17       1.0  0.16576  0.43593  0.75758  1.0000
  C   C18       1.0  0.83425  0.56407  0.24242  1.0000
  C   C19       1.0  0.12600  0.40430  0.88093  1.0000
  C   C20       1.0  0.87399  0.59572  0.11907  1.0000
  C   C21       1.0  0.96977  0.38741  0.93611  1.0000
  C   C22       1.0  0.03022  0.61261  0.06389  1.0000
  C   C23       1.0  0.85723  0.40402  0.86585  1.0000
  C   C24       1.0  0.14277  0.59599  0.13416  1.0000
  C   C25       1.0  0.67415  0.11427  0.19004  1.0000
  C   C26       1.0  0.32583  0.88575  0.80997  1.0000
  C   C27       1.0  0.59083  0.01531  0.25580  1.0000
  C   C28       1.0  0.40916  0.98469  0.74421  1.0000
  C   C29       1.0  0.57545  0.91733  0.20522  1.0000
  C   C30       1.0  0.42455  0.08268  0.79478  1.0000
  C   C31       1.0  0.64593  0.91761  0.08646  1.0000
  C   C32       1.0  0.35405  0.08241  0.91354  1.0000
  C   C33       1.0  0.73583  0.01233  0.02319  1.0000
  C   C34       1.0  0.26416  0.98769  0.97681  1.0000
  C   C35       1.0  0.75022  0.11126  0.07255  1.0000
  C   C36       1.0  0.24975  0.88876  0.92747  1.0000
  C   C37       1.0  0.68284  0.22325  0.24466  1.0000
  C   C38       1.0  0.31715  0.77674  0.75539  1.0000
  C   C39       1.0  0.48750  0.80911  0.28072  1.0000
  C   C40       1.0  0.51251  0.19089  0.71928  1.0000
  N   N1        1.0  0.88528  0.24358  0.45356  1.0000
  N   N2        1.0  0.11471  0.75641  0.54643  1.0000
  N   N3        1.0  0.67131  0.44627  0.53850  1.0000
  N   N4        1.0  0.32872  0.55364  0.46152  1.0000
  N   N5        1.0  0.56909  0.54058  0.59772  1.0000
  N   N6        1.0  0.43091  0.45934  0.40228  1.0000
  N   N7        1.0  0.79757  0.45607  0.66846  1.0000
  N   N8        1.0  0.20245  0.54390  0.33154  1.0000
  N   N9        1.0  0.05934  0.45162  0.68888  1.0000
  N   N10       1.0  0.94067  0.54836  0.31112  1.0000
  N   N11       1.0  0.82183  0.00547  0.90133  1.0000
  N   N12       1.0  0.17814  0.99455  0.09867  1.0000
  O   O1        1.0  0.72811  0.32615  0.18109  1.0000
  O   O2        1.0  0.27189  0.67387  0.81892  1.0000
  O   O3        1.0  0.63583  0.19970  0.35931  1.0000
  O   O4        1.0  0.36421  0.80035  0.64070  1.0000
  O   O5        1.0  0.47226  0.79645  0.39249  1.0000
  O   O6        1.0  0.52775  0.20354  0.60751  1.0000
  O   O7        1.0  0.44175  0.74341  0.22965  1.0000
  O   O8        1.0  0.55825  0.25658  0.77035  1.0000
  O   O9        1.0  0.80827  0.91566  0.85922  1.0000
  O   O10       1.0  0.19172  0.08436  0.14078  1.0000
  O   O11       1.0  0.90593  0.08721  0.84712  1.0000
  O   O12       1.0  0.09404  0.91282  0.15287  1.0000
