data_image0
_chemical_formula_structural       Cu2H24C16S2N12O10
_chemical_formula_sum              "Cu2 H24 C16 S2 N12 O10"
_cell_length_a       5.1997
_cell_length_b       6.3618
_cell_length_c       19.8407
_cell_angle_alpha    91.3656
_cell_angle_beta     85.7465
_cell_angle_gamma    91.4306

_space_group_name_H-M_alt    "P 1"
_space_group_IT_number       1

loop_
  _space_group_symop_operation_xyz
  'x, y, z'

loop_
  _atom_site_type_symbol
  _atom_site_label
  _atom_site_symmetry_multiplicity
  _atom_site_fract_x
  _atom_site_fract_y
  _atom_site_fract_z
  _atom_site_occupancy
  Cu  Cu1       1.0  0.79450  0.86004  0.74979  1.0000
  Cu  Cu2       1.0  0.20579  0.13974  0.25015  1.0000
  H   H1        1.0  0.43521  0.70538  0.48056  1.0000
  H   H2        1.0  0.55587  0.29851  0.96885  1.0000
  H   H3        1.0  0.56226  0.29528  0.51964  1.0000
  H   H4        1.0  0.44535  0.70195  0.03123  1.0000
  H   H5        1.0  0.20519  0.54863  0.58744  1.0000
  H   H6        1.0  0.79046  0.44031  0.06948  1.0000
  H   H7        1.0  0.79352  0.45139  0.41281  1.0000
  H   H8        1.0  0.21058  0.55971  0.93069  1.0000
  H   H9        1.0  0.40249  0.62878  0.69536  1.0000
  H   H10       1.0  0.58089  0.36651  0.18368  1.0000
  H   H11       1.0  0.59763  0.37050  0.30476  1.0000
  H   H12       1.0  0.41988  0.63329  0.81644  1.0000
  H   H13       1.0  0.08126  0.10019  0.63727  1.0000
  H   H14       1.0  0.92398  0.88912  0.14270  1.0000
  H   H15       1.0  0.91803  0.89948  0.36264  1.0000
  H   H16       1.0  0.07693  0.11073  0.85718  1.0000
  H   H17       1.0  0.08437  0.09120  0.54908  1.0000
  H   H18       1.0  0.90864  0.90354  0.05369  1.0000
  H   H19       1.0  0.91391  0.90917  0.45084  1.0000
  H   H20       1.0  0.09241  0.09670  0.94619  1.0000
  H   H21       1.0  0.77681  0.43375  0.73873  1.0000
  H   H22       1.0  0.22335  0.56611  0.26130  1.0000
  H   H23       1.0  0.04142  0.48921  0.76583  1.0000
  H   H24       1.0  0.95913  0.51058  0.23402  1.0000
  C   C1        1.0  0.37495  0.65135  0.58852  1.0000
  C   C2        1.0  0.61600  0.34278  0.07532  1.0000
  C   C3        1.0  0.62377  0.34869  0.41167  1.0000
  C   C4        1.0  0.38502  0.65728  0.92479  1.0000
  C   C5        1.0  0.50169  0.73731  0.53085  1.0000
  C   C6        1.0  0.48650  0.26406  0.02080  1.0000
  C   C7        1.0  0.49636  0.26309  0.46930  1.0000
  C   C8        1.0  0.51457  0.73624  0.97926  1.0000
  C   C9        1.0  0.48474  0.69741  0.64878  1.0000
  C   C10       1.0  0.50187  0.29775  0.13879  1.0000
  C   C11       1.0  0.51477  0.30221  0.35133  1.0000
  C   C12       1.0  0.49898  0.70222  0.86128  1.0000
  C   C13       1.0  0.79758  0.91328  0.59467  1.0000
  C   C14       1.0  0.18646  0.08913  0.09203  1.0000
  C   C15       1.0  0.20113  0.08682  0.40533  1.0000
  C   C16       1.0  0.81445  0.91099  0.90794  1.0000
  S   S1        1.0  0.35735  0.16762  0.74520  1.0000
  S   S2        1.0  0.64306  0.83218  0.25460  1.0000
  N   N1        1.0  0.69246  0.82617  0.65317  1.0000
  N   N2        1.0  0.29040  0.17321  0.14834  1.0000
  N   N3        1.0  0.30707  0.17346  0.34684  1.0000
  N   N4        1.0  0.71034  0.82685  0.85166  1.0000
  N   N5        1.0  0.98847  0.05612  0.59519  1.0000
  N   N6        1.0  0.99860  0.94280  0.09712  1.0000
  N   N7        1.0  0.01024  0.94397  0.40477  1.0000
  N   N8        1.0  0.00232  0.05732  0.90280  1.0000
  N   N9        1.0  0.71167  0.85991  0.53324  1.0000
  N   N10       1.0  0.27133  0.14688  0.02834  1.0000
  N   N11       1.0  0.28636  0.14056  0.46682  1.0000
  N   N12       1.0  0.72971  0.85343  0.97165  1.0000
  O   O1        1.0  0.64177  0.14821  0.75923  1.0000
  O   O2        1.0  0.35868  0.85162  0.24056  1.0000
  O   O3        1.0  0.34208  0.23784  0.67586  1.0000
  O   O4        1.0  0.75106  0.67292  0.20413  1.0000
  O   O5        1.0  0.65809  0.76129  0.32389  1.0000
  O   O6        1.0  0.24977  0.32738  0.79558  1.0000
  O   O7        1.0  0.22301  0.96085  0.75702  1.0000
  O   O8        1.0  0.77722  0.03914  0.24303  1.0000
  O   O9        1.0  0.90236  0.55215  0.74068  1.0000
  O   O10       1.0  0.09787  0.44770  0.25928  1.0000
