data_image0
_chemical_formula_structural       Cu2H10C8N6Cl4
_chemical_formula_sum              "Cu2 H10 C8 N6 Cl4"
_cell_length_a       4.08338
_cell_length_b       7.02218
_cell_length_c       12.1657
_cell_angle_alpha    89.9979
_cell_angle_beta     89.9964
_cell_angle_gamma    102.352

_space_group_name_H-M_alt    "P 1"
_space_group_IT_number       1

loop_
  _space_group_symop_operation_xyz
  'x, y, z'

loop_
  _atom_site_type_symbol
  _atom_site_label
  _atom_site_symmetry_multiplicity
  _atom_site_fract_x
  _atom_site_fract_y
  _atom_site_fract_z
  _atom_site_occupancy
  Cu  Cu1       1.0  0.99999  0.00000  0.50000  1.0000
  Cu  Cu2       1.0  0.99999  1.00000  0.00000  1.0000
  H   H1        1.0  0.30371  0.85212  0.67818  1.0000
  H   H2        1.0  0.69626  0.14788  0.17817  1.0000
  H   H3        1.0  0.69626  0.14788  0.32182  1.0000
  H   H4        1.0  0.30373  0.85210  0.82182  1.0000
  H   H5        1.0  0.86050  0.36209  0.57332  1.0000
  H   H6        1.0  0.13952  0.63791  0.07332  1.0000
  H   H7        1.0  0.13950  0.63790  0.42668  1.0000
  H   H8        1.0  0.86050  0.36210  0.92668  1.0000
  H   H9        1.0  0.78482  0.53733  0.75000  1.0000
  H   H10       1.0  0.21521  0.46268  0.25000  1.0000
  C   C1        1.0  0.08030  0.05573  0.75000  1.0000
  C   C2        1.0  0.91970  0.94427  0.25001  1.0000
  C   C3        1.0  0.90976  0.30390  0.65308  1.0000
  C   C4        1.0  0.09025  0.69610  0.15308  1.0000
  C   C5        1.0  0.09024  0.69610  0.34692  1.0000
  C   C6        1.0  0.90975  0.30390  0.84693  1.0000
  C   C7        1.0  0.86321  0.39892  0.75000  1.0000
  C   C8        1.0  0.13682  0.60109  0.25000  1.0000
  N   N1        1.0  0.22247  0.90314  0.75000  1.0000
  N   N2        1.0  0.77752  0.09686  0.25000  1.0000
  N   N3        1.0  0.00923  0.13395  0.65226  1.0000
  N   N4        1.0  0.99079  0.86606  0.15227  1.0000
  N   N5        1.0  0.99076  0.86604  0.34774  1.0000
  N   N6        1.0  0.00921  0.13394  0.84773  1.0000
  Cl  Cl1       1.0  0.62134  0.74366  0.56098  1.0000
  Cl  Cl2       1.0  0.37857  0.25633  0.06097  1.0000
  Cl  Cl3       1.0  0.37866  0.25635  0.43902  1.0000
  Cl  Cl4       1.0  0.62142  0.74367  0.93903  1.0000
