data_image0
_chemical_formula_structural       Cd8H48C32O48
_chemical_formula_sum              "Cd8 H48 C32 O48"
_cell_length_a       9.12027
_cell_length_b       12.0737
_cell_length_c       12.311
_cell_angle_alpha    90
_cell_angle_beta     90
_cell_angle_gamma    90

_space_group_name_H-M_alt    "P 1"
_space_group_IT_number       1

loop_
  _space_group_symop_operation_xyz
  'x, y, z'

loop_
  _atom_site_type_symbol
  _atom_site_label
  _atom_site_symmetry_multiplicity
  _atom_site_fract_x
  _atom_site_fract_y
  _atom_site_fract_z
  _atom_site_occupancy
  Cd  Cd1       1.0  0.08254  0.22695  0.73369  1.0000
  Cd  Cd2       1.0  0.41745  0.77305  0.23369  1.0000
  Cd  Cd3       1.0  0.58255  0.27305  0.26631  1.0000
  Cd  Cd4       1.0  0.91746  0.72695  0.76631  1.0000
  Cd  Cd5       1.0  0.91746  0.77305  0.26631  1.0000
  Cd  Cd6       1.0  0.58255  0.22695  0.76631  1.0000
  Cd  Cd7       1.0  0.41746  0.72695  0.73368  1.0000
  Cd  Cd8       1.0  0.08254  0.27305  0.23369  1.0000
  H   H1        1.0  0.10468  0.27993  0.95597  1.0000
  H   H2        1.0  0.39532  0.72007  0.45597  1.0000
  H   H3        1.0  0.60468  0.22007  0.04403  1.0000
  H   H4        1.0  0.89532  0.77993  0.54403  1.0000
  H   H5        1.0  0.89532  0.72006  0.04403  1.0000
  H   H6        1.0  0.60468  0.27993  0.54403  1.0000
  H   H7        1.0  0.39532  0.77993  0.95597  1.0000
  H   H8        1.0  0.10468  0.22007  0.45597  1.0000
  H   H9        1.0  0.93858  0.30272  0.92689  1.0000
  H   H10       1.0  0.56142  0.69728  0.42688  1.0000
  H   H11       1.0  0.43858  0.19728  0.07312  1.0000
  H   H12       1.0  0.06142  0.80272  0.57311  1.0000
  H   H13       1.0  0.06142  0.69728  0.07311  1.0000
  H   H14       1.0  0.43858  0.30272  0.57312  1.0000
  H   H15       1.0  0.56142  0.80272  0.92688  1.0000
  H   H16       1.0  0.93858  0.19728  0.42689  1.0000
  H   H17       1.0  0.01972  0.49748  0.34616  1.0000
  H   H18       1.0  0.48028  0.50252  0.84616  1.0000
  H   H19       1.0  0.51972  0.00253  0.65384  1.0000
  H   H20       1.0  0.98028  0.99748  0.15384  1.0000
  H   H21       1.0  0.98028  0.50252  0.65384  1.0000
  H   H22       1.0  0.51972  0.49748  0.15384  1.0000
  H   H23       1.0  0.48028  0.99747  0.34616  1.0000
  H   H24       1.0  0.01972  0.00252  0.84617  1.0000
  H   H25       1.0  0.34510  0.51119  0.53517  1.0000
  H   H26       1.0  0.15490  0.48880  0.03517  1.0000
  H   H27       1.0  0.84510  0.98880  0.46483  1.0000
  H   H28       1.0  0.65490  0.01119  0.96483  1.0000
  H   H29       1.0  0.65490  0.48880  0.46483  1.0000
  H   H30       1.0  0.84510  0.51119  0.96483  1.0000
  H   H31       1.0  0.15490  0.01120  0.53517  1.0000
  H   H32       1.0  0.34510  0.98881  0.03517  1.0000
  H   H33       1.0  0.16193  0.56025  0.53093  1.0000
  H   H34       1.0  0.33807  0.43975  0.03092  1.0000
  H   H35       1.0  0.66193  0.93975  0.46908  1.0000
  H   H36       1.0  0.83807  0.06025  0.96907  1.0000
  H   H37       1.0  0.83807  0.43975  0.46907  1.0000
  H   H38       1.0  0.66193  0.56025  0.96908  1.0000
  H   H39       1.0  0.33807  0.06025  0.53092  1.0000
  H   H40       1.0  0.16193  0.93975  0.03093  1.0000
  H   H41       1.0  0.26003  0.54841  0.34754  1.0000
  H   H42       1.0  0.23997  0.45159  0.84754  1.0000
  H   H43       1.0  0.76003  0.95159  0.65246  1.0000
  H   H44       1.0  0.73997  0.04841  0.15246  1.0000
  H   H45       1.0  0.73997  0.45159  0.65246  1.0000
  H   H46       1.0  0.76003  0.54841  0.15246  1.0000
  H   H47       1.0  0.23997  0.04841  0.34754  1.0000
  H   H48       1.0  0.26003  0.95159  0.84754  1.0000
  C   C1        1.0  0.18650  0.38822  0.57403  1.0000
  C   C2        1.0  0.31350  0.61178  0.07403  1.0000
  C   C3        1.0  0.68649  0.11178  0.42596  1.0000
  C   C4        1.0  0.81350  0.88822  0.92597  1.0000
  C   C5        1.0  0.81350  0.61178  0.42597  1.0000
  C   C6        1.0  0.68650  0.38822  0.92597  1.0000
  C   C7        1.0  0.31350  0.88822  0.57404  1.0000
  C   C8        1.0  0.18650  0.11178  0.07404  1.0000
  C   C9        1.0  0.23242  0.48967  0.51059  1.0000
  C   C10       1.0  0.26758  0.51033  0.01058  1.0000
  C   C11       1.0  0.73242  0.01033  0.48941  1.0000
  C   C12       1.0  0.76757  0.98967  0.98941  1.0000
  C   C13       1.0  0.76758  0.51033  0.48941  1.0000
  C   C14       1.0  0.73242  0.48967  0.98942  1.0000
  C   C15       1.0  0.26758  0.98967  0.51059  1.0000
  C   C16       1.0  0.23242  0.01034  0.01059  1.0000
  C   C17       1.0  0.22991  0.46988  0.38771  1.0000
  C   C18       1.0  0.27010  0.53012  0.88771  1.0000
  C   C19       1.0  0.72990  0.03012  0.61228  1.0000
  C   C20       1.0  0.77009  0.96988  0.11229  1.0000
  C   C21       1.0  0.77010  0.53012  0.61228  1.0000
  C   C22       1.0  0.72991  0.46988  0.11229  1.0000
  C   C23       1.0  0.27009  0.96988  0.38772  1.0000
  C   C24       1.0  0.22990  0.03013  0.88772  1.0000
  C   C25       1.0  0.34748  0.38825  0.35068  1.0000
  C   C26       1.0  0.15252  0.61175  0.85067  1.0000
  C   C27       1.0  0.84748  0.11175  0.64932  1.0000
  C   C28       1.0  0.65252  0.88824  0.14932  1.0000
  C   C29       1.0  0.65252  0.61175  0.64932  1.0000
  C   C30       1.0  0.84748  0.38825  0.14932  1.0000
  C   C31       1.0  0.15252  0.88825  0.35068  1.0000
  C   C32       1.0  0.34748  0.11176  0.85068  1.0000
  O   O1        1.0  0.24050  0.29420  0.55044  1.0000
  O   O2        1.0  0.25949  0.70580  0.05044  1.0000
  O   O3        1.0  0.74050  0.20579  0.44955  1.0000
  O   O4        1.0  0.75949  0.79420  0.94955  1.0000
  O   O5        1.0  0.75949  0.70580  0.44955  1.0000
  O   O6        1.0  0.74051  0.29420  0.94956  1.0000
  O   O7        1.0  0.25950  0.79420  0.55045  1.0000
  O   O8        1.0  0.24051  0.20580  0.05045  1.0000
  O   O9        1.0  0.04007  0.31092  0.89950  1.0000
  O   O10       1.0  0.45993  0.68908  0.39950  1.0000
  O   O11       1.0  0.54008  0.18908  0.10050  1.0000
  O   O12       1.0  0.95993  0.81092  0.60050  1.0000
  O   O13       1.0  0.95993  0.68908  0.10050  1.0000
  O   O14       1.0  0.54007  0.31092  0.60050  1.0000
  O   O15       1.0  0.45993  0.81092  0.89950  1.0000
  O   O16       1.0  0.04007  0.18908  0.39950  1.0000
  O   O17       1.0  0.09488  0.39954  0.65300  1.0000
  O   O18       1.0  0.40512  0.60046  0.15300  1.0000
  O   O19       1.0  0.59488  0.10045  0.34700  1.0000
  O   O20       1.0  0.90512  0.89954  0.84700  1.0000
  O   O21       1.0  0.90512  0.60046  0.34700  1.0000
  O   O22       1.0  0.59488  0.39954  0.84701  1.0000
  O   O23       1.0  0.40512  0.89955  0.65300  1.0000
  O   O24       1.0  0.09488  0.10046  0.15300  1.0000
  O   O25       1.0  0.31629  0.30967  0.28393  1.0000
  O   O26       1.0  0.18371  0.69033  0.78392  1.0000
  O   O27       1.0  0.81629  0.19033  0.71607  1.0000
  O   O28       1.0  0.68371  0.80967  0.21607  1.0000
  O   O29       1.0  0.68371  0.69033  0.71607  1.0000
  O   O30       1.0  0.81630  0.30967  0.21608  1.0000
  O   O31       1.0  0.18370  0.80967  0.28393  1.0000
  O   O32       1.0  0.31629  0.19034  0.78393  1.0000
  O   O33       1.0  0.47782  0.40380  0.38168  1.0000
  O   O34       1.0  0.02218  0.59620  0.88167  1.0000
  O   O35       1.0  0.97782  0.09620  0.61832  1.0000
  O   O36       1.0  0.52217  0.90380  0.11833  1.0000
  O   O37       1.0  0.52218  0.59620  0.61832  1.0000
  O   O38       1.0  0.97782  0.40380  0.11832  1.0000
  O   O39       1.0  0.02217  0.90380  0.38168  1.0000
  O   O40       1.0  0.47782  0.09620  0.88168  1.0000
  O   O41       1.0  0.08945  0.43317  0.35193  1.0000
  O   O42       1.0  0.41055  0.56683  0.85193  1.0000
  O   O43       1.0  0.58945  0.06683  0.64807  1.0000
  O   O44       1.0  0.91055  0.93317  0.14807  1.0000
  O   O45       1.0  0.91056  0.56683  0.64806  1.0000
  O   O46       1.0  0.58945  0.43317  0.14807  1.0000
  O   O47       1.0  0.41055  0.93317  0.35194  1.0000
  O   O48       1.0  0.08944  0.06683  0.85194  1.0000
