data_image0
_chemical_formula_structural       Ag2H8C10S2N2O6
_chemical_formula_sum              "Ag2 H8 C10 S2 N2 O6"
_cell_length_a       6.68857
_cell_length_b       6.98106
_cell_length_c       7.7373
_cell_angle_alpha    74.045
_cell_angle_beta     67.7749
_cell_angle_gamma    84.8261

_space_group_name_H-M_alt    "P 1"
_space_group_IT_number       1

loop_
  _space_group_symop_operation_xyz
  'x, y, z'

loop_
  _atom_site_type_symbol
  _atom_site_label
  _atom_site_symmetry_multiplicity
  _atom_site_fract_x
  _atom_site_fract_y
  _atom_site_fract_z
  _atom_site_occupancy
  Ag  Ag1       1.0  0.50994  0.62448  0.17696  1.0000
  Ag  Ag2       1.0  0.49006  0.37551  0.82304  1.0000
  H   H1        1.0  0.09381  0.95769  0.63322  1.0000
  H   H2        1.0  0.90620  0.04231  0.36678  1.0000
  H   H3        1.0  0.88589  0.09641  0.91585  1.0000
  H   H4        1.0  0.11412  0.90359  0.08415  1.0000
  H   H5        1.0  0.95764  0.45032  0.89308  1.0000
  H   H6        1.0  0.04236  0.54968  0.10692  1.0000
  H   H7        1.0  0.22763  0.65486  0.58467  1.0000
  H   H8        1.0  0.77237  0.34515  0.41533  1.0000
  C   C1        1.0  0.26203  0.23555  0.46259  1.0000
  C   C2        1.0  0.73797  0.76444  0.53742  1.0000
  C   C3        1.0  0.11663  0.11143  0.62759  1.0000
  C   C4        1.0  0.88337  0.88858  0.37241  1.0000
  C   C5        1.0  0.00382  0.18818  0.78554  1.0000
  C   C6        1.0  0.99618  0.81182  0.21446  1.0000
  C   C7        1.0  0.04454  0.38469  0.77348  1.0000
  C   C8        1.0  0.95547  0.61532  0.22652  1.0000
  C   C9        1.0  0.19252  0.49982  0.60221  1.0000
  C   C10       1.0  0.80748  0.50018  0.39779  1.0000
  S   S1        1.0  0.41288  0.14134  0.25621  1.0000
  S   S2        1.0  0.58711  0.85866  0.74380  1.0000
  N   N1        1.0  0.29775  0.42722  0.44718  1.0000
  N   N2        1.0  0.70224  0.57278  0.55283  1.0000
  O   O1        1.0  0.63055  0.22808  0.17549  1.0000
  O   O2        1.0  0.36945  0.77190  0.82450  1.0000
  O   O3        1.0  0.39926  0.92482  0.33126  1.0000
  O   O4        1.0  0.60073  0.07518  0.66874  1.0000
  O   O5        1.0  0.29284  0.21507  0.12242  1.0000
  O   O6        1.0  0.70715  0.78493  0.87758  1.0000
