data_image0
_chemical_formula_structural       Ag4H16C20S4N4O12
_chemical_formula_sum              "Ag4 H16 C20 S4 N4 O12"
_cell_length_a       5.10162
_cell_length_b       10.8129
_cell_length_c       12.7146
_cell_angle_alpha    112.477
_cell_angle_beta     90.0013
_cell_angle_gamma    90

_space_group_name_H-M_alt    "P 1"
_space_group_IT_number       1

loop_
  _space_group_symop_operation_xyz
  'x, y, z'

loop_
  _atom_site_type_symbol
  _atom_site_label
  _atom_site_symmetry_multiplicity
  _atom_site_fract_x
  _atom_site_fract_y
  _atom_site_fract_z
  _atom_site_occupancy
  Ag  Ag1       1.0  0.77788  0.94540  0.87287  1.0000
  Ag  Ag2       1.0  0.27789  0.05460  0.62712  1.0000
  Ag  Ag3       1.0  0.22207  0.05461  0.12713  1.0000
  Ag  Ag4       1.0  0.72213  0.94540  0.37287  1.0000
  H   H1        1.0  0.36497  0.58723  0.02043  1.0000
  H   H2        1.0  0.86497  0.41277  0.47957  1.0000
  H   H3        1.0  0.63500  0.41276  0.97957  1.0000
  H   H4        1.0  0.13500  0.58723  0.52042  1.0000
  H   H5        1.0  0.03169  0.50211  0.86567  1.0000
  H   H6        1.0  0.53170  0.49791  0.63434  1.0000
  H   H7        1.0  0.96827  0.49788  0.13434  1.0000
  H   H8        1.0  0.46830  0.50210  0.36567  1.0000
  H   H9        1.0  0.97811  0.62409  0.73134  1.0000
  H   H10       1.0  0.47811  0.37591  0.76866  1.0000
  H   H11       1.0  0.02190  0.37589  0.26866  1.0000
  H   H12       1.0  0.52191  0.62410  0.23135  1.0000
  H   H13       1.0  0.27862  0.81301  0.75239  1.0000
  H   H14       1.0  0.77860  0.18697  0.74760  1.0000
  H   H15       1.0  0.72139  0.18696  0.24759  1.0000
  H   H16       1.0  0.22141  0.81303  0.25240  1.0000
  C   C1        1.0  0.49516  0.74278  0.96571  1.0000
  C   C2        1.0  0.99517  0.25722  0.53428  1.0000
  C   C3        1.0  0.50485  0.25721  0.03429  1.0000
  C   C4        1.0  0.00484  0.74278  0.46571  1.0000
  C   C5        1.0  0.34097  0.63379  0.95897  1.0000
  C   C6        1.0  0.84096  0.36621  0.54104  1.0000
  C   C7        1.0  0.65905  0.36621  0.04104  1.0000
  C   C8        1.0  0.15904  0.63380  0.45896  1.0000
  C   C9        1.0  0.15349  0.58770  0.87285  1.0000
  C   C10       1.0  0.65350  0.41232  0.62716  1.0000
  C   C11       1.0  0.84649  0.41230  0.12715  1.0000
  C   C12       1.0  0.34651  0.58769  0.37285  1.0000
  C   C13       1.0  0.12581  0.65342  0.79825  1.0000
  C   C14       1.0  0.62581  0.34658  0.70175  1.0000
  C   C15       1.0  0.87420  0.34656  0.20174  1.0000
  C   C16       1.0  0.37420  0.65343  0.29826  1.0000
  C   C17       1.0  0.29108  0.76069  0.81026  1.0000
  C   C18       1.0  0.79108  0.23931  0.68974  1.0000
  C   C19       1.0  0.70892  0.23930  0.18974  1.0000
  C   C20       1.0  0.20893  0.76069  0.31026  1.0000
  S   S1        1.0  0.71921  0.81126  0.08386  1.0000
  S   S2        1.0  0.21919  0.18874  0.41614  1.0000
  S   S3        1.0  0.28078  0.18873  0.91613  1.0000
  S   S4        1.0  0.78081  0.81127  0.58386  1.0000
  N   N1        1.0  0.47565  0.80421  0.89208  1.0000
  N   N2        1.0  0.97563  0.19578  0.60791  1.0000
  N   N3        1.0  0.52436  0.19575  0.10791  1.0000
  N   N4        1.0  0.02436  0.80423  0.39209  1.0000
  O   O1        1.0  0.92592  0.87979  0.04564  1.0000
  O   O2        1.0  0.42591  0.12022  0.45435  1.0000
  O   O3        1.0  0.07407  0.12021  0.95435  1.0000
  O   O4        1.0  0.57409  0.87980  0.54564  1.0000
  O   O5        1.0  0.80999  0.69763  0.10878  1.0000
  O   O6        1.0  0.30995  0.30237  0.39122  1.0000
  O   O7        1.0  0.19002  0.30237  0.89123  1.0000
  O   O8        1.0  0.69003  0.69765  0.60878  1.0000
  O   O9        1.0  0.55667  0.90616  0.17655  1.0000
  O   O10       1.0  0.05668  0.09385  0.32346  1.0000
  O   O11       1.0  0.44331  0.09384  0.82345  1.0000
  O   O12       1.0  0.94336  0.90617  0.67654  1.0000
