data_image0
_chemical_formula_structural       Cu8H32C48S4N8Cl4
_chemical_formula_sum              "Cu8 H32 C48 S4 N8 Cl4"
_cell_length_a       3.48284
_cell_length_b       16.6524
_cell_length_c       19.6348
_cell_angle_alpha    89.999
_cell_angle_beta     89.9975
_cell_angle_gamma    93.293

_space_group_name_H-M_alt    "P 1"
_space_group_IT_number       1

loop_
  _space_group_symop_operation_xyz
  'x, y, z'

loop_
  _atom_site_type_symbol
  _atom_site_label
  _atom_site_symmetry_multiplicity
  _atom_site_fract_x
  _atom_site_fract_y
  _atom_site_fract_z
  _atom_site_occupancy
  Cu  Cu1       1.0  0.15912  0.60654  0.87725  1.0000
  Cu  Cu2       1.0  0.34083  0.89347  0.37724  1.0000
  Cu  Cu3       1.0  0.84086  0.39347  0.12276  1.0000
  Cu  Cu4       1.0  0.65915  0.10653  0.62275  1.0000
  Cu  Cu5       1.0  0.67879  0.57172  0.74931  1.0000
  Cu  Cu6       1.0  0.82115  0.92828  0.24931  1.0000
  Cu  Cu7       1.0  0.32119  0.42828  0.25069  1.0000
  Cu  Cu8       1.0  0.17883  0.07172  0.75069  1.0000
  H   H1        1.0  0.29139  0.72908  0.74925  1.0000
  H   H2        1.0  0.20861  0.77093  0.24924  1.0000
  H   H3        1.0  0.70863  0.27092  0.25076  1.0000
  H   H4        1.0  0.79143  0.22907  0.75074  1.0000
  H   H5        1.0  0.15904  0.87475  0.72901  1.0000
  H   H6        1.0  0.34101  0.62527  0.22901  1.0000
  H   H7        1.0  0.84100  0.12526  0.27099  1.0000
  H   H8        1.0  0.65907  0.37473  0.77098  1.0000
  H   H9        1.0  0.93111  0.95606  0.82602  1.0000
  H   H10       1.0  0.56889  0.54394  0.32600  1.0000
  H   H11       1.0  0.06894  0.04395  0.17399  1.0000
  H   H12       1.0  0.43116  0.45605  0.67398  1.0000
  H   H13       1.0  0.76611  0.96395  0.95025  1.0000
  H   H14       1.0  0.73388  0.53605  0.45025  1.0000
  H   H15       1.0  0.23392  0.03606  0.04975  1.0000
  H   H16       1.0  0.26616  0.46394  0.54975  1.0000
  H   H17       1.0  0.69719  0.89678  0.06318  1.0000
  H   H18       1.0  0.80284  0.60324  0.56316  1.0000
  H   H19       1.0  0.30278  0.10324  0.93683  1.0000
  H   H20       1.0  0.19717  0.39676  0.43683  1.0000
  H   H21       1.0  0.73534  0.77219  0.13434  1.0000
  H   H22       1.0  0.76466  0.72781  0.63433  1.0000
  H   H23       1.0  0.26462  0.22781  0.86566  1.0000
  H   H24       1.0  0.23533  0.27219  0.36566  1.0000
  H   H25       1.0  0.87485  0.62447  0.13926  1.0000
  H   H26       1.0  0.62516  0.87554  0.63924  1.0000
  H   H27       1.0  0.12518  0.37554  0.86075  1.0000
  H   H28       1.0  0.37476  0.12446  0.36075  1.0000
  H   H29       1.0  0.08065  0.55675  0.03478  1.0000
  H   H30       1.0  0.41937  0.94325  0.53476  1.0000
  H   H31       1.0  0.91938  0.44325  0.96523  1.0000
  H   H32       1.0  0.58057  0.05674  0.46522  1.0000
  C   C1        1.0  0.19577  0.76699  0.79056  1.0000
  C   C2        1.0  0.30421  0.73302  0.29056  1.0000
  C   C3        1.0  0.80424  0.23302  0.20944  1.0000
  C   C4        1.0  0.69582  0.26697  0.70943  1.0000
  C   C5        1.0  0.12054  0.84786  0.77939  1.0000
  C   C6        1.0  0.37943  0.65214  0.27938  1.0000
  C   C7        1.0  0.87948  0.15214  0.22062  1.0000
  C   C8        1.0  0.62061  0.34785  0.72061  1.0000
  C   C9        1.0  0.99747  0.89335  0.83316  1.0000
  C   C10       1.0  0.50250  0.60665  0.33315  1.0000
  C   C11       1.0  0.00255  0.10666  0.16685  1.0000
  C   C12       1.0  0.49757  0.39334  0.66684  1.0000
  C   C13       1.0  0.95368  0.85813  0.89818  1.0000
  C   C14       1.0  0.54627  0.64187  0.39817  1.0000
  C   C15       1.0  0.04631  0.14188  0.10183  1.0000
  C   C16       1.0  0.45378  0.35812  0.60181  1.0000
  C   C17       1.0  0.82970  0.90097  0.95665  1.0000
  C   C18       1.0  0.67026  0.59904  0.45664  1.0000
  C   C19       1.0  0.17030  0.09904  0.04335  1.0000
  C   C20       1.0  0.32979  0.40096  0.54334  1.0000
  C   C21       1.0  0.79187  0.86420  0.01867  1.0000
  C   C22       1.0  0.70809  0.63580  0.51866  1.0000
  C   C23       1.0  0.20809  0.13581  0.98133  1.0000
  C   C24       1.0  0.29193  0.36419  0.48133  1.0000
  C   C25       1.0  0.86971  0.78120  0.02689  1.0000
  C   C26       1.0  0.63022  0.71880  0.52688  1.0000
  C   C27       1.0  0.13022  0.21880  0.97312  1.0000
  C   C28       1.0  0.36978  0.28119  0.47311  1.0000
  C   C29       1.0  0.98778  0.73679  0.96968  1.0000
  C   C30       1.0  0.51217  0.76321  0.46966  1.0000
  C   C31       1.0  0.01217  0.26321  0.03033  1.0000
  C   C32       1.0  0.48783  0.23678  0.53033  1.0000
  C   C33       1.0  0.03422  0.77587  0.90460  1.0000
  C   C34       1.0  0.46571  0.72413  0.40459  1.0000
  C   C35       1.0  0.96576  0.22414  0.09541  1.0000
  C   C36       1.0  0.53431  0.27586  0.59539  1.0000
  C   C37       1.0  0.82922  0.73983  0.08963  1.0000
  C   C38       1.0  0.67075  0.76018  0.58961  1.0000
  C   C39       1.0  0.17072  0.26018  0.91038  1.0000
  C   C40       1.0  0.32923  0.23981  0.41037  1.0000
  C   C41       1.0  0.90499  0.65936  0.09247  1.0000
  C   C42       1.0  0.59500  0.84064  0.59246  1.0000
  C   C43       1.0  0.09501  0.34065  0.90753  1.0000
  C   C44       1.0  0.40497  0.15935  0.40753  1.0000
  C   C45       1.0  0.01812  0.62018  0.03298  1.0000
  C   C46       1.0  0.48187  0.87982  0.53297  1.0000
  C   C47       1.0  0.98188  0.37982  0.96702  1.0000
  C   C48       1.0  0.51810  0.12017  0.46702  1.0000
  S   S1        1.0  0.63191  0.52842  0.85103  1.0000
  S   S2        1.0  0.86804  0.97159  0.35102  1.0000
  S   S3        1.0  0.36805  0.47159  0.14898  1.0000
  S   S4        1.0  0.13195  0.02841  0.64898  1.0000
  N   N1        1.0  0.05758  0.65740  0.97317  1.0000
  N   N2        1.0  0.44238  0.84260  0.47316  1.0000
  N   N3        1.0  0.94238  0.34261  0.02684  1.0000
  N   N4        1.0  0.55760  0.15739  0.52683  1.0000
  N   N5        1.0  0.15261  0.73145  0.85126  1.0000
  N   N6        1.0  0.34732  0.76856  0.35126  1.0000
  N   N7        1.0  0.84736  0.26856  0.14874  1.0000
  N   N8        1.0  0.65271  0.23144  0.64873  1.0000
  Cl  Cl1       1.0  0.18092  0.59809  0.67810  1.0000
  Cl  Cl2       1.0  0.31906  0.90191  0.17809  1.0000
  Cl  Cl3       1.0  0.81906  0.40191  0.32191  1.0000
  Cl  Cl4       1.0  0.68092  0.09810  0.82191  1.0000
