data_image0
_chemical_formula_structural       Sn4H36C16Cl4O8
_chemical_formula_sum              "Sn4 H36 C16 Cl4 O8"
_cell_length_a       7.63331
_cell_length_b       9.32329
_cell_length_c       10.7326
_cell_angle_alpha    90.0065
_cell_angle_beta     89.9983
_cell_angle_gamma    90.0011

_space_group_name_H-M_alt    "P 1"
_space_group_IT_number       1

loop_
  _space_group_symop_operation_xyz
  'x, y, z'

loop_
  _atom_site_type_symbol
  _atom_site_label
  _atom_site_symmetry_multiplicity
  _atom_site_fract_x
  _atom_site_fract_y
  _atom_site_fract_z
  _atom_site_occupancy
  Sn  Sn1       1.0  0.24994  0.58991  0.68223  1.0000
  Sn  Sn2       1.0  0.75006  0.91019  0.18224  1.0000
  Sn  Sn3       1.0  0.75012  0.41013  0.31774  1.0000
  Sn  Sn4       1.0  0.24994  0.08987  0.81775  1.0000
  H   H1        1.0  0.56866  0.64448  0.78068  1.0000
  H   H2        1.0  0.43140  0.85553  0.28070  1.0000
  H   H3        1.0  0.06871  0.35558  0.21932  1.0000
  H   H4        1.0  0.93134  0.14442  0.71931  1.0000
  H   H5        1.0  0.43130  0.35554  0.21931  1.0000
  H   H6        1.0  0.56863  0.14450  0.71933  1.0000
  H   H7        1.0  0.93137  0.64448  0.78069  1.0000
  H   H8        1.0  0.06866  0.85552  0.28065  1.0000
  H   H9        1.0  0.58558  0.50676  0.66316  1.0000
  H   H10       1.0  0.41444  0.99324  0.16321  1.0000
  H   H11       1.0  0.08556  0.49324  0.33681  1.0000
  H   H12       1.0  0.91442  0.00675  0.83680  1.0000
  H   H13       1.0  0.41445  0.49325  0.33687  1.0000
  H   H14       1.0  0.58557  0.00681  0.83684  1.0000
  H   H15       1.0  0.91443  0.50679  0.66319  1.0000
  H   H16       1.0  0.08563  0.99321  0.16316  1.0000
  H   H17       1.0  0.50020  0.46410  0.81495  1.0000
  H   H18       1.0  0.49977  0.03594  0.31502  1.0000
  H   H19       1.0  0.00026  0.53590  0.18504  1.0000
  H   H20       1.0  0.99974  0.96405  0.68502  1.0000
  H   H21       1.0  0.49980  0.53595  0.18504  1.0000
  H   H22       1.0  0.50024  0.96407  0.68504  1.0000
  H   H23       1.0  0.99978  0.46411  0.81496  1.0000
  H   H24       1.0  0.00033  0.03593  0.31497  1.0000
  H   H25       1.0  0.13382  0.11560  0.49944  1.0000
  H   H26       1.0  0.86606  0.38439  0.99942  1.0000
  H   H27       1.0  0.63388  0.88433  0.50054  1.0000
  H   H28       1.0  0.36611  0.61561  0.00055  1.0000
  H   H29       1.0  0.86605  0.88439  0.50056  1.0000
  H   H30       1.0  0.13394  0.61565  0.00056  1.0000
  H   H31       1.0  0.36598  0.11555  0.49942  1.0000
  H   H32       1.0  0.63388  0.38435  0.99946  1.0000
  H   H33       1.0  0.24992  0.21598  0.38376  1.0000
  H   H34       1.0  0.74997  0.28394  0.88380  1.0000
  H   H35       1.0  0.74998  0.78391  0.61620  1.0000
  H   H36       1.0  0.25005  0.71605  0.11623  1.0000
  C   C1        1.0  0.51022  0.54658  0.74273  1.0000
  C   C2        1.0  0.48981  0.95345  0.24278  1.0000
  C   C3        1.0  0.01023  0.45344  0.25725  1.0000
  C   C4        1.0  0.98974  0.04653  0.75723  1.0000
  C   C5        1.0  0.48979  0.45344  0.25727  1.0000
  C   C6        1.0  0.51025  0.04659  0.75726  1.0000
  C   C7        1.0  0.98976  0.54659  0.74275  1.0000
  C   C8        1.0  0.01027  0.95344  0.24274  1.0000
  C   C9        1.0  0.24999  0.30806  0.56787  1.0000
  C   C10       1.0  0.75005  0.19190  0.06788  1.0000
  C   C11       1.0  0.75002  0.69190  0.43212  1.0000
  C   C12       1.0  0.24996  0.80807  0.93213  1.0000
  C   C13       1.0  0.24993  0.18188  0.48120  1.0000
  C   C14       1.0  0.74999  0.31812  0.98121  1.0000
  C   C15       1.0  0.74997  0.81808  0.51879  1.0000
  C   C16       1.0  0.25002  0.68192  0.01878  1.0000
  Cl  Cl1       1.0  0.24995  0.77212  0.52202  1.0000
  Cl  Cl2       1.0  0.75004  0.72791  0.02210  1.0000
  Cl  Cl3       1.0  0.75000  0.22793  0.47793  1.0000
  Cl  Cl4       1.0  0.24998  0.27210  0.97799  1.0000
  O   O1        1.0  0.24990  0.43526  0.52219  1.0000
  O   O2        1.0  0.75004  0.06470  0.02216  1.0000
  O   O3        1.0  0.74999  0.56469  0.47782  1.0000
  O   O4        1.0  0.25006  0.93533  0.97784  1.0000
  O   O5        1.0  0.24999  0.29087  0.68571  1.0000
  O   O6        1.0  0.75004  0.20910  0.18572  1.0000
  O   O7        1.0  0.75002  0.70907  0.31426  1.0000
  O   O8        1.0  0.25003  0.79092  0.81430  1.0000
