data_image0
_chemical_formula_structural       Cu2H14C20N10O12
_chemical_formula_sum              "Cu2 H14 C20 N10 O12"
_cell_length_a       7.7831
_cell_length_b       8.57937
_cell_length_c       10.8221
_cell_angle_alpha    92.9713
_cell_angle_beta     96.7779
_cell_angle_gamma    100.739

_space_group_name_H-M_alt    "P 1"
_space_group_IT_number       1

loop_
  _space_group_symop_operation_xyz
  'x, y, z'

loop_
  _atom_site_type_symbol
  _atom_site_label
  _atom_site_symmetry_multiplicity
  _atom_site_fract_x
  _atom_site_fract_y
  _atom_site_fract_z
  _atom_site_occupancy
  Cu  Cu1       1.0  0.90591  0.87038  0.03565  1.0000
  Cu  Cu2       1.0  0.09410  0.12959  0.96434  1.0000
  H   H1        1.0  0.10540  0.90732  0.42176  1.0000
  H   H2        1.0  0.89461  0.09269  0.57824  1.0000
  H   H3        1.0  0.39603  0.34060  0.30813  1.0000
  H   H4        1.0  0.60397  0.65941  0.69186  1.0000
  H   H5        1.0  0.57352  0.39400  0.52303  1.0000
  H   H6        1.0  0.42648  0.60603  0.47696  1.0000
  H   H7        1.0  0.27652  0.96615  0.63880  1.0000
  H   H8        1.0  0.72349  0.03386  0.36120  1.0000
  H   H9        1.0  0.46312  0.81827  0.86219  1.0000
  H   H10       1.0  0.53692  0.18171  0.13785  1.0000
  H   H11       1.0  0.47229  0.76168  0.01747  1.0000
  H   H12       1.0  0.52768  0.23830  0.98253  1.0000
  H   H13       1.0  0.26345  0.60085  0.68492  1.0000
  H   H14       1.0  0.73656  0.39913  0.31508  1.0000
  C   C1        1.0  0.23803  0.84693  0.95595  1.0000
  C   C2        1.0  0.76196  0.15304  0.04405  1.0000
  C   C3        1.0  0.20790  0.01349  0.44546  1.0000
  C   C4        1.0  0.79212  0.98652  0.55455  1.0000
  C   C5        1.0  0.15236  0.07927  0.22196  1.0000
  C   C6        1.0  0.84761  0.92069  0.77805  1.0000
  C   C7        1.0  0.37363  0.25805  0.38040  1.0000
  C   C8        1.0  0.62634  0.74197  0.61958  1.0000
  C   C9        1.0  0.47017  0.28893  0.49846  1.0000
  C   C10       1.0  0.52981  0.71110  0.50152  1.0000
  C   C11       1.0  0.30287  0.04421  0.56434  1.0000
  C   C12       1.0  0.69713  0.95582  0.43567  1.0000
  C   C13       1.0  0.38506  0.75838  0.92982  1.0000
  C   C14       1.0  0.61493  0.24160  0.07018  1.0000
  C   C15       1.0  0.24498  0.11861  0.35280  1.0000
  C   C16       1.0  0.75502  0.88136  0.64720  1.0000
  C   C17       1.0  0.26057  0.53201  0.76612  1.0000
  C   C18       1.0  0.73946  0.46801  0.23389  1.0000
  C   C19       1.0  0.43456  0.18041  0.58802  1.0000
  C   C20       1.0  0.56544  0.81961  0.41196  1.0000
  N   N1        1.0  0.22857  0.34676  0.88907  1.0000
  N   N2        1.0  0.77144  0.65323  0.11093  1.0000
  N   N3        1.0  0.31782  0.59388  0.88438  1.0000
  N   N4        1.0  0.68220  0.40611  0.11564  1.0000
  N   N5        1.0  0.29612  0.47552  0.96102  1.0000
  N   N6        1.0  0.70389  0.52447  0.03899  1.0000
  N   N7        1.0  0.54139  0.21154  0.71097  1.0000
  N   N8        1.0  0.45861  0.78848  0.28902  1.0000
  N   N9        1.0  0.20438  0.37686  0.76656  1.0000
  N   N10       1.0  0.79564  0.62316  0.23345  1.0000
  O   O1        1.0  0.20365  0.17464  0.14144  1.0000
  O   O2        1.0  0.79636  0.82535  0.85860  1.0000
  O   O3        1.0  0.10243  0.76650  0.99213  1.0000
  O   O4        1.0  0.89757  0.23350  0.00788  1.0000
  O   O5        1.0  0.27104  0.99423  0.93915  1.0000
  O   O6        1.0  0.72898  0.00573  0.06084  1.0000
  O   O7        1.0  0.03379  0.95365  0.20380  1.0000
  O   O8        1.0  0.96615  0.04633  0.79616  1.0000
  O   O9        1.0  0.53848  0.09898  0.77887  1.0000
  O   O10       1.0  0.46151  0.90106  0.22113  1.0000
  O   O11       1.0  0.62894  0.34756  0.73990  1.0000
  O   O12       1.0  0.37105  0.65247  0.26008  1.0000
