data_image0
_chemical_formula_structural       Cu2H16C28N16
_chemical_formula_sum              "Cu2 H16 C28 N16"
_cell_length_a       8.63582
_cell_length_b       9.53306
_cell_length_c       10.3958
_cell_angle_alpha    79.0613
_cell_angle_beta     65.1658
_cell_angle_gamma    63.1331

_space_group_name_H-M_alt    "P 1"
_space_group_IT_number       1

loop_
  _space_group_symop_operation_xyz
  'x, y, z'

loop_
  _atom_site_type_symbol
  _atom_site_label
  _atom_site_symmetry_multiplicity
  _atom_site_fract_x
  _atom_site_fract_y
  _atom_site_fract_z
  _atom_site_occupancy
  Cu  Cu1       1.0  0.88571  0.37151  0.28428  1.0000
  Cu  Cu2       1.0  0.25731  0.62838  0.78412  1.0000
  H   H1        1.0  0.29258  0.13585  0.16856  1.0000
  H   H2        1.0  0.42886  0.86416  0.66800  1.0000
  H   H3        1.0  0.60361  0.15375  0.05734  1.0000
  H   H4        1.0  0.75780  0.84635  0.55678  1.0000
  H   H5        1.0  0.60780  0.42000  0.03277  1.0000
  H   H6        1.0  0.02764  0.58015  0.53272  1.0000
  H   H7        1.0  0.30417  0.65672  0.11187  1.0000
  H   H8        1.0  0.96019  0.34350  0.61224  1.0000
  H   H9        1.0  0.52259  0.67223  0.35133  1.0000
  H   H10       1.0  0.19452  0.32737  0.85143  1.0000
  H   H11       1.0  0.44123  0.96102  0.34362  1.0000
  H   H12       1.0  0.40169  0.03863  0.84390  1.0000
  H   H13       1.0  0.70423  0.04713  0.26311  1.0000
  H   H14       1.0  0.75041  0.95297  0.76371  1.0000
  H   H15       1.0  0.03485  0.84303  0.18746  1.0000
  H   H16       1.0  0.87700  0.15735  0.68797  1.0000
  C   C1        1.0  0.13913  0.52104  0.18357  1.0000
  C   C2        1.0  0.65975  0.47911  0.68373  1.0000
  C   C3        1.0  0.30218  0.24828  0.15610  1.0000
  C   C4        1.0  0.55067  0.75184  0.65580  1.0000
  C   C5        1.0  0.47391  0.25940  0.09441  1.0000
  C   C6        1.0  0.73352  0.74073  0.59413  1.0000
  C   C7        1.0  0.47609  0.40703  0.07938  1.0000
  C   C8        1.0  0.88298  0.59314  0.57939  1.0000
  C   C9        1.0  0.30666  0.53986  0.12392  1.0000
  C   C10       1.0  0.84607  0.46032  0.62416  1.0000
  C   C11       1.0  0.95175  0.65142  0.22804  1.0000
  C   C12       1.0  0.60259  0.34867  0.72828  1.0000
  C   C13       1.0  0.63072  0.71622  0.31364  1.0000
  C   C14       1.0  0.34650  0.28351  0.81381  1.0000
  C   C15       1.0  0.58736  0.87630  0.30914  1.0000
  C   C16       1.0  0.46309  0.12348  0.80942  1.0000
  C   C17       1.0  0.73339  0.92316  0.26467  1.0000
  C   C18       1.0  0.65577  0.07689  0.76516  1.0000
  C   C19       1.0  0.91816  0.80972  0.22272  1.0000
  C   C20       1.0  0.72713  0.19046  0.72315  1.0000
  C   C21       1.0  0.50525  0.35311  0.42043  1.0000
  C   C22       1.0  0.85872  0.64679  0.92029  1.0000
  C   C23       1.0  0.31672  0.21558  0.52105  1.0000
  C   C24       1.0  0.53292  0.78430  0.02087  1.0000
  C   C25       1.0  0.02453  0.02931  0.40284  1.0000
  C   C26       1.0  0.05399  0.97074  0.90242  1.0000
  C   C27       1.0  0.14451  0.79576  0.51840  1.0000
  C   C28       1.0  0.94031  0.20426  0.01810  1.0000
  N   N1        1.0  0.13996  0.37642  0.20064  1.0000
  N   N2        1.0  0.51632  0.62368  0.70053  1.0000
  N   N3        1.0  0.80808  0.60720  0.27479  1.0000
  N   N4        1.0  0.41487  0.39270  0.77492  1.0000
  N   N5        1.0  0.62593  0.39475  0.39191  1.0000
  N   N6        1.0  0.02095  0.60496  0.89193  1.0000
  N   N7        1.0  0.36259  0.32644  0.44525  1.0000
  N   N8        1.0  0.68945  0.67360  0.94499  1.0000
  N   N9        1.0  0.25763  0.12228  0.58567  1.0000
  N   N10       1.0  0.38065  0.87749  0.08555  1.0000
  N   N11       1.0  0.98424  0.16056  0.36377  1.0000
  N   N12       1.0  0.14514  0.83943  0.86355  1.0000
  N   N13       1.0  0.05638  0.88519  0.43871  1.0000
  N   N14       1.0  0.94176  0.11484  0.93820  1.0000
  N   N15       1.0  0.21981  0.69934  0.58785  1.0000
  N   N16       1.0  0.91918  0.30060  0.08780  1.0000
