data_image0
_chemical_formula_structural       Cu2H16C24N4O8
_chemical_formula_sum              "Cu2 H16 C24 N4 O8"
_cell_length_a       4.95556
_cell_length_b       10.964
_cell_length_c       12.7527
_cell_angle_alpha    88.6108
_cell_angle_beta     78.8083
_cell_angle_gamma    82.7917

_space_group_name_H-M_alt    "P 1"
_space_group_IT_number       1

loop_
  _space_group_symop_operation_xyz
  'x, y, z'

loop_
  _atom_site_type_symbol
  _atom_site_label
  _atom_site_symmetry_multiplicity
  _atom_site_fract_x
  _atom_site_fract_y
  _atom_site_fract_z
  _atom_site_occupancy
  Cu  Cu1       1.0  0.94659  0.21741  0.22775  1.0000
  Cu  Cu2       1.0  0.17455  0.71748  0.77223  1.0000
  H   H1        1.0  0.11008  0.48399  0.67427  1.0000
  H   H2        1.0  0.78459  0.98377  0.32565  1.0000
  H   H3        1.0  0.34567  0.36138  0.50972  1.0000
  H   H4        1.0  0.85572  0.86129  0.49023  1.0000
  H   H5        1.0  0.93311  0.62401  0.44693  1.0000
  H   H6        1.0  0.38007  0.12409  0.55303  1.0000
  H   H7        1.0  0.68089  0.73437  0.61592  1.0000
  H   H8        1.0  0.29685  0.23425  0.38398  1.0000
  H   H9        1.0  0.67815  0.90151  0.78877  1.0000
  H   H10       1.0  0.46666  0.40156  0.21121  1.0000
  H   H11       1.0  0.38928  0.04547  0.92606  1.0000
  H   H12       1.0  0.31538  0.54561  0.07392  1.0000
  H   H13       1.0  0.93982  0.91993  0.14021  1.0000
  H   H14       1.0  0.08000  0.42000  0.85991  1.0000
  H   H15       1.0  0.20050  0.77377  0.99582  1.0000
  H   H16       1.0  0.19606  0.27376  0.00425  1.0000
  C   C1        1.0  0.29528  0.51002  0.62194  1.0000
  C   C2        1.0  0.91751  0.00983  0.37797  1.0000
  C   C3        1.0  0.42579  0.44345  0.53069  1.0000
  C   C4        1.0  0.95680  0.94335  0.46924  1.0000
  C   C5        1.0  0.65812  0.48426  0.46574  1.0000
  C   C6        1.0  0.12400  0.98429  0.53427  1.0000
  C   C7        1.0  0.75027  0.59130  0.49560  1.0000
  C   C8        1.0  0.24596  0.09130  0.50437  1.0000
  C   C9        1.0  0.61094  0.65277  0.58814  1.0000
  C   C10       1.0  0.19914  0.15268  0.41179  1.0000
  C   C11       1.0  0.81584  0.41429  0.36756  1.0000
  C   C12       1.0  0.18341  0.91441  0.63249  1.0000
  C   C13       1.0  0.73007  0.90770  0.86749  1.0000
  C   C14       1.0  0.59741  0.40776  0.13255  1.0000
  C   C15       1.0  0.57007  0.98825  0.94449  1.0000
  C   C16       1.0  0.51453  0.48835  0.05554  1.0000
  C   C17       1.0  0.64191  0.99398  0.04483  1.0000
  C   C18       1.0  0.68674  0.49405  0.95523  1.0000
  C   C19       1.0  0.87383  0.91665  0.06396  1.0000
  C   C20       1.0  0.93776  0.41673  0.93615  1.0000
  C   C21       1.0  0.02146  0.83708  0.98408  1.0000
  C   C22       1.0  0.00540  0.33713  0.01599  1.0000
  C   C23       1.0  0.47701  0.07949  0.13176  1.0000
  C   C24       1.0  0.60902  0.57950  0.86824  1.0000
  N   N1        1.0  0.38690  0.61252  0.64989  1.0000
  N   N2        1.0  0.03692  0.11236  0.35000  1.0000
  N   N3        1.0  0.95260  0.83296  0.88715  1.0000
  N   N4        1.0  0.83951  0.33298  0.11289  1.0000
  O   O1        1.0  0.69976  0.32254  0.34227  1.0000
  O   O2        1.0  0.04209  0.82268  0.65776  1.0000
  O   O3        1.0  0.04144  0.44565  0.32013  1.0000
  O   O4        1.0  0.36150  0.94585  0.67996  1.0000
  O   O5        1.0  0.23006  0.12005  0.11852  1.0000
  O   O6        1.0  0.34883  0.62007  0.88139  1.0000
  O   O7        1.0  0.58589  0.10339  0.20838  1.0000
  O   O8        1.0  0.79464  0.60330  0.79165  1.0000
