data_image0
_chemical_formula_structural       Cd2H22C24N10Cl2O4
_chemical_formula_sum              "Cd2 H22 C24 N10 Cl2 O4"
_cell_length_a       8.2657
_cell_length_b       9.22028
_cell_length_c       11.6161
_cell_angle_alpha    115.579
_cell_angle_beta     98.1586
_cell_angle_gamma    103.985

_space_group_name_H-M_alt    "P 1"
_space_group_IT_number       1

loop_
  _space_group_symop_operation_xyz
  'x, y, z'

loop_
  _atom_site_type_symbol
  _atom_site_label
  _atom_site_symmetry_multiplicity
  _atom_site_fract_x
  _atom_site_fract_y
  _atom_site_fract_z
  _atom_site_occupancy
  Cd  Cd1       1.0  0.66188  0.50200  0.63531  1.0000
  Cd  Cd2       1.0  0.33812  0.49800  0.36469  1.0000
  H   H1        1.0  0.83085  0.46197  0.88754  1.0000
  H   H2        1.0  0.16914  0.53802  0.11246  1.0000
  H   H3        1.0  0.90350  0.47190  0.10809  1.0000
  H   H4        1.0  0.09648  0.52809  0.89191  1.0000
  H   H5        1.0  0.78468  0.62728  0.29005  1.0000
  H   H6        1.0  0.21531  0.37273  0.70995  1.0000
  H   H7        1.0  0.57059  0.76424  0.25347  1.0000
  H   H8        1.0  0.42940  0.23577  0.74653  1.0000
  H   H9        1.0  0.49444  0.94614  0.85962  1.0000
  H   H10       1.0  0.50556  0.05387  0.14038  1.0000
  H   H11       1.0  0.43386  0.75143  0.70604  1.0000
  H   H12       1.0  0.56613  0.24859  0.29397  1.0000
  H   H13       1.0  0.93519  0.88043  0.91387  1.0000
  H   H14       1.0  0.06480  0.11956  0.08613  1.0000
  H   H15       1.0  0.11040  0.54411  0.62298  1.0000
  H   H16       1.0  0.88961  0.45590  0.37703  1.0000
  H   H17       1.0  0.88049  0.04006  0.47112  1.0000
  H   H18       1.0  0.11951  0.95993  0.52887  1.0000
  H   H19       1.0  0.89393  0.08619  0.63991  1.0000
  H   H20       1.0  0.10610  0.91381  0.36008  1.0000
  H   H21       1.0  0.69708  0.95259  0.51523  1.0000
  H   H22       1.0  0.30294  0.04742  0.48478  1.0000
  C   C1        1.0  0.66850  0.61640  0.94955  1.0000
  C   C2        1.0  0.33150  0.38360  0.05045  1.0000
  C   C3        1.0  0.78158  0.53497  0.96768  1.0000
  C   C4        1.0  0.21841  0.46502  0.03232  1.0000
  C   C5        1.0  0.81682  0.53729  0.09127  1.0000
  C   C6        1.0  0.18318  0.46271  0.90872  1.0000
  C   C7        1.0  0.74898  0.62545  0.19543  1.0000
  C   C8        1.0  0.25101  0.37455  0.80457  1.0000
  C   C9        1.0  0.63055  0.70189  0.17691  1.0000
  C   C10       1.0  0.36945  0.29811  0.82309  1.0000
  C   C11       1.0  0.58993  0.69897  0.05229  1.0000
  C   C12       1.0  0.41006  0.30103  0.94771  1.0000
  C   C13       1.0  0.50507  0.73210  0.88330  1.0000
  C   C14       1.0  0.49493  0.26792  0.11671  1.0000
  C   C15       1.0  0.42489  0.80662  0.80860  1.0000
  C   C16       1.0  0.57511  0.19339  0.19140  1.0000
  C   C17       1.0  0.02072  0.82381  0.86078  1.0000
  C   C18       1.0  0.97928  0.17620  0.13923  1.0000
  C   C19       1.0  0.10293  0.64920  0.71084  1.0000
  C   C20       1.0  0.89707  0.35079  0.28916  1.0000
  C   C21       1.0  0.75491  0.21723  0.57311  1.0000
  C   C22       1.0  0.24511  0.78276  0.42688  1.0000
  C   C23       1.0  0.81149  0.06557  0.54753  1.0000
  C   C24       1.0  0.18852  0.93442  0.45247  1.0000
  N   N1        1.0  0.60979  0.64420  0.84316  1.0000
  N   N2        1.0  0.39020  0.35580  0.15683  1.0000
  N   N3        1.0  0.48454  0.76647  0.01042  1.0000
  N   N4        1.0  0.51546  0.23353  0.98957  1.0000
  N   N5        1.0  0.24262  0.78164  0.80388  1.0000
  N   N6        1.0  0.75739  0.21837  0.19613  1.0000
  N   N7        1.0  0.19247  0.89529  0.90078  1.0000
  N   N8        1.0  0.80752  0.10471  0.09921  1.0000
  N   N9        1.0  0.95996  0.67198  0.74505  1.0000
  N   N10       1.0  0.04004  0.32802  0.25495  1.0000
  Cl  Cl1       1.0  0.67198  0.64812  0.48986  1.0000
  Cl  Cl2       1.0  0.32803  0.35188  0.51014  1.0000
  O   O1        1.0  0.76561  0.28149  0.49561  1.0000
  O   O2        1.0  0.23441  0.71850  0.50439  1.0000
  O   O3        1.0  0.69623  0.27893  0.67387  1.0000
  O   O4        1.0  0.30378  0.72107  0.32612  1.0000
