data_image0
_chemical_formula_structural       Ag8H64C40N16O20
_chemical_formula_sum              "Ag8 H64 C40 N16 O20"
_cell_length_a       6.21984
_cell_length_b       11.6484
_cell_length_c       21.998
_cell_angle_alpha    90
_cell_angle_beta     97.7797
_cell_angle_gamma    90

_space_group_name_H-M_alt    "P 1"
_space_group_IT_number       1

loop_
  _space_group_symop_operation_xyz
  'x, y, z'

loop_
  _atom_site_type_symbol
  _atom_site_label
  _atom_site_symmetry_multiplicity
  _atom_site_fract_x
  _atom_site_fract_y
  _atom_site_fract_z
  _atom_site_occupancy
  Ag  Ag1       1.0  0.07812  0.62390  0.71309  1.0000
  Ag  Ag2       1.0  0.92188  0.12390  0.78691  1.0000
  Ag  Ag3       1.0  0.92189  0.37610  0.28691  1.0000
  Ag  Ag4       1.0  0.07811  0.87610  0.21309  1.0000
  Ag  Ag5       1.0  0.58791  0.48223  0.94758  1.0000
  Ag  Ag6       1.0  0.41209  0.98224  0.55242  1.0000
  Ag  Ag7       1.0  0.41208  0.51776  0.05242  1.0000
  Ag  Ag8       1.0  0.58791  0.01777  0.44757  1.0000
  H   H1        1.0  0.08911  0.54517  0.93652  1.0000
  H   H2        1.0  0.91090  0.04517  0.56348  1.0000
  H   H3        1.0  0.91088  0.45482  0.06348  1.0000
  H   H4        1.0  0.08910  0.95482  0.43652  1.0000
  H   H5        1.0  0.05298  0.39741  0.95586  1.0000
  H   H6        1.0  0.94703  0.89741  0.54414  1.0000
  H   H7        1.0  0.94701  0.60258  0.04414  1.0000
  H   H8        1.0  0.05297  0.10258  0.45586  1.0000
  H   H9        1.0  0.32418  0.27694  0.83491  1.0000
  H   H10       1.0  0.67582  0.77694  0.66509  1.0000
  H   H11       1.0  0.67581  0.72306  0.16509  1.0000
  H   H12       1.0  0.32418  0.22306  0.33491  1.0000
  H   H13       1.0  0.18489  0.24978  0.89925  1.0000
  H   H14       1.0  0.81511  0.74978  0.60075  1.0000
  H   H15       1.0  0.81509  0.75022  0.10075  1.0000
  H   H16       1.0  0.18488  0.25022  0.39925  1.0000
  H   H17       1.0  0.79954  0.27999  0.89194  1.0000
  H   H18       1.0  0.20046  0.78000  0.60806  1.0000
  H   H19       1.0  0.20044  0.72000  0.10805  1.0000
  H   H20       1.0  0.79954  0.22000  0.39194  1.0000
  H   H21       1.0  0.65519  0.33654  0.82242  1.0000
  H   H22       1.0  0.34481  0.83654  0.67758  1.0000
  H   H23       1.0  0.34479  0.66346  0.17758  1.0000
  H   H24       1.0  0.65519  0.16346  0.32242  1.0000
  H   H25       1.0  0.27828  0.59079  0.84904  1.0000
  H   H26       1.0  0.72172  0.09080  0.65096  1.0000
  H   H27       1.0  0.72171  0.40920  0.15097  1.0000
  H   H28       1.0  0.27828  0.90920  0.34903  1.0000
  H   H29       1.0  0.36912  0.47642  0.80462  1.0000
  H   H30       1.0  0.63089  0.97642  0.69538  1.0000
  H   H31       1.0  0.63087  0.52358  0.19538  1.0000
  H   H32       1.0  0.36911  0.02358  0.30462  1.0000
  H   H33       1.0  0.83503  0.38189  0.73767  1.0000
  H   H34       1.0  0.16498  0.88189  0.76233  1.0000
  H   H35       1.0  0.16496  0.61812  0.26233  1.0000
  H   H36       1.0  0.83503  0.11811  0.23767  1.0000
  H   H37       1.0  0.12188  0.36089  0.74055  1.0000
  H   H38       1.0  0.87813  0.86089  0.75945  1.0000
  H   H39       1.0  0.87811  0.63912  0.25945  1.0000
  H   H40       1.0  0.12188  0.13912  0.24055  1.0000
  H   H41       1.0  0.70333  0.53912  0.79599  1.0000
  H   H42       1.0  0.29668  0.03912  0.70401  1.0000
  H   H43       1.0  0.29667  0.46088  0.20401  1.0000
  H   H44       1.0  0.70332  0.96088  0.29599  1.0000
  H   H45       1.0  0.89079  0.62366  0.84552  1.0000
  H   H46       1.0  0.10921  0.12366  0.65448  1.0000
  H   H47       1.0  0.10920  0.37634  0.15448  1.0000
  H   H48       1.0  0.89079  0.87634  0.34551  1.0000
  H   H49       1.0  0.79108  0.50891  0.64675  1.0000
  H   H50       1.0  0.20894  0.00890  0.85325  1.0000
  H   H51       1.0  0.20892  0.49111  0.35325  1.0000
  H   H52       1.0  0.79107  0.99110  0.14675  1.0000
  H   H53       1.0  0.59805  0.55173  0.58356  1.0000
  H   H54       1.0  0.40198  0.05173  0.91644  1.0000
  H   H55       1.0  0.40196  0.44827  0.41644  1.0000
  H   H56       1.0  0.59803  0.94827  0.08356  1.0000
  H   H57       1.0  0.64941  0.40400  0.51845  1.0000
  H   H58       1.0  0.35060  0.90399  0.98155  1.0000
  H   H59       1.0  0.35060  0.59601  0.48156  1.0000
  H   H60       1.0  0.64941  0.09600  0.01845  1.0000
  H   H61       1.0  0.86871  0.34790  0.57008  1.0000
  H   H62       1.0  0.13132  0.84790  0.92991  1.0000
  H   H63       1.0  0.13131  0.65210  0.42992  1.0000
  H   H64       1.0  0.86869  0.15210  0.07009  1.0000
  C   C1        1.0  0.05931  0.45824  0.91799  1.0000
  C   C2        1.0  0.94070  0.95824  0.58201  1.0000
  C   C3        1.0  0.94070  0.54175  0.08202  1.0000
  C   C4        1.0  0.05929  0.04175  0.41798  1.0000
  C   C5        1.0  0.19533  0.30776  0.86033  1.0000
  C   C6        1.0  0.80468  0.80776  0.63967  1.0000
  C   C7        1.0  0.80466  0.69224  0.13966  1.0000
  C   C8        1.0  0.19533  0.19224  0.36034  1.0000
  C   C9        1.0  0.80860  0.33920  0.85361  1.0000
  C   C10       1.0  0.19140  0.83920  0.64640  1.0000
  C   C11       1.0  0.19139  0.66080  0.14639  1.0000
  C   C12       1.0  0.80860  0.16080  0.35361  1.0000
  C   C13       1.0  0.24217  0.50358  0.83171  1.0000
  C   C14       1.0  0.75782  0.00358  0.66829  1.0000
  C   C15       1.0  0.75782  0.49642  0.16829  1.0000
  C   C16       1.0  0.24217  0.99642  0.33170  1.0000
  C   C17       1.0  0.99198  0.38464  0.76734  1.0000
  C   C18       1.0  0.00803  0.88464  0.73266  1.0000
  C   C19       1.0  0.00801  0.61536  0.23266  1.0000
  C   C20       1.0  0.99197  0.11536  0.26734  1.0000
  C   C21       1.0  0.85752  0.53701  0.82685  1.0000
  C   C22       1.0  0.14249  0.03701  0.67315  1.0000
  C   C23       1.0  0.14248  0.46299  0.17315  1.0000
  C   C24       1.0  0.85751  0.96299  0.32685  1.0000
  C   C25       1.0  0.62347  0.22415  0.53702  1.0000
  C   C26       1.0  0.37654  0.72414  0.96298  1.0000
  C   C27       1.0  0.37654  0.77586  0.46298  1.0000
  C   C28       1.0  0.62345  0.27585  0.03702  1.0000
  C   C29       1.0  0.68988  0.34549  0.55814  1.0000
  C   C30       1.0  0.31014  0.84548  0.94186  1.0000
  C   C31       1.0  0.31014  0.65452  0.44186  1.0000
  C   C32       1.0  0.68986  0.15451  0.05814  1.0000
  C   C33       1.0  0.62135  0.49536  0.62469  1.0000
  C   C34       1.0  0.37868  0.99536  0.87531  1.0000
  C   C35       1.0  0.37866  0.50464  0.37531  1.0000
  C   C36       1.0  0.62133  0.00464  0.12469  1.0000
  C   C37       1.0  0.46266  0.53769  0.66750  1.0000
  C   C38       1.0  0.53737  0.03768  0.83250  1.0000
  C   C39       1.0  0.53734  0.46232  0.33250  1.0000
  C   C40       1.0  0.46265  0.96231  0.16750  1.0000
  N   N1        1.0  0.84764  0.45622  0.87795  1.0000
  N   N2        1.0  0.15237  0.95622  0.62205  1.0000
  N   N3        1.0  0.15236  0.54378  0.12205  1.0000
  N   N4        1.0  0.84763  0.04378  0.37794  1.0000
  N   N5        1.0  0.23758  0.42474  0.88367  1.0000
  N   N6        1.0  0.76242  0.92474  0.61633  1.0000
  N   N7        1.0  0.76241  0.57526  0.11633  1.0000
  N   N8        1.0  0.23758  0.07525  0.38367  1.0000
  N   N9        1.0  0.03236  0.50308  0.79072  1.0000
  N   N10       1.0  0.96764  0.00308  0.70928  1.0000
  N   N11       1.0  0.96763  0.49693  0.20928  1.0000
  N   N12       1.0  0.03236  0.99693  0.29072  1.0000
  N   N13       1.0  0.98508  0.30228  0.81871  1.0000
  N   N14       1.0  0.01493  0.80228  0.68129  1.0000
  N   N15       1.0  0.01491  0.69772  0.18129  1.0000
  N   N16       1.0  0.98508  0.19772  0.31871  1.0000
  O   O1        1.0  0.71505  0.18716  0.49231  1.0000
  O   O2        1.0  0.28496  0.68715  0.00769  1.0000
  O   O3        1.0  0.28495  0.81285  0.50769  1.0000
  O   O4        1.0  0.71503  0.31284  0.99231  1.0000
  O   O5        1.0  0.48893  0.17091  0.56492  1.0000
  O   O6        1.0  0.51107  0.67091  0.93508  1.0000
  O   O7        1.0  0.51106  0.82909  0.43508  1.0000
  O   O8        1.0  0.48891  0.32908  0.06492  1.0000
  O   O9        1.0  0.58229  0.37925  0.60800  1.0000
  O   O10       1.0  0.41775  0.87925  0.89201  1.0000
  O   O11       1.0  0.41774  0.62075  0.39201  1.0000
  O   O12       1.0  0.58226  0.12075  0.10800  1.0000
  O   O13       1.0  0.27867  0.48874  0.66382  1.0000
  O   O14       1.0  0.72136  0.98872  0.83618  1.0000
  O   O15       1.0  0.72134  0.51126  0.33618  1.0000
  O   O16       1.0  0.27866  0.01127  0.16383  1.0000
  O   O17       1.0  0.52483  0.62261  0.70171  1.0000
  O   O18       1.0  0.47520  0.12260  0.79829  1.0000
  O   O19       1.0  0.47517  0.37739  0.29829  1.0000
  O   O20       1.0  0.52481  0.87739  0.20171  1.0000
