data_image0
_chemical_formula_structural       Ag4H36C48S4N8O16
_chemical_formula_sum              "Ag4 H36 C48 S4 N8 O16"
_cell_length_a       8.3385
_cell_length_b       9.72659
_cell_length_c       14.934
_cell_angle_alpha    90
_cell_angle_beta     94.3757
_cell_angle_gamma    90

_space_group_name_H-M_alt    "P 1"
_space_group_IT_number       1

loop_
  _space_group_symop_operation_xyz
  'x, y, z'

loop_
  _atom_site_type_symbol
  _atom_site_label
  _atom_site_symmetry_multiplicity
  _atom_site_fract_x
  _atom_site_fract_y
  _atom_site_fract_z
  _atom_site_occupancy
  Ag  Ag1       1.0  0.15605  0.78493  0.41557  1.0000
  Ag  Ag2       1.0  0.34395  0.28493  0.08443  1.0000
  Ag  Ag3       1.0  0.84395  0.21508  0.58443  1.0000
  Ag  Ag4       1.0  0.65605  0.71507  0.91557  1.0000
  H   H1        1.0  0.07301  0.29322  0.99700  1.0000
  H   H2        1.0  0.42698  0.79322  0.50300  1.0000
  H   H3        1.0  0.92698  0.70678  0.00301  1.0000
  H   H4        1.0  0.57302  0.20678  0.49700  1.0000
  H   H5        1.0  0.64651  0.25911  0.32834  1.0000
  H   H6        1.0  0.85349  0.75911  0.17166  1.0000
  H   H7        1.0  0.35349  0.74089  0.67166  1.0000
  H   H8        1.0  0.14651  0.24089  0.82834  1.0000
  H   H9        1.0  0.65890  0.81835  0.30011  1.0000
  H   H10       1.0  0.84110  0.31835  0.19989  1.0000
  H   H11       1.0  0.34110  0.18165  0.69989  1.0000
  H   H12       1.0  0.15890  0.68165  0.80011  1.0000
  H   H13       1.0  0.38414  0.82281  0.22321  1.0000
  H   H14       1.0  0.11585  0.32281  0.27680  1.0000
  H   H15       1.0  0.61585  0.17719  0.77679  1.0000
  H   H16       1.0  0.88415  0.67719  0.72321  1.0000
  H   H17       1.0  0.63702  0.00286  0.10569  1.0000
  H   H18       1.0  0.86298  0.50286  0.39431  1.0000
  H   H19       1.0  0.36298  0.99714  0.89431  1.0000
  H   H20       1.0  0.13702  0.49714  0.60569  1.0000
  H   H21       1.0  0.91840  0.98302  0.17754  1.0000
  H   H22       1.0  0.58159  0.48302  0.32246  1.0000
  H   H23       1.0  0.08160  0.01698  0.82245  1.0000
  H   H24       1.0  0.41841  0.51698  0.67754  1.0000
  H   H25       1.0  0.79397  0.31512  0.92719  1.0000
  H   H26       1.0  0.70603  0.81512  0.57281  1.0000
  H   H27       1.0  0.20603  0.68488  0.07281  1.0000
  H   H28       1.0  0.29397  0.18488  0.42719  1.0000
  H   H29       1.0  0.52469  0.24094  0.93104  1.0000
  H   H30       1.0  0.97530  0.74094  0.56896  1.0000
  H   H31       1.0  0.47530  0.75906  0.06896  1.0000
  H   H32       1.0  0.02470  0.25906  0.43104  1.0000
  H   H33       1.0  0.37188  0.26521  0.25419  1.0000
  H   H34       1.0  0.12812  0.76521  0.24581  1.0000
  H   H35       1.0  0.62811  0.73479  0.74581  1.0000
  H   H36       1.0  0.87189  0.23479  0.75419  1.0000
  C   C1        1.0  0.66819  0.03867  0.31834  1.0000
  C   C2        1.0  0.83181  0.53867  0.18166  1.0000
  C   C3        1.0  0.33181  0.96133  0.68166  1.0000
  C   C4        1.0  0.16820  0.46133  0.81834  1.0000
  C   C5        1.0  0.58871  0.16413  0.30464  1.0000
  C   C6        1.0  0.91128  0.66413  0.19536  1.0000
  C   C7        1.0  0.41128  0.83587  0.69536  1.0000
  C   C8        1.0  0.08872  0.33587  0.80465  1.0000
  C   C9        1.0  0.43539  0.16724  0.26071  1.0000
  C   C10       1.0  0.06461  0.66725  0.23929  1.0000
  C   C11       1.0  0.56461  0.83276  0.73929  1.0000
  C   C12       1.0  0.93539  0.33275  0.76071  1.0000
  C   C13       1.0  0.36152  0.04359  0.23029  1.0000
  C   C14       1.0  0.13848  0.54359  0.26972  1.0000
  C   C15       1.0  0.63848  0.95641  0.76971  1.0000
  C   C16       1.0  0.86152  0.45641  0.73029  1.0000
  C   C17       1.0  0.44129  0.91788  0.24696  1.0000
  C   C18       1.0  0.05871  0.41788  0.25304  1.0000
  C   C19       1.0  0.55871  0.08212  0.75304  1.0000
  C   C20       1.0  0.94129  0.58212  0.74696  1.0000
  C   C21       1.0  0.59519  0.91526  0.28956  1.0000
  C   C22       1.0  0.90481  0.41526  0.21044  1.0000
  C   C23       1.0  0.40481  0.08474  0.71044  1.0000
  C   C24       1.0  0.09519  0.58474  0.78956  1.0000
  C   C25       1.0  0.01339  0.13438  0.09005  1.0000
  C   C26       1.0  0.48661  0.63438  0.40995  1.0000
  C   C27       1.0  0.98661  0.86562  0.90995  1.0000
  C   C28       1.0  0.51340  0.36562  0.59005  1.0000
  C   C29       1.0  0.97718  0.22797  0.01960  1.0000
  C   C30       1.0  0.52282  0.72797  0.48040  1.0000
  C   C31       1.0  0.02281  0.77203  0.98040  1.0000
  C   C32       1.0  0.47719  0.27203  0.51960  1.0000
  C   C33       1.0  0.82209  0.24017  0.98022  1.0000
  C   C34       1.0  0.67791  0.74018  0.51978  1.0000
  C   C35       1.0  0.17791  0.75983  0.01978  1.0000
  C   C36       1.0  0.32210  0.25982  0.48022  1.0000
  C   C37       1.0  0.69934  0.15879  0.01214  1.0000
  C   C38       1.0  0.80066  0.65879  0.48786  1.0000
  C   C39       1.0  0.30066  0.84121  0.98786  1.0000
  C   C40       1.0  0.19934  0.34120  0.51214  1.0000
  C   C41       1.0  0.73490  0.06406  0.08249  1.0000
  C   C42       1.0  0.76509  0.56407  0.41751  1.0000
  C   C43       1.0  0.26509  0.93593  0.91751  1.0000
  C   C44       1.0  0.23491  0.43593  0.58249  1.0000
  C   C45       1.0  0.88984  0.05221  0.12129  1.0000
  C   C46       1.0  0.61015  0.55221  0.37871  1.0000
  C   C47       1.0  0.11015  0.94779  0.87871  1.0000
  C   C48       1.0  0.38985  0.44779  0.62129  1.0000
  S   S1        1.0  0.85772  0.03341  0.38130  1.0000
  S   S2        1.0  0.64228  0.53341  0.11870  1.0000
  S   S3        1.0  0.14228  0.96659  0.61870  1.0000
  S   S4        1.0  0.35772  0.46659  0.88130  1.0000
  N   N1        1.0  0.20778  0.03733  0.18567  1.0000
  N   N2        1.0  0.29222  0.53733  0.31433  1.0000
  N   N3        1.0  0.79222  0.96267  0.81433  1.0000
  N   N4        1.0  0.70778  0.46267  0.68567  1.0000
  N   N5        1.0  0.17205  0.13157  0.12841  1.0000
  N   N6        1.0  0.32795  0.63157  0.37159  1.0000
  N   N7        1.0  0.82794  0.86843  0.87159  1.0000
  N   N8        1.0  0.67206  0.36843  0.62841  1.0000
  O   O1        1.0  0.94876  0.15569  0.35542  1.0000
  O   O2        1.0  0.55124  0.65569  0.14458  1.0000
  O   O3        1.0  0.05124  0.84431  0.64458  1.0000
  O   O4        1.0  0.44876  0.34431  0.85542  1.0000
  O   O5        1.0  0.81937  0.03630  0.47607  1.0000
  O   O6        1.0  0.68062  0.53630  0.02393  1.0000
  O   O7        1.0  0.18062  0.96370  0.52393  1.0000
  O   O8        1.0  0.31938  0.46370  0.97607  1.0000
  O   O9        1.0  0.93014  0.90329  0.35477  1.0000
  O   O10       1.0  0.56986  0.40329  0.14523  1.0000
  O   O11       1.0  0.06986  0.09672  0.64523  1.0000
  O   O12       1.0  0.43014  0.59671  0.85477  1.0000
  O   O13       1.0  0.54440  0.16859  0.97945  1.0000
  O   O14       1.0  0.95560  0.66860  0.52055  1.0000
  O   O15       1.0  0.45560  0.83140  0.02055  1.0000
  O   O16       1.0  0.04440  0.33140  0.47945  1.0000
