data_image0
_chemical_formula_structural       Ag2H46C52S2N12O8
_chemical_formula_sum              "Ag2 H46 C52 S2 N12 O8"
_cell_length_a       7.09613
_cell_length_b       13.6127
_cell_length_c       15.4526
_cell_angle_alpha    110.314
_cell_angle_beta     101.754
_cell_angle_gamma    98.6292

_space_group_name_H-M_alt    "P 1"
_space_group_IT_number       1

loop_
  _space_group_symop_operation_xyz
  'x, y, z'

loop_
  _atom_site_type_symbol
  _atom_site_label
  _atom_site_symmetry_multiplicity
  _atom_site_fract_x
  _atom_site_fract_y
  _atom_site_fract_z
  _atom_site_occupancy
  Ag  Ag1       1.0  0.79036  0.47156  0.43033  1.0000
  Ag  Ag2       1.0  0.20964  0.52844  0.56967  1.0000
  H   H1        1.0  0.85038  0.35259  0.23484  1.0000
  H   H2        1.0  0.14965  0.64742  0.76516  1.0000
  H   H3        1.0  0.82028  0.37016  0.07733  1.0000
  H   H4        1.0  0.17974  0.62984  0.92267  1.0000
  H   H5        1.0  0.74809  0.69268  0.21375  1.0000
  H   H6        1.0  0.25190  0.30731  0.78625  1.0000
  H   H7        1.0  0.77209  0.65968  0.36422  1.0000
  H   H8        1.0  0.22790  0.34032  0.63578  1.0000
  H   H9        1.0  0.87300  0.71917  0.09167  1.0000
  H   H10       1.0  0.12699  0.28083  0.90833  1.0000
  H   H11       1.0  0.61071  0.67616  0.05250  1.0000
  H   H12       1.0  0.38929  0.32383  0.94750  1.0000
  H   H13       1.0  0.74967  0.65538  0.96640  1.0000
  H   H14       1.0  0.25033  0.34462  0.03360  1.0000
  H   H15       1.0  0.68117  0.27589  0.87415  1.0000
  H   H16       1.0  0.31882  0.72411  0.12585  1.0000
  H   H17       1.0  0.80664  0.24261  0.78330  1.0000
  H   H18       1.0  0.19335  0.75739  0.21669  1.0000
  H   H19       1.0  0.54798  0.22131  0.74952  1.0000
  H   H20       1.0  0.45201  0.77869  0.25048  1.0000
  H   H21       1.0  0.66479  0.56516  0.76340  1.0000
  H   H22       1.0  0.33521  0.43484  0.23660  1.0000
  H   H23       1.0  0.67553  0.58321  0.60880  1.0000
  H   H24       1.0  0.32447  0.41679  0.39120  1.0000
  H   H25       1.0  0.74948  0.27366  0.48877  1.0000
  H   H26       1.0  0.25052  0.72634  0.51123  1.0000
  H   H27       1.0  0.72739  0.23856  0.63364  1.0000
  H   H28       1.0  0.27260  0.76144  0.36636  1.0000
  H   H29       1.0  0.46512  0.25459  0.37354  1.0000
  H   H30       1.0  0.53488  0.74540  0.62646  1.0000
  H   H31       1.0  0.87955  0.17084  0.18059  1.0000
  H   H32       1.0  0.12045  0.82916  0.81941  1.0000
  H   H33       1.0  0.39074  0.18173  0.07209  1.0000
  H   H34       1.0  0.60926  0.81827  0.92791  1.0000
  H   H35       1.0  0.61214  0.23235  0.23820  1.0000
  H   H36       1.0  0.38786  0.76765  0.76180  1.0000
  H   H37       1.0  0.44415  0.06987  0.95040  1.0000
  H   H38       1.0  0.55586  0.93013  0.04960  1.0000
  H   H39       1.0  0.22530  0.99454  0.78237  1.0000
  H   H40       1.0  0.77469  0.00546  0.21763  1.0000
  H   H41       1.0  0.74263  0.99292  0.67625  1.0000
  H   H42       1.0  0.25736  0.00708  0.32375  1.0000
  H   H43       1.0  0.96025  0.07096  0.84507  1.0000
  H   H44       1.0  0.03975  0.92904  0.15493  1.0000
  H   H45       1.0  0.21647  0.92367  0.62225  1.0000
  H   H46       1.0  0.78352  0.07633  0.37776  1.0000
  C   C1        1.0  0.82315  0.42556  0.22588  1.0000
  C   C2        1.0  0.17688  0.57444  0.77412  1.0000
  C   C3        1.0  0.80763  0.43611  0.13880  1.0000
  C   C4        1.0  0.19239  0.56389  0.86120  1.0000
  C   C5        1.0  0.77744  0.53270  0.13079  1.0000
  C   C6        1.0  0.22257  0.46730  0.86921  1.0000
  C   C7        1.0  0.76887  0.61520  0.21419  1.0000
  C   C8        1.0  0.23113  0.38480  0.78581  1.0000
  C   C9        1.0  0.78221  0.59800  0.29874  1.0000
  C   C10       1.0  0.21779  0.40200  0.70126  1.0000
  C   C11       1.0  0.75763  0.54740  0.03897  1.0000
  C   C12       1.0  0.24237  0.45260  0.96103  1.0000
  C   C13       1.0  0.74780  0.65559  0.03696  1.0000
  C   C14       1.0  0.25219  0.34441  0.96304  1.0000
  C   C15       1.0  0.70695  0.38750  0.80491  1.0000
  C   C16       1.0  0.29305  0.61250  0.19510  1.0000
  C   C17       1.0  0.68340  0.27636  0.80388  1.0000
  C   C18       1.0  0.31659  0.72364  0.19611  1.0000
  C   C19       1.0  0.70236  0.40119  0.71376  1.0000
  C   C20       1.0  0.29765  0.59882  0.28623  1.0000
  C   C21       1.0  0.68367  0.49853  0.70431  1.0000
  C   C22       1.0  0.31632  0.50148  0.29569  1.0000
  C   C23       1.0  0.68960  0.50926  0.61888  1.0000
  C   C24       1.0  0.31040  0.49074  0.38112  1.0000
  C   C25       1.0  0.72865  0.33551  0.55087  1.0000
  C   C26       1.0  0.27135  0.66449  0.44913  1.0000
  C   C27       1.0  0.71812  0.31744  0.63310  1.0000
  C   C28       1.0  0.28188  0.68257  0.36691  1.0000
  C   C29       1.0  0.37089  0.23361  0.30168  1.0000
  C   C30       1.0  0.62911  0.76638  0.69832  1.0000
  C   C31       1.0  0.16520  0.21733  0.28570  1.0000
  C   C32       1.0  0.83480  0.78267  0.71430  1.0000
  C   C33       1.0  0.03998  0.18649  0.19395  1.0000
  C   C34       1.0  0.96002  0.81350  0.80605  1.0000
  C   C35       1.0  0.12251  0.17302  0.11632  1.0000
  C   C36       1.0  0.87749  0.82698  0.88368  1.0000
  C   C37       1.0  0.32947  0.19226  0.13295  1.0000
  C   C38       1.0  0.67053  0.80774  0.86704  1.0000
  C   C39       1.0  0.45233  0.22142  0.22484  1.0000
  C   C40       1.0  0.54768  0.77857  0.77516  1.0000
  C   C41       1.0  0.71581  0.07849  0.90855  1.0000
  C   C42       1.0  0.28419  0.92151  0.09145  1.0000
  C   C43       1.0  0.50804  0.05599  0.88999  1.0000
  C   C44       1.0  0.49196  0.94400  0.11001  1.0000
  C   C45       1.0  0.38617  0.01366  0.79670  1.0000
  C   C46       1.0  0.61382  0.98634  0.20330  1.0000
  C   C47       1.0  0.47083  0.99146  0.71902  1.0000
  C   C48       1.0  0.52916  0.00854  0.28098  1.0000
  C   C49       1.0  0.67960  0.01356  0.73715  1.0000
  C   C50       1.0  0.32040  0.98644  0.26285  1.0000
  C   C51       1.0  0.79947  0.05596  0.83022  1.0000
  C   C52       1.0  0.20052  0.94404  0.16978  1.0000
  S   S1        1.0  0.06360  0.23427  0.38540  1.0000
  S   S2        1.0  0.93640  0.76572  0.61459  1.0000
  N   N1        1.0  0.80684  0.50405  0.30467  1.0000
  N   N2        1.0  0.19317  0.49595  0.69533  1.0000
  N   N3        1.0  0.74924  0.46137  0.96494  1.0000
  N   N4        1.0  0.25077  0.53863  0.03506  1.0000
  N   N5        1.0  0.73666  0.47604  0.88039  1.0000
  N   N6        1.0  0.26335  0.52396  0.11961  1.0000
  N   N7        1.0  0.71831  0.43067  0.54411  1.0000
  N   N8        1.0  0.28169  0.56934  0.45589  1.0000
  N   N9        1.0  0.01250  0.13766  0.01950  1.0000
  N   N10       1.0  0.98750  0.86234  0.98050  1.0000
  N   N11       1.0  0.82494  0.11912  0.00494  1.0000
  N   N12       1.0  0.17506  0.88088  0.99506  1.0000
  O   O1        1.0  0.88725  0.27575  0.36360  1.0000
  O   O2        1.0  0.11275  0.72424  0.63640  1.0000
  O   O3        1.0  0.21957  0.30993  0.47121  1.0000
  O   O4        1.0  0.78043  0.69007  0.52879  1.0000
  O   O5        1.0  0.01205  0.12539  0.38700  1.0000
  O   O6        1.0  0.98795  0.87460  0.61299  1.0000
  O   O7        1.0  0.36139  0.94796  0.62693  1.0000
  O   O8        1.0  0.63861  0.05204  0.37307  1.0000
