data_image0
_chemical_formula_structural       Ag2H38C50N12O6
_chemical_formula_sum              "Ag2 H38 C50 N12 O6"
_cell_length_a       7.10655
_cell_length_b       12.9668
_cell_length_c       13.2859
_cell_angle_alpha    67.8496
_cell_angle_beta     82.4005
_cell_angle_gamma    76.6684

_space_group_name_H-M_alt    "P 1"
_space_group_IT_number       1

loop_
  _space_group_symop_operation_xyz
  'x, y, z'

loop_
  _atom_site_type_symbol
  _atom_site_label
  _atom_site_symmetry_multiplicity
  _atom_site_fract_x
  _atom_site_fract_y
  _atom_site_fract_z
  _atom_site_occupancy
  Ag  Ag1       1.0  0.71864  0.05005  0.39467  1.0000
  Ag  Ag2       1.0  0.28136  0.94995  0.60533  1.0000
  H   H1        1.0  0.87552  0.01505  0.74086  1.0000
  H   H2        1.0  0.12448  0.98495  0.25914  1.0000
  H   H3        1.0  0.94788  0.80338  0.01181  1.0000
  H   H4        1.0  0.05212  0.19662  0.98819  1.0000
  H   H5        1.0  0.87650  0.61203  0.04825  1.0000
  H   H6        1.0  0.12350  0.38797  0.95175  1.0000
  H   H7        1.0  0.70823  0.72183  0.71864  1.0000
  H   H8        1.0  0.29177  0.27817  0.28136  1.0000
  H   H9        1.0  0.89851  0.38747  0.71800  1.0000
  H   H10       1.0  0.10149  0.61253  0.28200  1.0000
  H   H11       1.0  0.89580  0.18018  0.77161  1.0000
  H   H12       1.0  0.10420  0.81982  0.22840  1.0000
  H   H13       1.0  0.72791  0.07953  0.94307  1.0000
  H   H14       1.0  0.27208  0.92047  0.05693  1.0000
  H   H15       1.0  0.55302  0.18559  0.06313  1.0000
  H   H16       1.0  0.44698  0.81441  0.93687  1.0000
  H   H17       1.0  0.56701  0.38998  0.01208  1.0000
  H   H18       1.0  0.43299  0.61002  0.98792  1.0000
  H   H19       1.0  0.64331  0.80678  0.50099  1.0000
  H   H20       1.0  0.35669  0.19322  0.49901  1.0000
  H   H21       1.0  0.56163  0.68227  0.25346  1.0000
  H   H22       1.0  0.43837  0.31773  0.74654  1.0000
  H   H23       1.0  0.64584  0.86243  0.11398  1.0000
  H   H24       1.0  0.35416  0.13757  0.88602  1.0000
  H   H25       1.0  0.73144  0.00373  0.17796  1.0000
  H   H26       1.0  0.26855  0.99627  0.82204  1.0000
  H   H27       1.0  0.58590  0.61331  0.55894  1.0000
  H   H28       1.0  0.41410  0.38669  0.44106  1.0000
  H   H29       1.0  0.86539  0.18906  0.50160  1.0000
  H   H30       1.0  0.13460  0.81094  0.49840  1.0000
  H   H31       1.0  0.85104  0.52926  0.26604  1.0000
  H   H32       1.0  0.14896  0.47074  0.73396  1.0000
  H   H33       1.0  0.72289  0.46630  0.13345  1.0000
  H   H34       1.0  0.27711  0.53370  0.86655  1.0000
  H   H35       1.0  0.67195  0.26836  0.19572  1.0000
  H   H36       1.0  0.32805  0.73164  0.80428  1.0000
  H   H37       1.0  0.96293  0.32723  0.55675  1.0000
  H   H38       1.0  0.03707  0.67277  0.44325  1.0000
  C   C1        1.0  0.76699  0.93763  0.65107  1.0000
  C   C2        1.0  0.23301  0.06237  0.34893  1.0000
  C   C3        1.0  0.79355  0.84746  0.76179  1.0000
  C   C4        1.0  0.20645  0.15254  0.23821  1.0000
  C   C5        1.0  0.86553  0.87006  0.84520  1.0000
  C   C6        1.0  0.13447  0.12994  0.15480  1.0000
  C   C7        1.0  0.89175  0.78512  0.94925  1.0000
  C   C8        1.0  0.10825  0.21488  0.05075  1.0000
  C   C9        1.0  0.85229  0.67947  0.96909  1.0000
  C   C10       1.0  0.14771  0.32053  0.03091  1.0000
  C   C11       1.0  0.78922  0.65460  0.88602  1.0000
  C   C12       1.0  0.21078  0.34541  0.11398  1.0000
  C   C13       1.0  0.75824  0.73993  0.78310  1.0000
  C   C14       1.0  0.24176  0.26007  0.21690  1.0000
  C   C15       1.0  0.74019  0.39835  0.86473  1.0000
  C   C16       1.0  0.25981  0.60165  0.13527  1.0000
  C   C17       1.0  0.82673  0.34103  0.79421  1.0000
  C   C18       1.0  0.17327  0.65897  0.20580  1.0000
  C   C19       1.0  0.82397  0.22617  0.82424  1.0000
  C   C20       1.0  0.17603  0.77383  0.17576  1.0000
  C   C21       1.0  0.72879  0.16921  0.92175  1.0000
  C   C22       1.0  0.27121  0.83079  0.07825  1.0000
  C   C23       1.0  0.63366  0.22827  0.98896  1.0000
  C   C24       1.0  0.36633  0.77173  0.01104  1.0000
  C   C25       1.0  0.64026  0.34225  0.96123  1.0000
  C   C26       1.0  0.35974  0.65775  0.03877  1.0000
  C   C27       1.0  0.64230  0.81498  0.41620  1.0000
  C   C28       1.0  0.35770  0.18502  0.58380  1.0000
  C   C29       1.0  0.59833  0.72936  0.38828  1.0000
  C   C30       1.0  0.40166  0.27064  0.61172  1.0000
  C   C31       1.0  0.59739  0.74688  0.27728  1.0000
  C   C32       1.0  0.40261  0.25312  0.72272  1.0000
  C   C33       1.0  0.64315  0.84655  0.20063  1.0000
  C   C34       1.0  0.35685  0.15345  0.79936  1.0000
  C   C35       1.0  0.68837  0.92634  0.23557  1.0000
  C   C36       1.0  0.31163  0.07366  0.76443  1.0000
  C   C37       1.0  0.56213  0.62542  0.47467  1.0000
  C   C38       1.0  0.43787  0.37458  0.52533  1.0000
  C   C39       1.0  0.83828  0.25377  0.42081  1.0000
  C   C40       1.0  0.16172  0.74623  0.57919  1.0000
  C   C41       1.0  0.87249  0.36383  0.39303  1.0000
  C   C42       1.0  0.12751  0.63617  0.60696  1.0000
  C   C43       1.0  0.82855  0.44303  0.28831  1.0000
  C   C44       1.0  0.17146  0.55696  0.71169  1.0000
  C   C45       1.0  0.75600  0.40911  0.21625  1.0000
  C   C46       1.0  0.24400  0.59089  0.78374  1.0000
  C   C47       1.0  0.72719  0.29808  0.25034  1.0000
  C   C48       1.0  0.27281  0.70192  0.74966  1.0000
  C   C49       1.0  0.94169  0.39285  0.47526  1.0000
  C   C50       1.0  0.05830  0.60715  0.52474  1.0000
  N   N1        1.0  0.76590  0.54262  0.91348  1.0000
  N   N2        1.0  0.23410  0.45738  0.08652  1.0000
  N   N3        1.0  0.76268  0.51191  0.83342  1.0000
  N   N4        1.0  0.23732  0.48809  0.16658  1.0000
  N   N5        1.0  0.68666  0.91133  0.34177  1.0000
  N   N6        1.0  0.31334  0.08867  0.65823  1.0000
  N   N7        1.0  0.50863  0.54710  0.45347  1.0000
  N   N8        1.0  0.49136  0.45290  0.54653  1.0000
  N   N9        1.0  0.76594  0.22155  0.35114  1.0000
  N   N10       1.0  0.23406  0.77845  0.64885  1.0000
  N   N11       1.0  0.97177  0.49386  0.45490  1.0000
  N   N12       1.0  0.02823  0.50614  0.54510  1.0000
  O   O1        1.0  0.70223  0.91594  0.57866  1.0000
  O   O2        1.0  0.29777  0.08406  0.42134  1.0000
  O   O3        1.0  0.81452  0.03277  0.63633  1.0000
  O   O4        1.0  0.18548  0.96723  0.36367  1.0000
  O   O5        1.0  0.90876  0.97128  0.82448  1.0000
  O   O6        1.0  0.09124  0.02872  0.17552  1.0000
