data_image0
_chemical_formula_structural       Ba2H12C8O20
_chemical_formula_sum              "Ba2 H12 C8 O20"
_cell_length_a       5.39966
_cell_length_b       7.69873
_cell_length_c       11.8284
_cell_angle_alpha    76.4756
_cell_angle_beta     76.8221
_cell_angle_gamma    69.481

_space_group_name_H-M_alt    "P 1"
_space_group_IT_number       1

loop_
  _space_group_symop_operation_xyz
  'x, y, z'

loop_
  _atom_site_type_symbol
  _atom_site_label
  _atom_site_symmetry_multiplicity
  _atom_site_fract_x
  _atom_site_fract_y
  _atom_site_fract_z
  _atom_site_occupancy
  Ba  Ba1       1.0  0.15718  0.25012  0.75000  1.0000
  Ba  Ba2       1.0  0.84281  0.74988  0.25000  1.0000
  H   H1        1.0  0.81015  0.17558  0.03805  1.0000
  H   H2        1.0  0.02367  0.32427  0.46198  1.0000
  H   H3        1.0  0.18987  0.82442  0.96195  1.0000
  H   H4        1.0  0.97631  0.67573  0.53803  1.0000
  H   H5        1.0  0.54057  0.56828  0.81324  1.0000
  H   H6        1.0  0.92201  0.93201  0.68669  1.0000
  H   H7        1.0  0.45943  0.43173  0.18676  1.0000
  H   H8        1.0  0.07800  0.06799  0.31331  1.0000
  H   H9        1.0  0.68547  0.71296  0.74113  1.0000
  H   H10       1.0  0.13935  0.78732  0.75887  1.0000
  H   H11       1.0  0.31453  0.28704  0.25887  1.0000
  H   H12       1.0  0.86066  0.21268  0.24112  1.0000
  C   C1        1.0  0.07365  0.57046  0.96311  1.0000
  C   C2        1.0  0.60725  0.92964  0.53691  1.0000
  C   C3        1.0  0.92635  0.42954  0.03689  1.0000
  C   C4        1.0  0.39273  0.07036  0.46309  1.0000
  C   C5        1.0  0.58650  0.06648  0.98091  1.0000
  C   C6        1.0  0.63385  0.43355  0.51911  1.0000
  C   C7        1.0  0.41351  0.93351  0.01909  1.0000
  C   C8        1.0  0.36613  0.56647  0.48090  1.0000
  O   O1        1.0  0.62042  0.14757  0.87818  1.0000
  O   O2        1.0  0.64614  0.35258  0.62187  1.0000
  O   O3        1.0  0.37960  0.85243  0.12182  1.0000
  O   O4        1.0  0.35385  0.64742  0.37814  1.0000
  O   O5        1.0  0.21918  0.53582  0.86676  1.0000
  O   O6        1.0  0.62166  0.96438  0.63326  1.0000
  O   O7        1.0  0.78083  0.46418  0.13324  1.0000
  O   O8        1.0  0.37834  0.03563  0.36674  1.0000
  O   O9        1.0  0.03002  0.71606  0.00859  1.0000
  O   O10       1.0  0.75477  0.78402  0.49147  1.0000
  O   O11       1.0  0.96999  0.28394  0.99141  1.0000
  O   O12       1.0  0.24521  0.21598  0.50854  1.0000
  O   O13       1.0  0.71907  0.58455  0.78555  1.0000
  O   O14       1.0  0.08908  0.91571  0.71439  1.0000
  O   O15       1.0  0.28093  0.41546  0.21445  1.0000
  O   O16       1.0  0.91092  0.08428  0.28560  1.0000
  O   O17       1.0  0.68615  0.08058  0.06840  1.0000
  O   O18       1.0  0.83505  0.41935  0.43166  1.0000
  O   O19       1.0  0.31386  0.91943  0.93159  1.0000
  O   O20       1.0  0.16493  0.58065  0.56835  1.0000
