data_image0
_chemical_formula_structural       Ag4H24C32N4O12F12
_chemical_formula_sum              "Ag4 H24 C32 N4 O12 F12"
_cell_length_a       5.63482
_cell_length_b       11.2686
_cell_length_c       16.7564
_cell_angle_alpha    67.6257
_cell_angle_beta     80.3648
_cell_angle_gamma    75.5015

_space_group_name_H-M_alt    "P 1"
_space_group_IT_number       1

loop_
  _space_group_symop_operation_xyz
  'x, y, z'

loop_
  _atom_site_type_symbol
  _atom_site_label
  _atom_site_symmetry_multiplicity
  _atom_site_fract_x
  _atom_site_fract_y
  _atom_site_fract_z
  _atom_site_occupancy
  Ag  Ag1       1.0  0.07359  0.86164  0.69784  1.0000
  Ag  Ag2       1.0  0.63245  0.63870  0.80261  1.0000
  Ag  Ag3       1.0  0.92637  0.13836  0.30217  1.0000
  Ag  Ag4       1.0  0.36756  0.36130  0.19738  1.0000
  H   H1        1.0  0.75002  0.86239  0.62452  1.0000
  H   H2        1.0  0.23619  0.63789  0.87568  1.0000
  H   H3        1.0  0.24998  0.13760  0.37550  1.0000
  H   H4        1.0  0.76381  0.36211  0.12431  1.0000
  H   H5        1.0  0.49362  0.76327  0.57445  1.0000
  H   H6        1.0  0.83091  0.73691  0.92611  1.0000
  H   H7        1.0  0.50634  0.23672  0.42558  1.0000
  H   H8        1.0  0.16909  0.26310  0.07388  1.0000
  H   H9        1.0  0.86286  0.37540  0.56775  1.0000
  H   H10       1.0  0.80669  0.12497  0.93173  1.0000
  H   H11       1.0  0.13714  0.62459  0.43226  1.0000
  H   H12       1.0  0.19333  0.87502  0.06828  1.0000
  H   H13       1.0  0.09888  0.31873  0.49654  1.0000
  H   H14       1.0  0.91425  0.18134  0.00324  1.0000
  H   H15       1.0  0.90108  0.68126  0.50346  1.0000
  H   H16       1.0  0.08575  0.81866  0.99677  1.0000
  H   H17       1.0  0.25344  0.14108  0.62405  1.0000
  H   H18       1.0  0.01863  0.35906  0.87591  1.0000
  H   H19       1.0  0.74655  0.85892  0.37596  1.0000
  H   H20       1.0  0.98138  0.64092  0.12409  1.0000
  H   H21       1.0  0.98345  0.17583  0.68974  1.0000
  H   H22       1.0  0.84852  0.32488  0.80999  1.0000
  H   H23       1.0  0.01656  0.82418  0.31027  1.0000
  H   H24       1.0  0.15150  0.67510  0.19001  1.0000
  C   C1        1.0  0.64111  0.92388  0.56975  1.0000
  C   C2        1.0  0.13431  0.57625  0.93033  1.0000
  C   C3        1.0  0.35885  0.07612  0.43027  1.0000
  C   C4        1.0  0.86571  0.42375  0.06965  1.0000
  C   C5        1.0  0.49578  0.86692  0.54142  1.0000
  C   C6        1.0  0.90384  0.63317  0.95883  1.0000
  C   C7        1.0  0.50417  0.13307  0.45860  1.0000
  C   C8        1.0  0.09615  0.36684  0.04116  1.0000
  C   C9        1.0  0.64766  0.05739  0.52903  1.0000
  C   C10       1.0  0.23396  0.44266  0.97080  1.0000
  C   C11       1.0  0.35232  0.94260  0.47099  1.0000
  C   C12       1.0  0.76604  0.55734  0.02919  1.0000
  C   C13       1.0  0.80046  0.11946  0.55777  1.0000
  C   C14       1.0  0.47760  0.38069  0.94202  1.0000
  C   C15       1.0  0.19953  0.88054  0.44224  1.0000
  C   C16       1.0  0.52240  0.61931  0.05797  1.0000
  C   C17       1.0  0.95749  0.29075  0.54983  1.0000
  C   C18       1.0  0.79830  0.20949  0.94981  1.0000
  C   C19       1.0  0.04248  0.70924  0.45018  1.0000
  C   C20       1.0  0.20171  0.79050  0.05019  1.0000
  C   C21       1.0  0.05217  0.16742  0.62635  1.0000
  C   C22       1.0  0.84592  0.33294  0.87349  1.0000
  C   C23       1.0  0.94781  0.83257  0.37366  1.0000
  C   C24       1.0  0.15410  0.66705  0.12652  1.0000
  C   C25       1.0  0.47005  0.02945  0.82790  1.0000
  C   C26       1.0  0.32516  0.47056  0.67264  1.0000
  C   C27       1.0  0.52995  0.97055  0.17209  1.0000
  C   C28       1.0  0.67490  0.52948  0.32734  1.0000
  C   C29       1.0  0.42753  0.90930  0.81156  1.0000
  C   C30       1.0  0.14785  0.59141  0.68868  1.0000
  C   C31       1.0  0.57246  0.09070  0.18844  1.0000
  C   C32       1.0  0.85215  0.40861  0.31131  1.0000
  N   N1        1.0  0.95376  0.06397  0.61726  1.0000
  N   N2        1.0  0.63492  0.43633  0.88276  1.0000
  N   N3        1.0  0.04621  0.93602  0.38275  1.0000
  N   N4        1.0  0.36511  0.56366  0.11723  1.0000
  O   O1        1.0  0.21205  0.89346  0.82090  1.0000
  O   O2        1.0  0.92564  0.60805  0.67924  1.0000
  O   O3        1.0  0.78793  0.10656  0.17909  1.0000
  O   O4        1.0  0.07437  0.39193  0.32076  1.0000
  O   O5        1.0  0.62635  0.84157  0.78934  1.0000
  O   O6        1.0  0.25798  0.65877  0.71074  1.0000
  O   O7        1.0  0.37362  0.15842  0.21066  1.0000
  O   O8        1.0  0.74199  0.34125  0.28925  1.0000
  O   O9        1.0  0.77533  0.25094  0.51724  1.0000
  O   O10       1.0  0.54363  0.24914  0.98227  1.0000
  O   O11       1.0  0.22464  0.74906  0.48277  1.0000
  O   O12       1.0  0.45638  0.75086  0.01773  1.0000
  F   F1        1.0  0.56625  0.11404  0.75402  1.0000
  F   F2        1.0  0.43183  0.38585  0.74658  1.0000
  F   F3        1.0  0.43377  0.88595  0.24597  1.0000
  F   F4        1.0  0.56802  0.61414  0.25343  1.0000
  F   F5        1.0  0.25854  0.09946  0.85411  1.0000
  F   F6        1.0  0.20795  0.40104  0.64665  1.0000
  F   F7        1.0  0.74147  0.90054  0.14589  1.0000
  F   F8        1.0  0.79223  0.59905  0.35323  1.0000
  F   F9        1.0  0.63028  0.99205  0.88979  1.0000
  F   F10       1.0  0.51009  0.50689  0.61073  1.0000
  F   F11       1.0  0.36973  0.00795  0.11020  1.0000
  F   F12       1.0  0.49010  0.49316  0.38934  1.0000
