data_image0
_chemical_formula_structural       Na2H18C14N4O12
_chemical_formula_sum              "Na2 H18 C14 N4 O12"
_cell_length_a       6.53542
_cell_length_b       6.8255
_cell_length_c       11.78
_cell_angle_alpha    75.8628
_cell_angle_beta     87.1509
_cell_angle_gamma    66.7995

_space_group_name_H-M_alt    "P 1"
_space_group_IT_number       1

loop_
  _space_group_symop_operation_xyz
  'x, y, z'

loop_
  _atom_site_type_symbol
  _atom_site_label
  _atom_site_symmetry_multiplicity
  _atom_site_fract_x
  _atom_site_fract_y
  _atom_site_fract_z
  _atom_site_occupancy
  Na  Na1       1.0  0.72199  0.58166  0.94081  1.0000
  Na  Na2       1.0  0.27800  0.41835  0.05919  1.0000
  H   H1        1.0  0.80076  0.75305  0.17184  1.0000
  H   H2        1.0  0.19924  0.24695  0.82816  1.0000
  H   H3        1.0  0.75405  0.94616  0.25291  1.0000
  H   H4        1.0  0.24594  0.05384  0.74708  1.0000
  H   H5        1.0  0.66577  0.86803  0.45719  1.0000
  H   H6        1.0  0.33423  0.13196  0.54281  1.0000
  H   H7        1.0  0.79508  0.19223  0.62750  1.0000
  H   H8        1.0  0.20493  0.80777  0.37250  1.0000
  H   H9        1.0  0.86031  0.10247  0.43083  1.0000
  H   H10       1.0  0.13970  0.89754  0.56917  1.0000
  H   H11       1.0  0.57349  0.03803  0.83674  1.0000
  H   H12       1.0  0.42650  0.96197  0.16327  1.0000
  H   H13       1.0  0.83991  0.93753  0.84511  1.0000
  H   H14       1.0  0.16009  0.06248  0.15489  1.0000
  H   H15       1.0  0.69037  0.13569  0.97525  1.0000
  H   H16       1.0  0.30962  0.86432  0.02475  1.0000
  H   H17       1.0  0.76920  0.18852  0.08738  1.0000
  H   H18       1.0  0.23079  0.81149  0.91261  1.0000
  C   C1        1.0  0.80623  0.42826  0.33497  1.0000
  C   C2        1.0  0.19377  0.57174  0.66504  1.0000
  C   C3        1.0  0.74848  0.65018  0.34009  1.0000
  C   C4        1.0  0.25153  0.34982  0.65991  1.0000
  C   C5        1.0  0.71079  0.70020  0.45044  1.0000
  C   C6        1.0  0.28922  0.29981  0.54955  1.0000
  C   C7        1.0  0.72937  0.53555  0.55032  1.0000
  C   C8        1.0  0.27064  0.46444  0.44967  1.0000
  C   C9        1.0  0.78165  0.31723  0.54741  1.0000
  C   C10       1.0  0.21835  0.68276  0.45259  1.0000
  C   C11       1.0  0.81766  0.26934  0.43856  1.0000
  C   C12       1.0  0.18236  0.73065  0.56144  1.0000
  C   C13       1.0  0.87065  0.35423  0.22356  1.0000
  C   C14       1.0  0.12936  0.64576  0.77644  1.0000
  N   N1        1.0  0.72456  0.81566  0.24103  1.0000
  N   N2        1.0  0.27544  0.18434  0.75896  1.0000
  N   N3        1.0  0.69001  0.59502  0.66286  1.0000
  N   N4        1.0  0.30999  0.40497  0.33715  1.0000
  O   O1        1.0  0.89564  0.48839  0.13306  1.0000
  O   O2        1.0  0.10437  0.51162  0.86693  1.0000
  O   O3        1.0  0.90511  0.15474  0.22561  1.0000
  O   O4        1.0  0.09489  0.84525  0.77439  1.0000
  O   O5        1.0  0.63836  0.79042  0.66454  1.0000
  O   O6        1.0  0.36163  0.20959  0.33546  1.0000
  O   O7        1.0  0.70967  0.44709  0.75306  1.0000
  O   O8        1.0  0.29033  0.55291  0.24695  1.0000
  O   O9        1.0  0.70587  0.95702  0.89219  1.0000
  O   O10       1.0  0.29413  0.04299  0.10781  1.0000
  O   O11       1.0  0.66354  0.25199  0.01830  1.0000
  O   O12       1.0  0.33645  0.74802  0.98170  1.0000
