data_image0
_chemical_formula_structural       Na2Dy2H32C18O18
_chemical_formula_sum              "Na2 Dy2 H32 C18 O18"
_cell_length_a       9.04952
_cell_length_b       9.15015
_cell_length_c       9.33491
_cell_angle_alpha    110.956
_cell_angle_beta     99.6539
_cell_angle_gamma    95.1344

_space_group_name_H-M_alt    "P 1"
_space_group_IT_number       1

loop_
  _space_group_symop_operation_xyz
  'x, y, z'

loop_
  _atom_site_type_symbol
  _atom_site_label
  _atom_site_symmetry_multiplicity
  _atom_site_fract_x
  _atom_site_fract_y
  _atom_site_fract_z
  _atom_site_occupancy
  Na  Na1       1.0  0.50000  1.00000  0.50000  1.0000
  Na  Na2       1.0  1.00000  0.49999  0.49999  1.0000
  Dy  Dy1       1.0  0.12874  0.84115  0.44310  1.0000
  Dy  Dy2       1.0  0.87126  0.15884  0.55690  1.0000
  H   H1        1.0  0.53643  0.86570  0.86623  1.0000
  H   H2        1.0  0.46356  0.13429  0.13378  1.0000
  H   H3        1.0  0.44898  0.66309  0.80018  1.0000
  H   H4        1.0  0.55101  0.33690  0.19982  1.0000
  H   H5        1.0  0.37000  0.81413  0.92876  1.0000
  H   H6        1.0  0.62998  0.18586  0.07123  1.0000
  H   H7        1.0  0.87847  0.04353  0.06893  1.0000
  H   H8        1.0  0.12154  0.95648  0.93109  1.0000
  H   H9        1.0  0.72595  0.91843  0.08559  1.0000
  H   H10       1.0  0.27405  0.08159  0.91442  1.0000
  H   H11       1.0  0.84681  0.83569  0.95334  1.0000
  H   H12       1.0  0.15318  0.16432  0.04666  1.0000
  H   H13       1.0  0.54904  0.68836  0.52846  1.0000
  H   H14       1.0  0.45096  0.31165  0.47154  1.0000
  H   H15       1.0  0.66902  0.54021  0.47035  1.0000
  H   H16       1.0  0.33097  0.45979  0.52966  1.0000
  H   H17       1.0  0.69364  0.66477  0.66934  1.0000
  H   H18       1.0  0.30635  0.33524  0.33067  1.0000
  H   H19       1.0  0.50536  0.36933  0.95373  1.0000
  H   H20       1.0  0.49465  0.63068  0.04627  1.0000
  H   H21       1.0  0.39971  0.39595  0.79178  1.0000
  H   H22       1.0  0.60030  0.60406  0.20822  1.0000
  H   H23       1.0  0.43112  0.20142  0.77516  1.0000
  H   H24       1.0  0.56889  0.79859  0.22484  1.0000
  H   H25       1.0  0.14764  0.52564  0.23182  1.0000
  H   H26       1.0  0.85236  0.47436  0.76817  1.0000
  H   H27       1.0  0.92008  0.36131  0.09053  1.0000
  H   H28       1.0  0.07993  0.63868  0.90946  1.0000
  H   H29       1.0  0.90448  0.55141  0.08207  1.0000
  H   H30       1.0  0.09553  0.44858  0.91793  1.0000
  H   H31       1.0  0.82159  0.49396  0.21847  1.0000
  H   H32       1.0  0.17842  0.50604  0.78151  1.0000
  C   C1        1.0  0.32858  0.80358  0.69299  1.0000
  C   C2        1.0  0.67142  0.19641  0.30700  1.0000
  C   C3        1.0  0.42807  0.78567  0.83000  1.0000
  C   C4        1.0  0.57192  0.21433  0.17000  1.0000
  C   C5        1.0  0.94544  0.89960  0.19733  1.0000
  C   C6        1.0  0.05455  0.10039  0.80265  1.0000
  C   C7        1.0  0.84240  0.92479  0.06730  1.0000
  C   C8        1.0  0.15761  0.07522  0.93271  1.0000
  C   C9        1.0  0.77786  0.77996  0.52907  1.0000
  C   C10       1.0  0.22215  0.22004  0.47094  1.0000
  C   C11       1.0  0.66410  0.66108  0.54867  1.0000
  C   C12       1.0  0.33590  0.33893  0.45134  1.0000
  C   C13       1.0  0.62684  0.35540  0.77138  1.0000
  C   C14       1.0  0.37316  0.64460  0.22862  1.0000
  C   C15       1.0  0.48227  0.32670  0.82539  1.0000
  C   C16       1.0  0.51773  0.67332  0.17461  1.0000
  C   C17       1.0  0.91792  0.48620  0.16036  1.0000
  C   C18       1.0  0.08208  0.51379  0.83963  1.0000
  O   O1        1.0  0.20784  0.70286  0.61654  1.0000
  O   O2        1.0  0.79216  0.29714  0.38345  1.0000
  O   O3        1.0  0.36310  0.92070  0.65496  1.0000
  O   O4        1.0  0.63691  0.07929  0.34503  1.0000
  O   O5        1.0  0.05134  0.81905  0.17082  1.0000
  O   O6        1.0  0.94865  0.18094  0.82918  1.0000
  O   O7        1.0  0.92497  0.96025  0.33924  1.0000
  O   O8        1.0  0.07502  0.03975  0.66078  1.0000
  O   O9        1.0  0.74520  0.91777  0.55022  1.0000
  O   O10       1.0  0.25480  0.08222  0.44979  1.0000
  O   O11       1.0  0.90147  0.73501  0.49471  1.0000
  O   O12       1.0  0.09852  0.26499  0.50530  1.0000
  O   O13       1.0  0.66206  0.23722  0.66509  1.0000
  O   O14       1.0  0.33794  0.76278  0.33491  1.0000
  O   O15       1.0  0.70522  0.49303  0.83089  1.0000
  O   O16       1.0  0.29478  0.50698  0.16911  1.0000
  O   O17       1.0  0.05490  0.55357  0.28123  1.0000
  O   O18       1.0  0.94510  0.44643  0.71876  1.0000
