data_image0
_chemical_formula_structural       Na4H32C24S8O14
_chemical_formula_sum              "Na4 H32 C24 S8 O14"
_cell_length_a       6.42478
_cell_length_b       10.9578
_cell_length_c       13.7172
_cell_angle_alpha    103.136
_cell_angle_beta     103.546
_cell_angle_gamma    89.9875

_space_group_name_H-M_alt    "P 1"
_space_group_IT_number       1

loop_
  _space_group_symop_operation_xyz
  'x, y, z'

loop_
  _atom_site_type_symbol
  _atom_site_label
  _atom_site_symmetry_multiplicity
  _atom_site_fract_x
  _atom_site_fract_y
  _atom_site_fract_z
  _atom_site_occupancy
  Na  Na1       1.0  0.26540  0.43979  0.01891  1.0000
  Na  Na2       1.0  0.24646  0.06024  0.98101  1.0000
  Na  Na3       1.0  0.73460  0.56021  0.98109  1.0000
  Na  Na4       1.0  0.75354  0.93976  0.01899  1.0000
  H   H1        1.0  0.32430  0.46175  0.74914  1.0000
  H   H2        1.0  0.57508  0.03829  0.25126  1.0000
  H   H3        1.0  0.67570  0.53825  0.25086  1.0000
  H   H4        1.0  0.42492  0.96170  0.74874  1.0000
  H   H5        1.0  0.04698  0.48398  0.59434  1.0000
  H   H6        1.0  0.45259  0.01653  0.40616  1.0000
  H   H7        1.0  0.95302  0.51602  0.40566  1.0000
  H   H8        1.0  0.54741  0.98347  0.59384  1.0000
  H   H9        1.0  0.82860  0.29451  0.47851  1.0000
  H   H10       1.0  0.35005  0.20623  0.52175  1.0000
  H   H11       1.0  0.17140  0.70549  0.52149  1.0000
  H   H12       1.0  0.64995  0.79377  0.47825  1.0000
  H   H13       1.0  0.87485  0.08746  0.52330  1.0000
  H   H14       1.0  0.35163  0.41314  0.47671  1.0000
  H   H15       1.0  0.12515  0.91254  0.47670  1.0000
  H   H16       1.0  0.64837  0.58686  0.52329  1.0000
  H   H17       1.0  0.15157  0.06607  0.67897  1.0000
  H   H18       1.0  0.47278  0.43409  0.32095  1.0000
  H   H19       1.0  0.84843  0.93393  0.32103  1.0000
  H   H20       1.0  0.52721  0.56591  0.67905  1.0000
  H   H21       1.0  0.00840  0.53145  0.83612  1.0000
  H   H22       1.0  0.17235  0.96861  0.16381  1.0000
  H   H23       1.0  0.99160  0.46855  0.16388  1.0000
  H   H24       1.0  0.82765  0.03139  0.83619  1.0000
  H   H25       1.0  0.90715  0.39750  0.83077  1.0000
  H   H26       1.0  0.07621  0.10253  0.16912  1.0000
  H   H27       1.0  0.09285  0.60250  0.16923  1.0000
  H   H28       1.0  0.92379  0.89747  0.83088  1.0000
  H   H29       1.0  0.93324  0.23880  0.93905  1.0000
  H   H30       1.0  0.99405  0.26127  0.06080  1.0000
  H   H31       1.0  0.06677  0.76120  0.06095  1.0000
  H   H32       1.0  0.00595  0.73874  0.93920  1.0000
  C   C1        1.0  0.25791  0.26236  0.71976  1.0000
  C   C2        1.0  0.53809  0.23770  0.28041  1.0000
  C   C3        1.0  0.74209  0.73764  0.28024  1.0000
  C   C4        1.0  0.46191  0.76229  0.71959  1.0000
  C   C5        1.0  0.22881  0.38014  0.69741  1.0000
  C   C6        1.0  0.53138  0.12003  0.30290  1.0000
  C   C7        1.0  0.77119  0.61986  0.30259  1.0000
  C   C8        1.0  0.46862  0.87997  0.69710  1.0000
  C   C9        1.0  0.07230  0.39144  0.61065  1.0000
  C   C10       1.0  0.46160  0.10901  0.38972  1.0000
  C   C11       1.0  0.92770  0.60856  0.38935  1.0000
  C   C12       1.0  0.53840  0.89099  0.61028  1.0000
  C   C13       1.0  0.94796  0.28591  0.54708  1.0000
  C   C14       1.0  0.40086  0.21469  0.45318  1.0000
  C   C15       1.0  0.05204  0.71409  0.45292  1.0000
  C   C16       1.0  0.59914  0.78531  0.54683  1.0000
  C   C17       1.0  0.97572  0.16904  0.57167  1.0000
  C   C18       1.0  0.40411  0.33146  0.42844  1.0000
  C   C19       1.0  0.02428  0.83096  0.42833  1.0000
  C   C20       1.0  0.59588  0.66855  0.57155  1.0000
  C   C21       1.0  0.13081  0.15638  0.65842  1.0000
  C   C22       1.0  0.47253  0.34386  0.34164  1.0000
  C   C23       1.0  0.86919  0.84362  0.34158  1.0000
  C   C24       1.0  0.52746  0.65613  0.65836  1.0000
  S   S1        1.0  0.72351  0.20772  0.77307  1.0000
  S   S2        1.0  0.95021  0.29209  0.22684  1.0000
  S   S3        1.0  0.27650  0.79228  0.22693  1.0000
  S   S4        1.0  0.04978  0.70790  0.77316  1.0000
  S   S5        1.0  0.46398  0.24695  0.82852  1.0000
  S   S6        1.0  0.63514  0.25294  0.17154  1.0000
  S   S7        1.0  0.53602  0.75305  0.17149  1.0000
  S   S8        1.0  0.36486  0.74706  0.82846  1.0000
  O   O1        1.0  0.39093  0.14174  0.86370  1.0000
  O   O2        1.0  0.52681  0.35814  0.13634  1.0000
  O   O3        1.0  0.60907  0.85826  0.13630  1.0000
  O   O4        1.0  0.47319  0.64186  0.86366  1.0000
  O   O5        1.0  0.49493  0.36908  0.90351  1.0000
  O   O6        1.0  0.59087  0.13079  0.09658  1.0000
  O   O7        1.0  0.50507  0.63092  0.09648  1.0000
  O   O8        1.0  0.40913  0.86921  0.90342  1.0000
  O   O9        1.0  0.97826  0.47551  0.87880  1.0000
  O   O10       1.0  0.09948  0.02454  0.12112  1.0000
  O   O11       1.0  0.02174  0.52449  0.12120  1.0000
  O   O12       1.0  0.90052  0.97546  0.87888  1.0000
  O   O13       1.0  0.05537  0.25007  0.99994  1.0000
  O   O14       1.0  0.94463  0.74993  0.00006  1.0000
