data_image0
_chemical_formula_structural       Hg2H30C44I4N8Cl8
_chemical_formula_sum              "Hg2 H30 C44 I4 N8 Cl8"
_cell_length_a       10.0359
_cell_length_b       11.9091
_cell_length_c       12.9098
_cell_angle_alpha    98.8398
_cell_angle_beta     101.865
_cell_angle_gamma    113.555

_space_group_name_H-M_alt    "P 1"
_space_group_IT_number       1

loop_
  _space_group_symop_operation_xyz
  'x, y, z'

loop_
  _atom_site_type_symbol
  _atom_site_label
  _atom_site_symmetry_multiplicity
  _atom_site_fract_x
  _atom_site_fract_y
  _atom_site_fract_z
  _atom_site_occupancy
  Hg  Hg1       1.0  0.81963  0.93187  0.31993  1.0000
  Hg  Hg2       1.0  0.18037  0.06813  0.68007  1.0000
  H   H1        1.0  0.29223  0.75883  0.20168  1.0000
  H   H2        1.0  0.70777  0.24117  0.79832  1.0000
  H   H3        1.0  0.40688  0.81482  0.05495  1.0000
  H   H4        1.0  0.59311  0.18518  0.94505  1.0000
  H   H5        1.0  0.40569  0.48883  0.43317  1.0000
  H   H6        1.0  0.59431  0.51116  0.56683  1.0000
  H   H7        1.0  0.76777  0.23242  0.34837  1.0000
  H   H8        1.0  0.23223  0.76758  0.65163  1.0000
  H   H9        1.0  0.56403  0.22163  0.17141  1.0000
  H   H10       1.0  0.43597  0.77837  0.82860  1.0000
  H   H11       1.0  0.14484  0.38887  0.09930  1.0000
  H   H12       1.0  0.85516  0.61114  0.90070  1.0000
  H   H13       1.0  0.05578  0.53222  0.22119  1.0000
  H   H14       1.0  0.94422  0.46778  0.77881  1.0000
  H   H15       1.0  0.14930  0.12887  0.10933  1.0000
  H   H16       1.0  0.85070  0.87113  0.89067  1.0000
  H   H17       1.0  0.07932  0.03058  0.90611  1.0000
  H   H18       1.0  0.92068  0.96942  0.09389  1.0000
  H   H19       1.0  0.44550  0.33041  0.87264  1.0000
  H   H20       1.0  0.55450  0.66959  0.12736  1.0000
  H   H21       1.0  0.53108  0.44089  0.07346  1.0000
  H   H22       1.0  0.46892  0.55911  0.92654  1.0000
  H   H23       1.0  0.08617  0.48296  0.61971  1.0000
  H   H24       1.0  0.91383  0.51704  0.38029  1.0000
  H   H25       1.0  0.23076  0.35801  0.66085  1.0000
  H   H26       1.0  0.76924  0.64199  0.33915  1.0000
  H   H27       1.0  0.83339  0.02469  0.58753  1.0000
  H   H28       1.0  0.16661  0.97531  0.41247  1.0000
  H   H29       1.0  0.67217  0.13281  0.53310  1.0000
  H   H30       1.0  0.32783  0.86719  0.46690  1.0000
  C   C1        1.0  0.24512  0.80183  0.14379  1.0000
  C   C2        1.0  0.75488  0.19817  0.85621  1.0000
  C   C3        1.0  0.28277  0.77377  0.03658  1.0000
  C   C4        1.0  0.71723  0.22623  0.96341  1.0000
  C   C5        1.0  0.67848  0.35331  0.43922  1.0000
  C   C6        1.0  0.32152  0.64669  0.56078  1.0000
  C   C7        1.0  0.69010  0.27529  0.34581  1.0000
  C   C8        1.0  0.30991  0.72471  0.65419  1.0000
  C   C9        1.0  0.58777  0.27097  0.25591  1.0000
  C   C10       1.0  0.41222  0.72903  0.74408  1.0000
  C   C11       1.0  0.51304  0.34432  0.29554  1.0000
  C   C12       1.0  0.48695  0.65568  0.70447  1.0000
  C   C13       1.0  0.39223  0.35462  0.22686  1.0000
  C   C14       1.0  0.60777  0.64538  0.77314  1.0000
  C   C15       1.0  0.30773  0.41568  0.25894  1.0000
  C   C16       1.0  0.69228  0.58432  0.74106  1.0000
  C   C17       1.0  0.18889  0.42974  0.18722  1.0000
  C   C18       1.0  0.81111  0.57026  0.81278  1.0000
  C   C19       1.0  0.14269  0.50271  0.24966  1.0000
  C   C20       1.0  0.85732  0.49729  0.75034  1.0000
  C   C21       1.0  0.23053  0.53440  0.36182  1.0000
  C   C22       1.0  0.76947  0.46560  0.63818  1.0000
  C   C23       1.0  0.77037  0.38417  0.54770  1.0000
  C   C24       1.0  0.22964  0.61583  0.45230  1.0000
  C   C25       1.0  0.34597  0.29298  0.10723  1.0000
  C   C26       1.0  0.65403  0.70702  0.89277  1.0000
  C   C27       1.0  0.21726  0.17617  0.05917  1.0000
  C   C28       1.0  0.78274  0.82383  0.94084  1.0000
  C   C29       1.0  0.17840  0.12182  0.94723  1.0000
  C   C30       1.0  0.82159  0.87818  0.05277  1.0000
  C   C31       1.0  0.38265  0.28948  0.92823  1.0000
  C   C32       1.0  0.61735  0.71053  0.07177  1.0000
  C   C33       1.0  0.42969  0.35027  0.03952  1.0000
  C   C34       1.0  0.57031  0.64973  0.96048  1.0000
  C   C35       1.0  0.86615  0.31760  0.57212  1.0000
  C   C36       1.0  0.13385  0.68240  0.42788  1.0000
  C   C37       1.0  0.02545  0.38122  0.61010  1.0000
  C   C38       1.0  0.97455  0.61878  0.38990  1.0000
  C   C39       1.0  0.10645  0.31249  0.63507  1.0000
  C   C40       1.0  0.89355  0.68751  0.36494  1.0000
  C   C41       1.0  0.88502  0.12594  0.59150  1.0000
  C   C42       1.0  0.11498  0.87406  0.40850  1.0000
  C   C43       1.0  0.79573  0.18648  0.56139  1.0000
  C   C44       1.0  0.20427  0.81351  0.43861  1.0000
  I   I1        1.0  0.56411  0.79777  0.36776  1.0000
  I   I2        1.0  0.43590  0.20224  0.63224  1.0000
  I   I3        1.0  0.04110  0.15511  0.32501  1.0000
  I   I4        1.0  0.95891  0.84489  0.67499  1.0000
  N   N1        1.0  0.57147  0.39493  0.40683  1.0000
  N   N2        1.0  0.42853  0.60507  0.59317  1.0000
  N   N3        1.0  0.32612  0.47761  0.36373  1.0000
  N   N4        1.0  0.67388  0.52239  0.63627  1.0000
  N   N5        1.0  0.25934  0.17706  0.88295  1.0000
  N   N6        1.0  0.74066  0.82294  0.11705  1.0000
  N   N7        1.0  0.03737  0.18780  0.62765  1.0000
  N   N8        1.0  0.96263  0.81220  0.37235  1.0000
  Cl  Cl1       1.0  0.33712  0.96796  0.20447  1.0000
  Cl  Cl2       1.0  0.66288  0.03204  0.79553  1.0000
  Cl  Cl3       1.0  0.04629  0.73753  0.12561  1.0000
  Cl  Cl4       1.0  0.95371  0.26248  0.87440  1.0000
  Cl  Cl5       1.0  0.21465  0.83854  0.93530  1.0000
  Cl  Cl6       1.0  0.78535  0.16145  0.06470  1.0000
  Cl  Cl7       1.0  0.21077  0.60624  0.98546  1.0000
  Cl  Cl8       1.0  0.78923  0.39376  0.01454  1.0000
