data_image0
_chemical_formula_structural       Cd2H36C52N6O8
_chemical_formula_sum              "Cd2 H36 C52 N6 O8"
_cell_length_a       9.0805
_cell_length_b       11.2815
_cell_length_c       11.9772
_cell_angle_alpha    77.5292
_cell_angle_beta     82.4316
_cell_angle_gamma    78.5125

_space_group_name_H-M_alt    "P 1"
_space_group_IT_number       1

loop_
  _space_group_symop_operation_xyz
  'x, y, z'

loop_
  _atom_site_type_symbol
  _atom_site_label
  _atom_site_symmetry_multiplicity
  _atom_site_fract_x
  _atom_site_fract_y
  _atom_site_fract_z
  _atom_site_occupancy
  Cd  Cd1       1.0  0.06092  0.82651  0.52063  1.0000
  Cd  Cd2       1.0  0.93908  0.17349  0.47937  1.0000
  H   H1        1.0  0.13785  0.12120  0.95610  1.0000
  H   H2        1.0  0.86215  0.87880  0.04390  1.0000
  H   H3        1.0  0.99117  0.12689  0.14664  1.0000
  H   H4        1.0  0.00883  0.87311  0.85336  1.0000
  H   H5        1.0  0.71709  0.19736  0.16032  1.0000
  H   H6        1.0  0.28291  0.80264  0.83968  1.0000
  H   H7        1.0  0.72559  0.25265  0.79122  1.0000
  H   H8        1.0  0.27441  0.74735  0.20878  1.0000
  H   H9        1.0  0.00341  0.18864  0.77740  1.0000
  H   H10       1.0  0.99659  0.81136  0.22260  1.0000
  H   H11       1.0  0.61053  0.02080  0.07554  1.0000
  H   H12       1.0  0.38947  0.97920  0.92446  1.0000
  H   H13       1.0  0.45282  0.90144  0.22516  1.0000
  H   H14       1.0  0.54718  0.09856  0.77484  1.0000
  H   H15       1.0  0.12552  0.23197  0.24485  1.0000
  H   H16       1.0  0.87448  0.76802  0.75515  1.0000
  H   H17       1.0  0.27949  0.35015  0.09307  1.0000
  H   H18       1.0  0.72051  0.64985  0.90693  1.0000
  H   H19       1.0  0.61968  0.48181  0.89373  1.0000
  H   H20       1.0  0.38032  0.51819  0.10627  1.0000
  H   H21       1.0  0.29591  0.25005  0.89399  1.0000
  H   H22       1.0  0.70409  0.74995  0.10601  1.0000
  H   H23       1.0  0.47280  0.65025  0.75878  1.0000
  H   H24       1.0  0.52720  0.34975  0.24122  1.0000
  H   H25       1.0  0.15087  0.41804  0.75930  1.0000
  H   H26       1.0  0.84913  0.58196  0.24070  1.0000
  H   H27       1.0  0.88062  0.59976  0.51190  1.0000
  H   H28       1.0  0.11938  0.40025  0.48810  1.0000
  H   H29       1.0  0.47715  0.85366  0.43725  1.0000
  H   H30       1.0  0.52285  0.14635  0.56275  1.0000
  H   H31       1.0  0.71504  0.98139  0.42062  1.0000
  H   H32       1.0  0.28496  0.01861  0.57938  1.0000
  H   H33       1.0  0.40980  0.70231  0.37719  1.0000
  H   H34       1.0  0.59020  0.29769  0.62281  1.0000
  H   H35       1.0  0.27552  0.52948  0.39202  1.0000
  H   H36       1.0  0.72448  0.47052  0.60798  1.0000
  C   C1        1.0  0.01640  0.15461  0.96105  1.0000
  C   C2        1.0  0.98360  0.84539  0.03895  1.0000
  C   C3        1.0  0.93450  0.15663  0.06808  1.0000
  C   C4        1.0  0.06550  0.84337  0.93192  1.0000
  C   C5        1.0  0.77874  0.19532  0.07610  1.0000
  C   C6        1.0  0.22126  0.80468  0.92390  1.0000
  C   C7        1.0  0.78445  0.22852  0.86878  1.0000
  C   C8        1.0  0.21555  0.77148  0.13122  1.0000
  C   C9        1.0  0.94108  0.19181  0.86144  1.0000
  C   C10       1.0  0.05892  0.80819  0.13856  1.0000
  C   C11       1.0  0.70230  0.22977  0.97638  1.0000
  C   C12       1.0  0.29770  0.77023  0.02362  1.0000
  C   C13       1.0  0.45603  0.19376  0.07356  1.0000
  C   C14       1.0  0.54397  0.80624  0.92644  1.0000
  C   C15       1.0  0.50465  0.06672  0.11320  1.0000
  C   C16       1.0  0.49535  0.93328  0.88680  1.0000
  C   C17       1.0  0.41658  0.00031  0.19730  1.0000
  C   C18       1.0  0.58342  0.99968  0.80270  1.0000
  C   C19       1.0  0.27830  0.05782  0.24555  1.0000
  C   C20       1.0  0.72170  0.94218  0.75445  1.0000
  C   C21       1.0  0.23122  0.18506  0.20752  1.0000
  C   C22       1.0  0.76878  0.81494  0.79248  1.0000
  C   C23       1.0  0.31832  0.25197  0.12281  1.0000
  C   C24       1.0  0.68168  0.74803  0.87719  1.0000
  C   C25       1.0  0.46628  0.35552  0.90380  1.0000
  C   C26       1.0  0.53372  0.64448  0.09620  1.0000
  C   C27       1.0  0.51719  0.46824  0.86379  1.0000
  C   C28       1.0  0.48281  0.53176  0.13621  1.0000
  C   C29       1.0  0.33494  0.33769  0.86394  1.0000
  C   C30       1.0  0.66506  0.66231  0.13606  1.0000
  C   C31       1.0  0.43489  0.56202  0.78893  1.0000
  C   C32       1.0  0.56511  0.43798  0.21107  1.0000
  C   C33       1.0  0.30141  0.54559  0.75163  1.0000
  C   C34       1.0  0.69859  0.45441  0.24837  1.0000
  C   C35       1.0  0.25331  0.43169  0.78936  1.0000
  C   C36       1.0  0.74669  0.56831  0.21064  1.0000
  C   C37       1.0  0.21362  0.64600  0.67146  1.0000
  C   C38       1.0  0.78637  0.35400  0.32854  1.0000
  C   C39       1.0  0.80482  0.68663  0.48969  1.0000
  C   C40       1.0  0.19518  0.31337  0.51031  1.0000
  C   C41       1.0  0.59600  0.82182  0.44872  1.0000
  C   C42       1.0  0.40400  0.17818  0.55128  1.0000
  C   C43       1.0  0.71403  0.88305  0.44242  1.0000
  C   C44       1.0  0.28598  0.11695  0.55757  1.0000
  C   C45       1.0  0.57648  0.59732  0.49029  1.0000
  C   C46       1.0  0.42352  0.40268  0.50970  1.0000
  C   C47       1.0  0.44906  0.61384  0.43124  1.0000
  C   C48       1.0  0.55094  0.38616  0.56876  1.0000
  C   C49       1.0  0.37252  0.51656  0.44079  1.0000
  C   C50       1.0  0.62749  0.48344  0.55921  1.0000
  C   C51       1.0  0.18601  0.98443  0.33417  1.0000
  C   C52       1.0  0.81399  0.01557  0.66583  1.0000
  N   N1        1.0  0.65523  0.69697  0.47852  1.0000
  N   N2        1.0  0.34477  0.30303  0.52147  1.0000
  N   N3        1.0  0.84323  0.79760  0.46835  1.0000
  N   N4        1.0  0.15677  0.20240  0.53165  1.0000
  N   N5        1.0  0.54204  0.26125  0.98554  1.0000
  N   N6        1.0  0.45796  0.73875  0.01446  1.0000
  O   O1        1.0  0.25259  0.75231  0.64552  1.0000
  O   O2        1.0  0.74741  0.24769  0.35448  1.0000
  O   O3        1.0  0.10149  0.62311  0.62949  1.0000
  O   O4        1.0  0.89851  0.37689  0.37051  1.0000
  O   O5        1.0  0.05146  0.03097  0.36925  1.0000
  O   O6        1.0  0.94854  0.96903  0.63075  1.0000
  O   O7        1.0  0.24288  0.87232  0.37526  1.0000
  O   O8        1.0  0.75712  0.12768  0.62474  1.0000
