data_image0
_chemical_formula_structural       Li4H52C32N8O4
_chemical_formula_sum              "Li4 H52 C32 N8 O4"
_cell_length_a       8.66341
_cell_length_b       9.28404
_cell_length_c       11.7379
_cell_angle_alpha    89.9991
_cell_angle_beta     106.226
_cell_angle_gamma    90.0001

_space_group_name_H-M_alt    "P 1"
_space_group_IT_number       1

loop_
  _space_group_symop_operation_xyz
  'x, y, z'

loop_
  _atom_site_type_symbol
  _atom_site_label
  _atom_site_symmetry_multiplicity
  _atom_site_fract_x
  _atom_site_fract_y
  _atom_site_fract_z
  _atom_site_occupancy
  Li  Li1       1.0  0.50422  0.38070  0.44710  1.0000
  Li  Li2       1.0  0.49578  0.88070  0.05289  1.0000
  Li  Li3       1.0  0.49577  0.61930  0.55290  1.0000
  Li  Li4       1.0  0.50422  0.11931  0.94710  1.0000
  H   H1        1.0  0.96954  0.22210  0.27968  1.0000
  H   H2        1.0  0.03046  0.72212  0.22032  1.0000
  H   H3        1.0  0.03045  0.77790  0.72033  1.0000
  H   H4        1.0  0.96955  0.27789  0.77967  1.0000
  H   H5        1.0  0.82896  0.95741  0.03195  1.0000
  H   H6        1.0  0.17104  0.45742  0.46804  1.0000
  H   H7        1.0  0.17104  0.04259  0.96805  1.0000
  H   H8        1.0  0.82896  0.54258  0.53194  1.0000
  H   H9        1.0  0.99119  0.97984  0.16353  1.0000
  H   H10       1.0  0.00881  0.47985  0.33646  1.0000
  H   H11       1.0  0.00881  0.02016  0.83647  1.0000
  H   H12       1.0  0.99119  0.52015  0.66352  1.0000
  H   H13       1.0  0.94257  0.11936  0.05666  1.0000
  H   H14       1.0  0.05743  0.61937  0.44333  1.0000
  H   H15       1.0  0.05743  0.88064  0.94334  1.0000
  H   H16       1.0  0.94257  0.38063  0.55666  1.0000
  H   H17       1.0  0.40287  0.06972  0.34522  1.0000
  H   H18       1.0  0.59713  0.56972  0.15478  1.0000
  H   H19       1.0  0.59713  0.93027  0.65478  1.0000
  H   H20       1.0  0.40287  0.43028  0.84522  1.0000
  H   H21       1.0  0.21894  0.16900  0.30799  1.0000
  H   H22       1.0  0.78106  0.66900  0.19201  1.0000
  H   H23       1.0  0.78106  0.83100  0.69201  1.0000
  H   H24       1.0  0.21893  0.33100  0.80799  1.0000
  H   H25       1.0  0.12673  0.94713  0.37742  1.0000
  H   H26       1.0  0.87327  0.44714  0.12259  1.0000
  H   H27       1.0  0.87327  0.05287  0.62259  1.0000
  H   H28       1.0  0.12673  0.55286  0.87741  1.0000
  H   H29       1.0  0.31527  0.91629  0.48184  1.0000
  H   H30       1.0  0.68473  0.41629  0.01817  1.0000
  H   H31       1.0  0.68472  0.08371  0.51816  1.0000
  H   H32       1.0  0.31527  0.58371  0.98184  1.0000
  H   H33       1.0  0.06785  0.14881  0.49408  1.0000
  H   H34       1.0  0.93215  0.64881  0.00592  1.0000
  H   H35       1.0  0.93215  0.85119  0.50592  1.0000
  H   H36       1.0  0.06785  0.35118  0.99408  1.0000
  H   H37       1.0  0.16215  0.02342  0.60729  1.0000
  H   H38       1.0  0.83785  0.52343  0.89272  1.0000
  H   H39       1.0  0.83785  0.97658  0.39271  1.0000
  H   H40       1.0  0.16215  0.47657  0.10729  1.0000
  H   H41       1.0  0.41879  0.14617  0.64686  1.0000
  H   H42       1.0  0.58120  0.64617  0.85314  1.0000
  H   H43       1.0  0.58121  0.85384  0.35314  1.0000
  H   H44       1.0  0.41879  0.35383  0.14686  1.0000
  H   H45       1.0  0.28765  0.29734  0.60566  1.0000
  H   H46       1.0  0.71235  0.79734  0.89433  1.0000
  H   H47       1.0  0.71235  0.70266  0.39434  1.0000
  H   H48       1.0  0.28766  0.20266  0.10567  1.0000
  H   H49       1.0  0.55956  0.10848  0.17509  1.0000
  H   H50       1.0  0.44044  0.60849  0.32490  1.0000
  H   H51       1.0  0.44043  0.89152  0.82490  1.0000
  H   H52       1.0  0.55957  0.39151  0.67509  1.0000
  C   C1        1.0  0.74359  0.26798  0.31042  1.0000
  C   C2        1.0  0.25639  0.76799  0.18957  1.0000
  C   C3        1.0  0.25639  0.73201  0.68958  1.0000
  C   C4        1.0  0.74362  0.23202  0.81043  1.0000
  C   C5        1.0  0.84189  0.19679  0.25433  1.0000
  C   C6        1.0  0.15811  0.69680  0.24566  1.0000
  C   C7        1.0  0.15810  0.80321  0.74567  1.0000
  C   C8        1.0  0.84191  0.30321  0.75434  1.0000
  C   C9        1.0  0.77621  0.09859  0.16157  1.0000
  C   C10       1.0  0.22379  0.59859  0.33842  1.0000
  C   C11       1.0  0.22379  0.90143  0.83843  1.0000
  C   C12       1.0  0.77621  0.40141  0.66157  1.0000
  C   C13       1.0  0.89088  0.03446  0.09990  1.0000
  C   C14       1.0  0.10912  0.53447  0.40009  1.0000
  C   C15       1.0  0.10912  0.96554  0.90010  1.0000
  C   C16       1.0  0.89088  0.46553  0.59990  1.0000
  C   C17       1.0  0.30736  0.11277  0.38045  1.0000
  C   C18       1.0  0.69265  0.61277  0.11955  1.0000
  C   C19       1.0  0.69265  0.88723  0.61955  1.0000
  C   C20       1.0  0.30735  0.38723  0.88045  1.0000
  C   C21       1.0  0.22846  0.00031  0.44021  1.0000
  C   C22       1.0  0.77154  0.50032  0.05980  1.0000
  C   C23       1.0  0.77154  0.99969  0.55979  1.0000
  C   C24       1.0  0.22846  0.49969  0.94021  1.0000
  C   C25       1.0  0.17973  0.08956  0.53451  1.0000
  C   C26       1.0  0.82027  0.58956  0.96550  1.0000
  C   C27       1.0  0.82027  0.91045  0.46550  1.0000
  C   C28       1.0  0.17973  0.41044  0.03451  1.0000
  C   C29       1.0  0.32063  0.19252  0.57549  1.0000
  C   C30       1.0  0.67936  0.69253  0.92451  1.0000
  C   C31       1.0  0.67937  0.80748  0.42451  1.0000
  C   C32       1.0  0.32063  0.30748  0.07549  1.0000
  N   N1        1.0  0.65259  0.32556  0.35394  1.0000
  N   N2        1.0  0.34739  0.82557  0.14605  1.0000
  N   N3        1.0  0.34738  0.67443  0.64606  1.0000
  N   N4        1.0  0.65263  0.17444  0.85394  1.0000
  N   N5        1.0  0.62271  0.05916  0.12366  1.0000
  N   N6        1.0  0.37730  0.55916  0.37634  1.0000
  N   N7        1.0  0.37730  0.94084  0.87634  1.0000
  N   N8        1.0  0.62271  0.44083  0.62366  1.0000
  O   O1        1.0  0.37880  0.21734  0.47213  1.0000
  O   O2        1.0  0.62121  0.71734  0.02787  1.0000
  O   O3        1.0  0.62120  0.78266  0.52787  1.0000
  O   O4        1.0  0.37880  0.28265  0.97213  1.0000
