data_image0
_chemical_formula_structural       Hg2H38C52Br4N8Cl24
_chemical_formula_sum              "Hg2 H38 C52 Br4 N8 Cl24"
_cell_length_a       10.8109
_cell_length_b       11.6716
_cell_length_c       16.1584
_cell_angle_alpha    104.596
_cell_angle_beta     95.9022
_cell_angle_gamma    101.069

_space_group_name_H-M_alt    "P 1"
_space_group_IT_number       1

loop_
  _space_group_symop_operation_xyz
  'x, y, z'

loop_
  _atom_site_type_symbol
  _atom_site_label
  _atom_site_symmetry_multiplicity
  _atom_site_fract_x
  _atom_site_fract_y
  _atom_site_fract_z
  _atom_site_occupancy
  Hg  Hg1       1.0  0.82661  0.87061  0.03515  1.0000
  Hg  Hg2       1.0  0.17339  0.12939  0.96485  1.0000
  H   H1        1.0  0.57878  0.57560  0.50114  1.0000
  H   H2        1.0  0.42122  0.42440  0.49886  1.0000
  H   H3        1.0  0.89226  0.88081  0.59515  1.0000
  H   H4        1.0  0.10774  0.11919  0.40485  1.0000
  H   H5        1.0  0.82432  0.84704  0.42446  1.0000
  H   H6        1.0  0.17568  0.15296  0.57554  1.0000
  H   H7        1.0  0.45003  0.54194  0.18063  1.0000
  H   H8        1.0  0.54997  0.45806  0.81937  1.0000
  H   H9        1.0  0.26267  0.35123  0.17516  1.0000
  H   H10       1.0  0.73733  0.64877  0.82484  1.0000
  H   H11       1.0  0.71472  0.53799  0.21548  1.0000
  H   H12       1.0  0.28528  0.46201  0.78452  1.0000
  H   H13       1.0  0.80231  0.63218  0.10478  1.0000
  H   H14       1.0  0.19769  0.36782  0.89522  1.0000
  H   H15       1.0  0.69743  0.95405  0.21321  1.0000
  H   H16       1.0  0.30257  0.04595  0.78679  1.0000
  H   H17       1.0  0.61149  0.87552  0.33059  1.0000
  H   H18       1.0  0.38851  0.12448  0.66941  1.0000
  H   H19       1.0  0.70212  0.90378  0.77818  1.0000
  H   H20       1.0  0.29788  0.09622  0.22182  1.0000
  H   H21       1.0  0.87200  0.05741  0.88913  1.0000
  H   H22       1.0  0.12800  0.94259  0.11087  1.0000
  H   H23       1.0  0.14740  0.86479  0.81987  1.0000
  H   H24       1.0  0.85260  0.13521  0.18013  1.0000
  H   H25       1.0  0.99144  0.70722  0.70139  1.0000
  H   H26       1.0  0.00856  0.29278  0.29861  1.0000
  H   H27       1.0  0.56526  0.18227  0.00966  1.0000
  H   H28       1.0  0.43474  0.81773  0.99034  1.0000
  H   H29       1.0  0.78637  0.22816  0.96809  1.0000
  H   H30       1.0  0.21363  0.77183  0.03191  1.0000
  H   H31       1.0  0.19548  0.72249  0.23155  1.0000
  H   H32       1.0  0.80452  0.27752  0.76845  1.0000
  H   H33       1.0  0.20029  0.55168  0.29535  1.0000
  H   H34       1.0  0.79971  0.44832  0.70465  1.0000
  H   H35       1.0  0.70931  0.28636  0.48071  1.0000
  H   H36       1.0  0.29069  0.71364  0.51929  1.0000
  H   H37       1.0  0.52632  0.28400  0.37403  1.0000
  H   H38       1.0  0.47369  0.71600  0.62597  1.0000
  C   C1        1.0  0.73273  0.71907  0.57685  1.0000
  C   C2        1.0  0.26727  0.28092  0.42315  1.0000
  C   C3        1.0  0.81590  0.81106  0.55150  1.0000
  C   C4        1.0  0.18410  0.18894  0.44850  1.0000
  C   C5        1.0  0.78045  0.79432  0.46448  1.0000
  C   C6        1.0  0.21955  0.20568  0.53552  1.0000
  C   C7        1.0  0.67292  0.69257  0.43387  1.0000
  C   C8        1.0  0.32708  0.30743  0.56613  1.0000
  C   C9        1.0  0.60611  0.64337  0.34914  1.0000
  C   C10       1.0  0.39388  0.35663  0.65086  1.0000
  C   C11       1.0  0.50029  0.54328  0.32114  1.0000
  C   C12       1.0  0.49971  0.45672  0.67886  1.0000
  C   C13       1.0  0.43013  0.50193  0.23297  1.0000
  C   C14       1.0  0.56987  0.49807  0.76703  1.0000
  C   C15       1.0  0.33494  0.40513  0.23013  1.0000
  C   C16       1.0  0.66505  0.59487  0.76987  1.0000
  C   C17       1.0  0.34706  0.38883  0.31687  1.0000
  C   C18       1.0  0.65293  0.61117  0.68313  1.0000
  C   C19       1.0  0.73559  0.70265  0.65995  1.0000
  C   C20       1.0  0.26441  0.29735  0.34005  1.0000
  C   C21       1.0  0.65609  0.69908  0.28253  1.0000
  C   C22       1.0  0.34391  0.30092  0.71747  1.0000
  C   C23       1.0  0.70977  0.63074  0.21748  1.0000
  C   C24       1.0  0.29023  0.36926  0.78252  1.0000
  C   C25       1.0  0.75803  0.68245  0.15557  1.0000
  C   C26       1.0  0.24197  0.31755  0.84443  1.0000
  C   C27       1.0  0.70177  0.86282  0.21688  1.0000
  C   C28       1.0  0.29823  0.13718  0.78312  1.0000
  C   C29       1.0  0.65327  0.81841  0.28212  1.0000
  C   C30       1.0  0.34673  0.18159  0.71788  1.0000
  C   C31       1.0  0.83356  0.79326  0.72956  1.0000
  C   C32       1.0  0.16644  0.20674  0.27044  1.0000
  C   C33       1.0  0.80001  0.89251  0.78401  1.0000
  C   C34       1.0  0.19999  0.10749  0.21599  1.0000
  C   C35       1.0  0.89399  0.97798  0.84623  1.0000
  C   C36       1.0  0.10601  0.02202  0.15377  1.0000
  C   C37       1.0  0.04820  0.87121  0.80691  1.0000
  C   C38       1.0  0.95180  0.12880  0.19309  1.0000
  C   C39       1.0  0.96065  0.78307  0.74171  1.0000
  C   C40       1.0  0.03936  0.21693  0.25829  1.0000
  C   C41       1.0  0.62101  0.27499  0.01902  1.0000
  C   C42       1.0  0.37899  0.72501  0.98098  1.0000
  C   C43       1.0  0.71175  0.27475  0.95247  1.0000
  C   C44       1.0  0.28825  0.72525  0.04753  1.0000
  C   C45       1.0  0.16774  0.72708  0.29555  1.0000
  C   C46       1.0  0.83226  0.27293  0.70445  1.0000
  C   C47       1.0  0.12070  0.59759  0.30147  1.0000
  C   C48       1.0  0.87930  0.40241  0.69854  1.0000
  C   C49       1.0  0.71022  0.25307  0.41099  1.0000
  C   C50       1.0  0.28978  0.74694  0.58901  1.0000
  C   C51       1.0  0.57272  0.20680  0.36377  1.0000
  C   C52       1.0  0.42728  0.79320  0.63623  1.0000
  Br  Br1       1.0  0.65405  0.97625  0.99852  1.0000
  Br  Br2       1.0  0.34595  0.02375  0.00148  1.0000
  Br  Br3       1.0  0.95645  0.72065  0.97367  1.0000
  Br  Br4       1.0  0.04355  0.27935  0.02633  1.0000
  N   N1        1.0  0.64786  0.65009  0.50387  1.0000
  N   N2        1.0  0.35214  0.34991  0.49613  1.0000
  N   N3        1.0  0.44762  0.47406  0.37145  1.0000
  N   N4        1.0  0.55237  0.52594  0.62855  1.0000
  N   N5        1.0  0.75342  0.79635  0.15506  1.0000
  N   N6        1.0  0.24658  0.20365  0.84494  1.0000
  N   N7        1.0  0.01561  0.96749  0.85741  1.0000
  N   N8        1.0  0.98439  0.03251  0.14259  1.0000
  Cl  Cl1       1.0  0.51068  0.36690  0.01098  1.0000
  Cl  Cl2       1.0  0.48932  0.63310  0.98902  1.0000
  Cl  Cl3       1.0  0.71403  0.31971  0.12431  1.0000
  Cl  Cl4       1.0  0.28596  0.68029  0.87569  1.0000
  Cl  Cl5       1.0  0.78962  0.42242  0.95150  1.0000
  Cl  Cl6       1.0  0.21037  0.57758  0.04850  1.0000
  Cl  Cl7       1.0  0.62593  0.18860  0.84774  1.0000
  Cl  Cl8       1.0  0.37407  0.81140  0.15225  1.0000
  Cl  Cl9       1.0  0.05065  0.81501  0.30740  1.0000
  Cl  Cl10      1.0  0.94936  0.18499  0.69260  1.0000
  Cl  Cl11      1.0  0.30875  0.79864  0.37288  1.0000
  Cl  Cl12      1.0  0.69125  0.20136  0.62712  1.0000
  Cl  Cl13      1.0  0.07001  0.59292  0.40196  1.0000
  Cl  Cl14      1.0  0.92999  0.40708  0.59804  1.0000
  Cl  Cl15      1.0  0.99834  0.51543  0.21329  1.0000
  Cl  Cl16      1.0  0.00166  0.48457  0.78671  1.0000
  Cl  Cl17      1.0  0.78650  0.37888  0.37728  1.0000
  Cl  Cl18      1.0  0.21351  0.62112  0.62272  1.0000
  Cl  Cl19      1.0  0.79897  0.13839  0.39778  1.0000
  Cl  Cl20      1.0  0.20103  0.86160  0.60222  1.0000
  Cl  Cl21      1.0  0.56145  0.14605  0.25054  1.0000
  Cl  Cl22      1.0  0.43855  0.85395  0.74945  1.0000
  Cl  Cl23      1.0  0.48846  0.09851  0.41057  1.0000
  Cl  Cl24      1.0  0.51154  0.90148  0.58943  1.0000
