data_image0
_chemical_formula_structural       Nd4H32C24O40
_chemical_formula_sum              "Nd4 H32 C24 O40"
_cell_length_a       6.15865
_cell_length_b       7.49908
_cell_length_c       23.6009
_cell_angle_alpha    90.0001
_cell_angle_beta     93.9208
_cell_angle_gamma    90.0001

_space_group_name_H-M_alt    "P 1"
_space_group_IT_number       1

loop_
  _space_group_symop_operation_xyz
  'x, y, z'

loop_
  _atom_site_type_symbol
  _atom_site_label
  _atom_site_symmetry_multiplicity
  _atom_site_fract_x
  _atom_site_fract_y
  _atom_site_fract_z
  _atom_site_occupancy
  Nd  Nd1       1.0  0.69652  0.88613  0.85061  1.0000
  Nd  Nd2       1.0  0.80347  0.38614  0.64938  1.0000
  Nd  Nd3       1.0  0.30349  0.11386  0.14939  1.0000
  Nd  Nd4       1.0  0.19653  0.61386  0.35061  1.0000
  H   H1        1.0  0.79061  0.08099  0.02110  1.0000
  H   H2        1.0  0.70939  0.58098  0.47890  1.0000
  H   H3        1.0  0.20940  0.91901  0.97890  1.0000
  H   H4        1.0  0.29061  0.41901  0.52110  1.0000
  H   H5        1.0  0.27889  0.84362  0.71268  1.0000
  H   H6        1.0  0.22109  0.34362  0.78731  1.0000
  H   H7        1.0  0.72111  0.15638  0.28732  1.0000
  H   H8        1.0  0.77890  0.65638  0.21269  1.0000
  H   H9        1.0  0.36763  0.92683  0.62152  1.0000
  H   H10       1.0  0.13235  0.42682  0.87848  1.0000
  H   H11       1.0  0.63237  0.07317  0.37848  1.0000
  H   H12       1.0  0.86765  0.57317  0.12152  1.0000
  H   H13       1.0  0.96027  0.16185  0.93041  1.0000
  H   H14       1.0  0.53974  0.66185  0.56959  1.0000
  H   H15       1.0  0.03973  0.83816  0.06959  1.0000
  H   H16       1.0  0.46026  0.33815  0.43041  1.0000
  H   H17       1.0  0.56557  0.12275  0.75374  1.0000
  H   H18       1.0  0.93441  0.62275  0.74626  1.0000
  H   H19       1.0  0.43443  0.87725  0.24626  1.0000
  H   H20       1.0  0.06558  0.37725  0.25374  1.0000
  H   H21       1.0  0.68492  0.03696  0.60378  1.0000
  H   H22       1.0  0.81507  0.53695  0.89622  1.0000
  H   H23       1.0  0.31508  0.96304  0.39622  1.0000
  H   H24       1.0  0.18494  0.46305  0.10378  1.0000
  H   H25       1.0  0.35310  0.15243  0.90966  1.0000
  H   H26       1.0  0.14689  0.65243  0.59034  1.0000
  H   H27       1.0  0.64690  0.84757  0.09034  1.0000
  H   H28       1.0  0.85310  0.34757  0.40966  1.0000
  H   H29       1.0  0.26114  0.00512  0.86585  1.0000
  H   H30       1.0  0.23886  0.50512  0.63415  1.0000
  H   H31       1.0  0.73886  0.99488  0.13415  1.0000
  H   H32       1.0  0.76114  0.49489  0.36585  1.0000
  C   C1        1.0  0.78925  0.80877  0.99176  1.0000
  C   C2        1.0  0.71075  0.30876  0.50824  1.0000
  C   C3        1.0  0.21076  0.19123  0.00824  1.0000
  C   C4        1.0  0.28925  0.69123  0.49176  1.0000
  C   C5        1.0  0.87663  0.00038  0.99041  1.0000
  C   C6        1.0  0.62337  0.50037  0.50959  1.0000
  C   C7        1.0  0.12337  0.99963  0.00959  1.0000
  C   C8        1.0  0.37663  0.49962  0.49041  1.0000
  C   C9        1.0  0.61572  0.76941  0.71336  1.0000
  C   C10       1.0  0.88425  0.26940  0.78664  1.0000
  C   C11       1.0  0.38427  0.23059  0.28664  1.0000
  C   C12       1.0  0.11573  0.73060  0.21336  1.0000
  C   C13       1.0  0.43693  0.91190  0.71198  1.0000
  C   C14       1.0  0.06305  0.41190  0.78802  1.0000
  C   C15       1.0  0.56307  0.08810  0.28802  1.0000
  C   C16       1.0  0.93694  0.58810  0.21198  1.0000
  C   C17       1.0  0.44129  0.01323  0.65519  1.0000
  C   C18       1.0  0.05870  0.51321  0.84481  1.0000
  C   C19       1.0  0.55872  0.98679  0.34481  1.0000
  C   C20       1.0  0.94130  0.48678  0.15519  1.0000
  C   C21       1.0  0.30756  0.18600  0.65489  1.0000
  C   C22       1.0  0.19242  0.68600  0.84511  1.0000
  C   C23       1.0  0.69244  0.81400  0.34511  1.0000
  C   C24       1.0  0.80758  0.31400  0.15489  1.0000
  O   O1        1.0  0.71452  0.74032  0.94523  1.0000
  O   O2        1.0  0.78548  0.24032  0.55476  1.0000
  O   O3        1.0  0.28548  0.25968  0.05476  1.0000
  O   O4        1.0  0.21453  0.75968  0.44524  1.0000
  O   O5        1.0  0.80309  0.73233  0.03992  1.0000
  O   O6        1.0  0.69691  0.23233  0.46008  1.0000
  O   O7        1.0  0.19691  0.26766  0.96008  1.0000
  O   O8        1.0  0.30310  0.76766  0.53992  1.0000
  O   O9        1.0  0.84303  0.07166  0.93482  1.0000
  O   O10       1.0  0.65698  0.57166  0.56518  1.0000
  O   O11       1.0  0.15697  0.92834  0.06518  1.0000
  O   O12       1.0  0.34302  0.42834  0.43482  1.0000
  O   O13       1.0  0.75869  0.77310  0.75535  1.0000
  O   O14       1.0  0.74128  0.27311  0.74465  1.0000
  O   O15       1.0  0.24130  0.22689  0.24465  1.0000
  O   O16       1.0  0.25871  0.72689  0.25535  1.0000
  O   O17       1.0  0.61326  0.65782  0.67359  1.0000
  O   O18       1.0  0.88673  0.15781  0.82641  1.0000
  O   O19       1.0  0.38674  0.34219  0.32641  1.0000
  O   O20       1.0  0.11327  0.84219  0.17359  1.0000
  O   O21       1.0  0.46101  0.02208  0.76118  1.0000
  O   O22       1.0  0.03897  0.52208  0.73882  1.0000
  O   O23       1.0  0.53899  0.97792  0.23882  1.0000
  O   O24       1.0  0.96103  0.47792  0.26118  1.0000
  O   O25       1.0  0.66348  0.05197  0.64429  1.0000
  O   O26       1.0  0.83651  0.55196  0.85571  1.0000
  O   O27       1.0  0.33652  0.94804  0.35571  1.0000
  O   O28       1.0  0.16349  0.44804  0.14430  1.0000
  O   O29       1.0  0.40985  0.33112  0.64688  1.0000
  O   O30       1.0  0.09014  0.83111  0.85312  1.0000
  O   O31       1.0  0.59015  0.66889  0.35312  1.0000
  O   O32       1.0  0.90986  0.16889  0.14688  1.0000
  O   O33       1.0  0.10686  0.17508  0.66150  1.0000
  O   O34       1.0  0.39313  0.67507  0.83850  1.0000
  O   O35       1.0  0.89314  0.82493  0.33850  1.0000
  O   O36       1.0  0.60688  0.32492  0.16150  1.0000
  O   O37       1.0  0.39590  0.07128  0.87944  1.0000
  O   O38       1.0  0.10410  0.57129  0.62056  1.0000
  O   O39       1.0  0.60411  0.92872  0.12056  1.0000
  O   O40       1.0  0.89590  0.42872  0.37944  1.0000
