data_image0
_chemical_formula_structural       Mn2H34C40N4O10
_chemical_formula_sum              "Mn2 H34 C40 N4 O10"
_cell_length_a       9.3928
_cell_length_b       9.61866
_cell_length_c       10.9855
_cell_angle_alpha    94.1724
_cell_angle_beta     101.16
_cell_angle_gamma    108.508

_space_group_name_H-M_alt    "P 1"
_space_group_IT_number       1

loop_
  _space_group_symop_operation_xyz
  'x, y, z'

loop_
  _atom_site_type_symbol
  _atom_site_label
  _atom_site_symmetry_multiplicity
  _atom_site_fract_x
  _atom_site_fract_y
  _atom_site_fract_z
  _atom_site_occupancy
  Mn  Mn1       1.0  0.43280  0.51707  0.62039  1.0000
  Mn  Mn2       1.0  0.56720  0.48293  0.37962  1.0000
  H   H1        1.0  0.94294  0.35363  0.40779  1.0000
  H   H2        1.0  0.05706  0.64637  0.59221  1.0000
  H   H3        1.0  0.68028  0.21263  0.27940  1.0000
  H   H4        1.0  0.31973  0.78738  0.72060  1.0000
  H   H5        1.0  0.64795  0.02757  0.09501  1.0000
  H   H6        1.0  0.35205  0.97242  0.90499  1.0000
  H   H7        1.0  0.87912  0.97815  0.04816  1.0000
  H   H8        1.0  0.12088  0.02185  0.95183  1.0000
  H   H9        1.0  0.10104  0.00802  0.38795  1.0000
  H   H10       1.0  0.89896  0.99197  0.61203  1.0000
  H   H11       1.0  0.22713  0.84838  0.50083  1.0000
  H   H12       1.0  0.77287  0.15164  0.49917  1.0000
  H   H13       1.0  0.50793  0.86837  0.23433  1.0000
  H   H14       1.0  0.49207  0.13163  0.76568  1.0000
  H   H15       1.0  0.38055  0.02732  0.11729  1.0000
  H   H16       1.0  0.61945  0.97267  0.88271  1.0000
  H   H17       1.0  0.57491  0.73031  0.89396  1.0000
  H   H18       1.0  0.42509  0.26969  0.10604  1.0000
  H   H19       1.0  0.43810  0.67210  0.09845  1.0000
  H   H20       1.0  0.56190  0.32790  0.90156  1.0000
  H   H21       1.0  0.15736  0.30463  0.66587  1.0000
  H   H22       1.0  0.84264  0.69538  0.33413  1.0000
  H   H23       1.0  0.02492  0.32212  0.75593  1.0000
  H   H24       1.0  0.97507  0.67788  0.24407  1.0000
  H   H25       1.0  0.14205  0.21355  0.80040  1.0000
  H   H26       1.0  0.85795  0.78645  0.19960  1.0000
  H   H27       1.0  0.24330  0.41920  0.12995  1.0000
  H   H28       1.0  0.75669  0.58081  0.87005  1.0000
  H   H29       1.0  0.10824  0.30862  0.99477  1.0000
  H   H30       1.0  0.89175  0.69138  0.00523  1.0000
  H   H31       1.0  0.99772  0.44858  0.12937  1.0000
  H   H32       1.0  0.00228  0.55143  0.87063  1.0000
  H   H33       1.0  0.12378  0.61814  0.10228  1.0000
  H   H34       1.0  0.87622  0.38187  0.89773  1.0000
  C   C1        1.0  0.21421  0.33954  0.38041  1.0000
  C   C2        1.0  0.78579  0.66046  0.61959  1.0000
  C   C3        1.0  0.05832  0.24639  0.30237  1.0000
  C   C4        1.0  0.94169  0.75361  0.69763  1.0000
  C   C5        1.0  0.92693  0.27071  0.32857  1.0000
  C   C6        1.0  0.07307  0.72929  0.67142  1.0000
  C   C7        1.0  0.77990  0.19256  0.25556  1.0000
  C   C8        1.0  0.22010  0.80744  0.74444  1.0000
  C   C9        1.0  0.76234  0.08827  0.15364  1.0000
  C   C10       1.0  0.23767  0.91173  0.84635  1.0000
  C   C11       1.0  0.89056  0.05956  0.12708  1.0000
  C   C12       1.0  0.10944  0.94044  0.87291  1.0000
  C   C13       1.0  0.03702  0.13731  0.20176  1.0000
  C   C14       1.0  0.96299  0.86269  0.79824  1.0000
  C   C15       1.0  0.23108  0.02434  0.24384  1.0000
  C   C16       1.0  0.76892  0.97566  0.75615  1.0000
  C   C17       1.0  0.18981  0.97753  0.35361  1.0000
  C   C18       1.0  0.81018  0.02246  0.64637  1.0000
  C   C19       1.0  0.26067  0.88792  0.41682  1.0000
  C   C20       1.0  0.73934  0.11208  0.58318  1.0000
  C   C21       1.0  0.37220  0.84422  0.37250  1.0000
  C   C22       1.0  0.62780  0.15578  0.62750  1.0000
  C   C23       1.0  0.41704  0.89821  0.26565  1.0000
  C   C24       1.0  0.58296  0.10179  0.73436  1.0000
  C   C25       1.0  0.34753  0.98734  0.20140  1.0000
  C   C26       1.0  0.65246  0.01264  0.79859  1.0000
  C   C27       1.0  0.43569  0.73507  0.43212  1.0000
  C   C28       1.0  0.56431  0.26493  0.56789  1.0000
  C   C29       1.0  0.46969  0.64564  0.90103  1.0000
  C   C30       1.0  0.53031  0.35436  0.09898  1.0000
  C   C31       1.0  0.40383  0.61931  0.00176  1.0000
  C   C32       1.0  0.59617  0.38069  0.99825  1.0000
  C   C33       1.0  0.26300  0.44794  0.83822  1.0000
  C   C34       1.0  0.73699  0.55206  0.16178  1.0000
  C   C35       1.0  0.14042  0.31535  0.76151  1.0000
  C   C36       1.0  0.85957  0.68465  0.23849  1.0000
  C   C37       1.0  0.17111  0.42336  0.03975  1.0000
  C   C38       1.0  0.82889  0.57665  0.96026  1.0000
  C   C39       1.0  0.05816  0.50230  0.05985  1.0000
  C   C40       1.0  0.94184  0.49771  0.94015  1.0000
  N   N1        1.0  0.38143  0.53874  0.79962  1.0000
  N   N2        1.0  0.61856  0.46127  0.20039  1.0000
  N   N3        1.0  0.27370  0.49457  0.96091  1.0000
  N   N4        1.0  0.72629  0.50543  0.03910  1.0000
  O   O1        1.0  0.22068  0.38635  0.49313  1.0000
  O   O2        1.0  0.77932  0.61364  0.50686  1.0000
  O   O3        1.0  0.32679  0.36856  0.32683  1.0000
  O   O4        1.0  0.67322  0.63144  0.67317  1.0000
  O   O5        1.0  0.15983  0.10361  0.16911  1.0000
  O   O6        1.0  0.84017  0.89639  0.83089  1.0000
  O   O7        1.0  0.40109  0.69777  0.53467  1.0000
  O   O8        1.0  0.59892  0.30223  0.46534  1.0000
  O   O9        1.0  0.51652  0.68254  0.37350  1.0000
  O   O10       1.0  0.48349  0.31746  0.62651  1.0000
