data_image0
_chemical_formula_structural       Co2H34C42Br2N4O8
_chemical_formula_sum              "Co2 H34 C42 Br2 N4 O8"
_cell_length_a       9.06762
_cell_length_b       10.0883
_cell_length_c       11.582
_cell_angle_alpha    68.1489
_cell_angle_beta     87.3968
_cell_angle_gamma    77.4117

_space_group_name_H-M_alt    "P 1"
_space_group_IT_number       1

loop_
  _space_group_symop_operation_xyz
  'x, y, z'

loop_
  _atom_site_type_symbol
  _atom_site_label
  _atom_site_symmetry_multiplicity
  _atom_site_fract_x
  _atom_site_fract_y
  _atom_site_fract_z
  _atom_site_occupancy
  Co  Co1       1.0  0.33991  0.84575  0.06303  1.0000
  Co  Co2       1.0  0.66006  0.15421  0.93699  1.0000
  H   H1        1.0  0.37113  0.40261  0.02576  1.0000
  H   H2        1.0  0.62885  0.59741  0.97421  1.0000
  H   H3        1.0  0.96888  0.56794  0.18573  1.0000
  H   H4        1.0  0.03111  0.43204  0.81429  1.0000
  H   H5        1.0  0.03673  0.14066  0.16182  1.0000
  H   H6        1.0  0.96331  0.85933  0.83814  1.0000
  H   H7        1.0  0.46482  0.83104  0.83352  1.0000
  H   H8        1.0  0.53516  0.16895  0.16642  1.0000
  H   H9        1.0  0.41071  0.97337  0.60888  1.0000
  H   H10       1.0  0.58924  0.02674  0.39108  1.0000
  H   H11       1.0  0.00419  0.21722  0.70710  1.0000
  H   H12       1.0  0.99583  0.78287  0.29295  1.0000
  H   H13       1.0  0.07721  0.07091  0.92567  1.0000
  H   H14       1.0  0.92277  0.92907  0.07437  1.0000
  H   H15       1.0  0.07618  0.29840  0.48900  1.0000
  H   H16       1.0  0.92386  0.70174  0.51097  1.0000
  H   H17       1.0  0.10065  0.13362  0.46527  1.0000
  H   H18       1.0  0.89926  0.86652  0.53476  1.0000
  H   H19       1.0  0.24955  0.26264  0.31600  1.0000
  H   H20       1.0  0.75045  0.73734  0.68401  1.0000
  H   H21       1.0  0.38323  0.13904  0.43120  1.0000
  H   H22       1.0  0.61672  0.86088  0.56882  1.0000
  H   H23       1.0  0.42827  0.39501  0.33417  1.0000
  H   H24       1.0  0.57187  0.60486  0.66582  1.0000
  H   H25       1.0  0.25918  0.46130  0.39550  1.0000
  H   H26       1.0  0.74093  0.53868  0.60444  1.0000
  H   H27       1.0  0.64434  0.20545  0.49038  1.0000
  H   H28       1.0  0.35580  0.79456  0.50964  1.0000
  H   H29       1.0  0.76388  0.12942  0.70089  1.0000
  H   H30       1.0  0.23612  0.87057  0.29918  1.0000
  H   H31       1.0  0.39860  0.37289  0.81243  1.0000
  H   H32       1.0  0.60136  0.62706  0.18756  1.0000
  H   H33       1.0  0.26175  0.45651  0.60806  1.0000
  H   H34       1.0  0.73831  0.54351  0.39187  1.0000
  C   C1        1.0  0.21271  0.26002  0.08932  1.0000
  C   C2        1.0  0.78726  0.73998  0.91068  1.0000
  C   C3        1.0  0.26332  0.38847  0.06898  1.0000
  C   C4        1.0  0.73666  0.61152  0.93100  1.0000
  C   C5        1.0  0.17527  0.49821  0.10482  1.0000
  C   C6        1.0  0.82469  0.50177  0.89516  1.0000
  C   C7        1.0  0.03646  0.48041  0.16020  1.0000
  C   C8        1.0  0.96351  0.51954  0.83981  1.0000
  C   C9        1.0  0.98972  0.35136  0.18097  1.0000
  C   C10       1.0  0.01026  0.64858  0.81903  1.0000
  C   C11       1.0  0.07493  0.24073  0.14638  1.0000
  C   C12       1.0  0.92506  0.75924  0.85360  1.0000
  C   C13       1.0  0.30641  0.14121  0.05128  1.0000
  C   C14       1.0  0.69357  0.85878  0.94873  1.0000
  C   C15       1.0  0.22340  0.63643  0.08882  1.0000
  C   C16       1.0  0.77655  0.36358  0.91117  1.0000
  C   C17       1.0  0.36528  0.91940  0.80112  1.0000
  C   C18       1.0  0.63469  0.08062  0.19887  1.0000
  C   C19       1.0  0.33255  0.99952  0.67534  1.0000
  C   C20       1.0  0.66742  0.00056  0.32465  1.0000
  C   C21       1.0  0.20235  0.11122  0.63501  1.0000
  C   C22       1.0  0.79762  0.88888  0.36498  1.0000
  C   C23       1.0  0.10865  0.13348  0.72862  1.0000
  C   C24       1.0  0.89135  0.86658  0.27141  1.0000
  C   C25       1.0  0.14839  0.05068  0.85334  1.0000
  C   C26       1.0  0.85161  0.94932  0.14669  1.0000
  C   C27       1.0  0.16056  0.19764  0.49876  1.0000
  C   C28       1.0  0.83942  0.80244  0.50127  1.0000
  C   C29       1.0  0.29023  0.23587  0.41130  1.0000
  C   C30       1.0  0.70976  0.76410  0.58872  1.0000
  C   C31       1.0  0.35303  0.36539  0.41273  1.0000
  C   C32       1.0  0.64705  0.63455  0.58724  1.0000
  C   C33       1.0  0.43759  0.33252  0.53215  1.0000
  C   C34       1.0  0.56250  0.66745  0.46784  1.0000
  C   C35       1.0  0.58384  0.24414  0.55931  1.0000
  C   C36       1.0  0.41625  0.75585  0.44069  1.0000
  C   C37       1.0  0.65281  0.20218  0.67568  1.0000
  C   C38       1.0  0.34721  0.79780  0.32434  1.0000
  C   C39       1.0  0.44812  0.33827  0.73834  1.0000
  C   C40       1.0  0.55184  0.66173  0.26164  1.0000
  C   C41       1.0  0.37283  0.38302  0.62401  1.0000
  C   C42       1.0  0.62720  0.61699  0.37595  1.0000
  Br  Br1       1.0  0.80394  0.32476  0.26116  1.0000
  Br  Br2       1.0  0.19605  0.67515  0.73888  1.0000
  N   N1        1.0  0.27670  0.94573  0.89061  1.0000
  N   N2        1.0  0.72328  0.05427  0.10941  1.0000
  N   N3        1.0  0.58399  0.24385  0.76663  1.0000
  N   N4        1.0  0.41596  0.75613  0.23338  1.0000
  O   O1        1.0  0.26176  0.01922  0.09403  1.0000
  O   O2        1.0  0.73825  0.98078  0.90598  1.0000
  O   O3        1.0  0.41602  0.16738  0.98340  1.0000
  O   O4        1.0  0.58395  0.83260  0.01663  1.0000
  O   O5        1.0  0.35730  0.65198  0.05161  1.0000
  O   O6        1.0  0.64268  0.34799  0.94838  1.0000
  O   O7        1.0  0.13333  0.73584  0.11447  1.0000
  O   O8        1.0  0.86662  0.26419  0.88551  1.0000
