data_image0
_chemical_formula_structural       Zn2H22C40N4O8
_chemical_formula_sum              "Zn2 H22 C40 N4 O8"
_cell_length_a       7.68125
_cell_length_b       10.3373
_cell_length_c       10.7811
_cell_angle_alpha    114.486
_cell_angle_beta     88.9404
_cell_angle_gamma    89.8488

_space_group_name_H-M_alt    "P 1"
_space_group_IT_number       1

loop_
  _space_group_symop_operation_xyz
  'x, y, z'

loop_
  _atom_site_type_symbol
  _atom_site_label
  _atom_site_symmetry_multiplicity
  _atom_site_fract_x
  _atom_site_fract_y
  _atom_site_fract_z
  _atom_site_occupancy
  Zn  Zn1       1.0  0.97127  0.46107  0.30489  1.0000
  Zn  Zn2       1.0  0.02873  0.53893  0.69511  1.0000
  H   H1        1.0  0.87132  0.13321  0.13663  1.0000
  H   H2        1.0  0.12868  0.86679  0.86337  1.0000
  H   H3        1.0  0.69565  0.99425  0.92468  1.0000
  H   H4        1.0  0.30435  0.00574  0.07532  1.0000
  H   H5        1.0  0.58135  0.12097  0.78996  1.0000
  H   H6        1.0  0.41865  0.87902  0.21005  1.0000
  H   H7        1.0  0.56517  0.35037  0.75524  1.0000
  H   H8        1.0  0.43484  0.64963  0.24476  1.0000
  H   H9        1.0  0.62688  0.60742  0.84161  1.0000
  H   H10       1.0  0.37312  0.39258  0.15839  1.0000
  H   H11       1.0  0.74589  0.82962  0.02620  1.0000
  H   H12       1.0  0.25411  0.17038  0.97380  1.0000
  H   H13       1.0  0.89520  0.94393  0.25272  1.0000
  H   H14       1.0  0.10480  0.05606  0.74729  1.0000
  H   H15       1.0  0.98350  0.78801  0.36942  1.0000
  H   H16       1.0  0.01650  0.21199  0.63058  1.0000
  H   H17       1.0  0.45711  0.37373  0.36693  1.0000
  H   H18       1.0  0.54288  0.62626  0.63307  1.0000
  H   H19       1.0  0.22309  0.02136  0.41315  1.0000
  H   H20       1.0  0.77690  0.97865  0.58685  1.0000
  H   H21       1.0  0.75087  0.14464  0.54425  1.0000
  H   H22       1.0  0.24914  0.85536  0.45575  1.0000
  C   C1        1.0  0.81564  0.18284  0.07392  1.0000
  C   C2        1.0  0.18436  0.81716  0.92608  1.0000
  C   C3        1.0  0.71874  0.10734  0.95668  1.0000
  C   C4        1.0  0.28127  0.89265  0.04332  1.0000
  C   C5        1.0  0.65607  0.17746  0.88141  1.0000
  C   C6        1.0  0.34393  0.82254  0.11859  1.0000
  C   C7        1.0  0.68977  0.32349  0.92292  1.0000
  C   C8        1.0  0.31023  0.67651  0.07707  1.0000
  C   C9        1.0  0.63358  0.40456  0.85051  1.0000
  C   C10       1.0  0.36642  0.59544  0.14948  1.0000
  C   C11       1.0  0.66616  0.54674  0.89860  1.0000
  C   C12       1.0  0.33384  0.45325  0.10140  1.0000
  C   C13       1.0  0.75431  0.61978  0.02430  1.0000
  C   C14       1.0  0.24570  0.38022  0.97570  1.0000
  C   C15       1.0  0.78576  0.76747  0.08173  1.0000
  C   C16       1.0  0.21424  0.23253  0.91827  1.0000
  C   C17       1.0  0.86672  0.83055  0.20606  1.0000
  C   C18       1.0  0.13328  0.16945  0.79394  1.0000
  C   C19       1.0  0.91864  0.74453  0.27171  1.0000
  C   C20       1.0  0.08136  0.25546  0.72829  1.0000
  C   C21       1.0  0.78331  0.39159  0.04492  1.0000
  C   C22       1.0  0.21669  0.60841  0.95508  1.0000
  C   C23       1.0  0.81260  0.54231  0.09786  1.0000
  C   C24       1.0  0.18740  0.45769  0.90214  1.0000
  C   C25       1.0  0.76552  0.36927  0.48370  1.0000
  C   C26       1.0  0.23448  0.63073  0.51630  1.0000
  C   C27       1.0  0.61715  0.26822  0.45937  1.0000
  C   C28       1.0  0.38285  0.73179  0.54063  1.0000
  C   C29       1.0  0.46615  0.28689  0.39839  1.0000
  C   C30       1.0  0.53385  0.71312  0.60161  1.0000
  C   C31       1.0  0.32488  0.19691  0.38281  1.0000
  C   C32       1.0  0.67511  0.80310  0.61719  1.0000
  C   C33       1.0  0.15759  0.21885  0.32209  1.0000
  C   C34       1.0  0.84241  0.78115  0.67791  1.0000
  C   C35       1.0  0.33792  0.08683  0.42550  1.0000
  C   C36       1.0  0.66207  0.91317  0.57450  1.0000
  C   C37       1.0  0.49186  0.06099  0.48088  1.0000
  C   C38       1.0  0.50813  0.93901  0.51912  1.0000
  C   C39       1.0  0.62954  0.15589  0.49908  1.0000
  C   C40       1.0  0.37045  0.84411  0.50092  1.0000
  N   N1        1.0  0.84520  0.32131  0.11645  1.0000
  N   N2        1.0  0.15480  0.67868  0.88354  1.0000
  N   N3        1.0  0.89402  0.60456  0.21861  1.0000
  N   N4        1.0  0.10598  0.39544  0.78139  1.0000
  O   O1        1.0  0.76867  0.44367  0.41431  1.0000
  O   O2        1.0  0.23132  0.55633  0.58569  1.0000
  O   O3        1.0  0.87429  0.37461  0.57287  1.0000
  O   O4        1.0  0.12570  0.62540  0.42714  1.0000
  O   O5        1.0  0.16279  0.32104  0.28220  1.0000
  O   O6        1.0  0.83720  0.67896  0.71779  1.0000
  O   O7        1.0  0.03053  0.13983  0.31254  1.0000
  O   O8        1.0  0.96946  0.86017  0.68747  1.0000
