data_image0
_chemical_formula_structural       Mo2H8C10N2O6
_chemical_formula_sum              "Mo2 H8 C10 N2 O6"
_cell_length_a       5.43898
_cell_length_b       5.43726
_cell_length_c       12.0606
_cell_angle_alpha    102.181
_cell_angle_beta     102.088
_cell_angle_gamma    94.6033

_space_group_name_H-M_alt    "P 1"
_space_group_IT_number       1

loop_
  _space_group_symop_operation_xyz
  'x, y, z'

loop_
  _atom_site_type_symbol
  _atom_site_label
  _atom_site_symmetry_multiplicity
  _atom_site_fract_x
  _atom_site_fract_y
  _atom_site_fract_z
  _atom_site_occupancy
  Mo  Mo1       1.0  0.65419  0.88002  0.52476  1.0000
  Mo  Mo2       1.0  0.12448  0.34989  0.47518  1.0000
  H   H1        1.0  0.85036  0.61215  0.29813  1.0000
  H   H2        1.0  0.38749  0.14945  0.70098  1.0000
  H   H3        1.0  0.75078  0.49277  0.08358  1.0000
  H   H4        1.0  0.50430  0.24610  0.91552  1.0000
  H   H5        1.0  0.07094  0.85281  0.08672  1.0000
  H   H6        1.0  0.14459  0.92678  0.91424  1.0000
  H   H7        1.0  0.19329  0.94481  0.30124  1.0000
  H   H8        1.0  0.05511  0.80734  0.69970  1.0000
  C   C1        1.0  0.67851  0.66160  0.24862  1.0000
  C   C2        1.0  0.33747  0.32078  0.75090  1.0000
  C   C3        1.0  0.62022  0.59379  0.12759  1.0000
  C   C4        1.0  0.40375  0.37736  0.87195  1.0000
  C   C5        1.0  0.40002  0.66220  0.06435  1.0000
  C   C6        1.0  0.33489  0.59711  0.93569  1.0000
  C   C7        1.0  0.24629  0.79455  0.12928  1.0000
  C   C8        1.0  0.20308  0.75171  0.87124  1.0000
  C   C9        1.0  0.31373  0.84702  0.25036  1.0000
  C   C10       1.0  0.15218  0.68597  0.75016  1.0000
  N   N1        1.0  0.52753  0.78445  0.31035  1.0000
  N   N2        1.0  0.21582  0.47297  0.68968  1.0000
  O   O1        1.0  0.71008  0.97260  0.67428  1.0000
  O   O2        1.0  0.03084  0.29241  0.32568  1.0000
  O   O3        1.0  0.33835  0.12732  0.49666  1.0000
  O   O4        1.0  0.87599  0.66533  0.50309  1.0000
  O   O5        1.0  0.36420  0.63903  0.50018  1.0000
  O   O6        1.0  0.83531  0.16789  0.49992  1.0000
