data_image0
_chemical_formula_structural       Mo8H32C40N8O24
_chemical_formula_sum              "Mo8 H32 C40 N8 O24"
_cell_length_a       7.41566
_cell_length_b       7.51119
_cell_length_c       22.433
_cell_angle_alpha    90.3992
_cell_angle_beta     90
_cell_angle_gamma    90

_space_group_name_H-M_alt    "P 1"
_space_group_IT_number       1

loop_
  _space_group_symop_operation_xyz
  'x, y, z'

loop_
  _atom_site_type_symbol
  _atom_site_label
  _atom_site_symmetry_multiplicity
  _atom_site_fract_x
  _atom_site_fract_y
  _atom_site_fract_z
  _atom_site_occupancy
  Mo  Mo1       1.0  0.59843  0.52537  0.76453  1.0000
  Mo  Mo2       1.0  0.09843  0.47463  0.73547  1.0000
  Mo  Mo3       1.0  0.40157  0.47463  0.23547  1.0000
  Mo  Mo4       1.0  0.90157  0.52537  0.26453  1.0000
  Mo  Mo5       1.0  0.59308  0.03014  0.73545  1.0000
  Mo  Mo6       1.0  0.09308  0.96986  0.76455  1.0000
  Mo  Mo7       1.0  0.40692  0.96986  0.26455  1.0000
  Mo  Mo8       1.0  0.90692  0.03014  0.23545  1.0000
  H   H1        1.0  0.76593  0.32261  0.64454  1.0000
  H   H2        1.0  0.26595  0.67739  0.85546  1.0000
  H   H3        1.0  0.23406  0.67739  0.35546  1.0000
  H   H4        1.0  0.73406  0.32262  0.14454  1.0000
  H   H5        1.0  0.72140  0.29645  0.53590  1.0000
  H   H6        1.0  0.22141  0.70355  0.96410  1.0000
  H   H7        1.0  0.27861  0.70356  0.46410  1.0000
  H   H8        1.0  0.77860  0.29645  0.03590  1.0000
  H   H9        1.0  0.32237  0.71728  0.55159  1.0000
  H   H10       1.0  0.82236  0.28274  0.94840  1.0000
  H   H11       1.0  0.67763  0.28273  0.44841  1.0000
  H   H12       1.0  0.17763  0.71727  0.05159  1.0000
  H   H13       1.0  0.38315  0.72114  0.65930  1.0000
  H   H14       1.0  0.88315  0.27887  0.84070  1.0000
  H   H15       1.0  0.61685  0.27886  0.34070  1.0000
  H   H16       1.0  0.11685  0.72114  0.15930  1.0000
  H   H17       1.0  0.76347  0.82639  0.85372  1.0000
  H   H18       1.0  0.26347  0.17360  0.64628  1.0000
  H   H19       1.0  0.23653  0.17360  0.14628  1.0000
  H   H20       1.0  0.73653  0.82640  0.35372  1.0000
  H   H21       1.0  0.72294  0.79938  0.96223  1.0000
  H   H22       1.0  0.22293  0.20061  0.53777  1.0000
  H   H23       1.0  0.27708  0.20061  0.03777  1.0000
  H   H24       1.0  0.77707  0.79938  0.46223  1.0000
  H   H25       1.0  0.31664  0.21387  0.95007  1.0000
  H   H26       1.0  0.81663  0.78612  0.54993  1.0000
  H   H27       1.0  0.68337  0.78611  0.04993  1.0000
  H   H28       1.0  0.18336  0.21388  0.45007  1.0000
  H   H29       1.0  0.37601  0.22098  0.84227  1.0000
  H   H30       1.0  0.87601  0.77901  0.65774  1.0000
  H   H31       1.0  0.62399  0.77901  0.15774  1.0000
  H   H32       1.0  0.12398  0.22099  0.34226  1.0000
  C   C1        1.0  0.66811  0.40650  0.62197  1.0000
  C   C2        1.0  0.16812  0.59350  0.87803  1.0000
  C   C3        1.0  0.33188  0.59350  0.37803  1.0000
  C   C4        1.0  0.83188  0.40650  0.12197  1.0000
  C   C5        1.0  0.64263  0.39409  0.56074  1.0000
  C   C6        1.0  0.14264  0.60592  0.93926  1.0000
  C   C7        1.0  0.35737  0.60592  0.43927  1.0000
  C   C8        1.0  0.85736  0.39409  0.06073  1.0000
  C   C9        1.0  0.51640  0.50517  0.53255  1.0000
  C   C10       1.0  0.01640  0.49484  0.96745  1.0000
  C   C11       1.0  0.48360  0.49484  0.46745  1.0000
  C   C12       1.0  0.98359  0.50517  0.03255  1.0000
  C   C13       1.0  0.42285  0.62606  0.56917  1.0000
  C   C14       1.0  0.92284  0.37395  0.93083  1.0000
  C   C15       1.0  0.57716  0.37394  0.43083  1.0000
  C   C16       1.0  0.07716  0.62606  0.06917  1.0000
  C   C17       1.0  0.45535  0.62962  0.63012  1.0000
  C   C18       1.0  0.95536  0.37039  0.86988  1.0000
  C   C19       1.0  0.54464  0.37039  0.36988  1.0000
  C   C20       1.0  0.04464  0.62962  0.13012  1.0000
  C   C21       1.0  0.66608  0.90976  0.87705  1.0000
  C   C22       1.0  0.16607  0.09023  0.62295  1.0000
  C   C23       1.0  0.33393  0.09022  0.12295  1.0000
  C   C24       1.0  0.83392  0.90977  0.37705  1.0000
  C   C25       1.0  0.64226  0.89639  0.93824  1.0000
  C   C26       1.0  0.14225  0.10360  0.56176  1.0000
  C   C27       1.0  0.35775  0.10361  0.06176  1.0000
  C   C28       1.0  0.85775  0.89639  0.43824  1.0000
  C   C29       1.0  0.51528  0.00546  0.96743  1.0000
  C   C30       1.0  0.01527  0.99453  0.53257  1.0000
  C   C31       1.0  0.48474  0.99453  0.03258  1.0000
  C   C32       1.0  0.98473  0.00546  0.46743  1.0000
  C   C33       1.0  0.41853  0.12485  0.93170  1.0000
  C   C34       1.0  0.91852  0.87515  0.56830  1.0000
  C   C35       1.0  0.58148  0.87515  0.06830  1.0000
  C   C36       1.0  0.08148  0.12485  0.43171  1.0000
  C   C37       1.0  0.44990  0.12983  0.87072  1.0000
  C   C38       1.0  0.94989  0.87016  0.62928  1.0000
  C   C39       1.0  0.55011  0.87015  0.12928  1.0000
  C   C40       1.0  0.05010  0.12984  0.37072  1.0000
  N   N1        1.0  0.57516  0.52135  0.65644  1.0000
  N   N2        1.0  0.07517  0.47866  0.84356  1.0000
  N   N3        1.0  0.42483  0.47865  0.34356  1.0000
  N   N4        1.0  0.92483  0.52135  0.15644  1.0000
  N   N5        1.0  0.57117  0.02417  0.84348  1.0000
  N   N6        1.0  0.07117  0.97582  0.65652  1.0000
  N   N7        1.0  0.42883  0.97583  0.15652  1.0000
  N   N8        1.0  0.92882  0.02417  0.34348  1.0000
  O   O1        1.0  0.83040  0.45826  0.74888  1.0000
  O   O2        1.0  0.33040  0.54174  0.75112  1.0000
  O   O3        1.0  0.16960  0.54174  0.25112  1.0000
  O   O4        1.0  0.66960  0.45826  0.24888  1.0000
  O   O5        1.0  0.62183  0.76092  0.75335  1.0000
  O   O6        1.0  0.12183  0.23907  0.74665  1.0000
  O   O7        1.0  0.37817  0.23908  0.24665  1.0000
  O   O8        1.0  0.87817  0.76093  0.25335  1.0000
  O   O9        1.0  0.58722  0.50914  0.84077  1.0000
  O   O10       1.0  0.08722  0.49086  0.65923  1.0000
  O   O11       1.0  0.41278  0.49086  0.15923  1.0000
  O   O12       1.0  0.91278  0.50914  0.34077  1.0000
  O   O13       1.0  0.53592  0.26084  0.74669  1.0000
  O   O14       1.0  0.03592  0.73916  0.75331  1.0000
  O   O15       1.0  0.46408  0.73916  0.25331  1.0000
  O   O16       1.0  0.96408  0.26084  0.24669  1.0000
  O   O17       1.0  0.58476  0.00740  0.65925  1.0000
  O   O18       1.0  0.08476  0.99260  0.84075  1.0000
  O   O19       1.0  0.41525  0.99261  0.34075  1.0000
  O   O20       1.0  0.91524  0.00741  0.15925  1.0000
  O   O21       1.0  0.83379  0.04289  0.75020  1.0000
  O   O22       1.0  0.33379  0.95711  0.74980  1.0000
  O   O23       1.0  0.16621  0.95711  0.24980  1.0000
  O   O24       1.0  0.66621  0.04289  0.25020  1.0000
