data_image0
_chemical_formula_structural       Ba4H4C8O18
_chemical_formula_sum              "Ba4 H4 C8 O18"
_cell_length_a       6.27972
_cell_length_b       8.72186
_cell_length_c       9.26421
_cell_angle_alpha    65.1683
_cell_angle_beta     85.2816
_cell_angle_gamma    84.5207

_space_group_name_H-M_alt    "P 1"
_space_group_IT_number       1

loop_
  _space_group_symop_operation_xyz
  'x, y, z'

loop_
  _atom_site_type_symbol
  _atom_site_label
  _atom_site_symmetry_multiplicity
  _atom_site_fract_x
  _atom_site_fract_y
  _atom_site_fract_z
  _atom_site_occupancy
  Ba  Ba1       1.0  0.28115  0.04407  0.79361  1.0000
  Ba  Ba2       1.0  0.71885  0.95593  0.20639  1.0000
  Ba  Ba3       1.0  0.20610  0.63822  0.58165  1.0000
  Ba  Ba4       1.0  0.79390  0.36178  0.41835  1.0000
  H   H1        1.0  0.31740  0.39035  0.94898  1.0000
  H   H2        1.0  0.68261  0.60965  0.05102  1.0000
  H   H3        1.0  0.33158  0.57798  0.92767  1.0000
  H   H4        1.0  0.66843  0.42202  0.07234  1.0000
  C   C1        1.0  0.81673  0.92208  0.67705  1.0000
  C   C2        1.0  0.18326  0.07792  0.32294  1.0000
  C   C3        1.0  0.67235  0.81781  0.62924  1.0000
  C   C4        1.0  0.32765  0.18219  0.37075  1.0000
  C   C5        1.0  0.87040  0.27817  0.82150  1.0000
  C   C6        1.0  0.12961  0.72183  0.17849  1.0000
  C   C7        1.0  0.62155  0.29596  0.81620  1.0000
  C   C8        1.0  0.37844  0.70404  0.18380  1.0000
  O   O1        1.0  0.01484  0.87958  0.68610  1.0000
  O   O2        1.0  0.98515  0.12043  0.31390  1.0000
  O   O3        1.0  0.72464  0.04892  0.69675  1.0000
  O   O4        1.0  0.27535  0.95108  0.30325  1.0000
  O   O5        1.0  0.75694  0.75369  0.53616  1.0000
  O   O6        1.0  0.24306  0.24632  0.46384  1.0000
  O   O7        1.0  0.47844  0.80933  0.68115  1.0000
  O   O8        1.0  0.52156  0.19067  0.31885  1.0000
  O   O9        1.0  0.97778  0.35491  0.69148  1.0000
  O   O10       1.0  0.02222  0.64509  0.30852  1.0000
  O   O11       1.0  0.95089  0.18090  0.95144  1.0000
  O   O12       1.0  0.04911  0.81909  0.04856  1.0000
  O   O13       1.0  0.53804  0.37730  0.68312  1.0000
  O   O14       1.0  0.46196  0.62270  0.31688  1.0000
  O   O15       1.0  0.51658  0.21919  0.94759  1.0000
  O   O16       1.0  0.48342  0.78080  0.05242  1.0000
  O   O17       1.0  0.23750  0.50193  0.91572  1.0000
  O   O18       1.0  0.76251  0.49807  0.08427  1.0000
