data_image0
_chemical_formula_structural       Cu2H44C44N8O12
_chemical_formula_sum              "Cu2 H44 C44 N8 O12"
_cell_length_a       7.73256
_cell_length_b       10.1466
_cell_length_c       15.089
_cell_angle_alpha    90
_cell_angle_beta     90
_cell_angle_gamma    111.528

_space_group_name_H-M_alt    "P 1"
_space_group_IT_number       1

loop_
  _space_group_symop_operation_xyz
  'x, y, z'

loop_
  _atom_site_type_symbol
  _atom_site_label
  _atom_site_symmetry_multiplicity
  _atom_site_fract_x
  _atom_site_fract_y
  _atom_site_fract_z
  _atom_site_occupancy
  Cu  Cu1       1.0  0.50000  0.00000  0.50000  1.0000
  Cu  Cu2       1.0  0.00000  1.00000  0.00000  1.0000
  H   H1        1.0  0.64181  0.74010  0.49568  1.0000
  H   H2        1.0  0.85819  0.25991  0.99568  1.0000
  H   H3        1.0  0.35819  0.25991  0.50432  1.0000
  H   H4        1.0  0.14182  0.74009  0.00433  1.0000
  H   H5        1.0  0.32102  0.85512  0.68432  1.0000
  H   H6        1.0  0.17899  0.14489  0.18432  1.0000
  H   H7        1.0  0.67899  0.14488  0.31568  1.0000
  H   H8        1.0  0.82101  0.85511  0.81568  1.0000
  H   H9        1.0  0.37926  0.61685  0.74566  1.0000
  H   H10       1.0  0.12074  0.38315  0.24566  1.0000
  H   H11       1.0  0.62074  0.38315  0.25434  1.0000
  H   H12       1.0  0.87926  0.61685  0.75434  1.0000
  H   H13       1.0  0.83327  0.62755  0.54331  1.0000
  H   H14       1.0  0.66672  0.37245  0.04332  1.0000
  H   H15       1.0  0.16672  0.37246  0.45668  1.0000
  H   H16       1.0  0.33328  0.62755  0.95668  1.0000
  H   H17       1.0  0.92483  0.41652  0.54277  1.0000
  H   H18       1.0  0.57517  0.58349  0.04277  1.0000
  H   H19       1.0  0.07517  0.58349  0.45723  1.0000
  H   H20       1.0  0.42483  0.41651  0.95723  1.0000
  H   H21       1.0  0.46281  0.19421  0.71253  1.0000
  H   H22       1.0  0.03719  0.80579  0.21253  1.0000
  H   H23       1.0  0.53719  0.80579  0.28747  1.0000
  H   H24       1.0  0.96280  0.19421  0.78747  1.0000
  H   H25       1.0  0.36348  0.39938  0.70975  1.0000
  H   H26       1.0  0.13652  0.60061  0.20975  1.0000
  H   H27       1.0  0.63652  0.60062  0.29025  1.0000
  H   H28       1.0  0.86348  0.39939  0.79025  1.0000
  H   H29       1.0  0.85704  0.90347  0.62651  1.0000
  H   H30       1.0  0.64296  0.09653  0.12651  1.0000
  H   H31       1.0  0.14296  0.09653  0.37349  1.0000
  H   H32       1.0  0.35704  0.90347  0.87349  1.0000
  H   H33       1.0  0.03662  0.07189  0.64801  1.0000
  H   H34       1.0  0.46338  0.92810  0.14801  1.0000
  H   H35       1.0  0.96337  0.92811  0.35199  1.0000
  H   H36       1.0  0.53663  0.07190  0.85199  1.0000
  H   H37       1.0  0.04305  0.91845  0.70102  1.0000
  H   H38       1.0  0.45696  0.08155  0.20103  1.0000
  H   H39       1.0  0.95695  0.08155  0.29898  1.0000
  H   H40       1.0  0.54305  0.91845  0.79898  1.0000
  H   H41       1.0  0.82795  0.17513  0.57310  1.0000
  H   H42       1.0  0.67205  0.82487  0.07310  1.0000
  H   H43       1.0  0.17205  0.82487  0.42690  1.0000
  H   H44       1.0  0.32795  0.17513  0.92691  1.0000
  C   C1        1.0  0.56245  0.73968  0.55481  1.0000
  C   C2        1.0  0.93755  0.26032  0.05481  1.0000
  C   C3        1.0  0.43755  0.26033  0.44519  1.0000
  C   C4        1.0  0.06245  0.73968  0.94519  1.0000
  C   C5        1.0  0.39484  0.79466  0.65402  1.0000
  C   C6        1.0  0.10517  0.20534  0.15402  1.0000
  C   C7        1.0  0.60516  0.20534  0.34598  1.0000
  C   C8        1.0  0.89484  0.79466  0.84599  1.0000
  C   C9        1.0  0.42194  0.67653  0.68478  1.0000
  C   C10       1.0  0.07806  0.32347  0.18478  1.0000
  C   C11       1.0  0.57806  0.32347  0.31522  1.0000
  C   C12       1.0  0.92194  0.67653  0.81522  1.0000
  C   C13       1.0  0.58882  0.52539  0.62426  1.0000
  C   C14       1.0  0.91118  0.47461  0.12426  1.0000
  C   C15       1.0  0.41118  0.47461  0.37574  1.0000
  C   C16       1.0  0.08883  0.52539  0.87574  1.0000
  C   C17       1.0  0.74861  0.53111  0.57822  1.0000
  C   C18       1.0  0.75138  0.46889  0.07822  1.0000
  C   C19       1.0  0.25138  0.46889  0.42178  1.0000
  C   C20       1.0  0.24862  0.53111  0.92178  1.0000
  C   C21       1.0  0.80230  0.41425  0.57927  1.0000
  C   C22       1.0  0.69769  0.58575  0.07927  1.0000
  C   C23       1.0  0.19770  0.58576  0.42072  1.0000
  C   C24       1.0  0.30231  0.41425  0.92073  1.0000
  C   C25       1.0  0.69864  0.29093  0.62637  1.0000
  C   C26       1.0  0.80136  0.70907  0.12637  1.0000
  C   C27       1.0  0.30136  0.70907  0.37363  1.0000
  C   C28       1.0  0.19864  0.29093  0.87363  1.0000
  C   C29       1.0  0.54370  0.28913  0.67575  1.0000
  C   C30       1.0  0.95629  0.71087  0.17575  1.0000
  C   C31       1.0  0.45629  0.71087  0.32424  1.0000
  C   C32       1.0  0.04371  0.28913  0.82425  1.0000
  C   C33       1.0  0.48811  0.40484  0.67377  1.0000
  C   C34       1.0  0.01189  0.59516  0.17377  1.0000
  C   C35       1.0  0.51189  0.59516  0.32622  1.0000
  C   C36       1.0  0.98811  0.40484  0.82623  1.0000
  C   C37       1.0  0.12282  0.93527  0.56511  1.0000
  C   C38       1.0  0.37718  0.06473  0.06511  1.0000
  C   C39       1.0  0.87718  0.06473  0.43489  1.0000
  C   C40       1.0  0.62282  0.93527  0.93489  1.0000
  C   C41       1.0  0.00558  0.95842  0.63911  1.0000
  C   C42       1.0  0.49442  0.04158  0.13912  1.0000
  C   C43       1.0  0.99442  0.04158  0.36089  1.0000
  C   C44       1.0  0.50558  0.95842  0.86089  1.0000
  N   N1        1.0  0.48355  0.83322  0.57344  1.0000
  N   N2        1.0  0.01646  0.16678  0.07344  1.0000
  N   N3        1.0  0.51645  0.16678  0.42656  1.0000
  N   N4        1.0  0.98355  0.83322  0.92656  1.0000
  N   N5        1.0  0.52857  0.64243  0.62121  1.0000
  N   N6        1.0  0.97143  0.35757  0.12121  1.0000
  N   N7        1.0  0.47143  0.35758  0.37879  1.0000
  N   N8        1.0  0.02857  0.64243  0.87879  1.0000
  O   O1        1.0  0.05344  0.83636  0.50963  1.0000
  O   O2        1.0  0.44655  0.16363  0.00964  1.0000
  O   O3        1.0  0.94656  0.16364  0.49037  1.0000
  O   O4        1.0  0.55345  0.83636  0.99037  1.0000
  O   O5        1.0  0.29342  0.02110  0.56677  1.0000
  O   O6        1.0  0.20657  0.97889  0.06677  1.0000
  O   O7        1.0  0.70657  0.97890  0.43323  1.0000
  O   O8        1.0  0.79343  0.02110  0.93323  1.0000
  O   O9        1.0  0.74150  0.17300  0.62514  1.0000
  O   O10       1.0  0.75850  0.82700  0.12514  1.0000
  O   O11       1.0  0.25850  0.82700  0.37485  1.0000
  O   O12       1.0  0.24150  0.17300  0.87486  1.0000
