data_image0
_chemical_formula_structural       GaH16C32N8F
_chemical_formula_sum              "Ga1 H16 C32 N8 F1"
_cell_length_a       3.91435
_cell_length_b       12.4914
_cell_length_c       12.7338
_cell_angle_alpha    90.4582
_cell_angle_beta     96.4815
_cell_angle_gamma    89.9091

_space_group_name_H-M_alt    "P 1"
_space_group_IT_number       1

loop_
  _space_group_symop_operation_xyz
  'x, y, z'

loop_
  _atom_site_type_symbol
  _atom_site_label
  _atom_site_symmetry_multiplicity
  _atom_site_fract_x
  _atom_site_fract_y
  _atom_site_fract_z
  _atom_site_occupancy
  Ga  Ga1       1.0  0.00001  1.00000  0.00000  1.0000
  H   H1        1.0  0.23733  0.01766  0.46671  1.0000
  H   H2        1.0  0.76267  0.98234  0.53330  1.0000
  H   H3        1.0  0.42125  0.18099  0.57228  1.0000
  H   H4        1.0  0.57876  0.81901  0.42772  1.0000
  H   H5        1.0  0.47084  0.35579  0.48382  1.0000
  H   H6        1.0  0.52916  0.64421  0.51618  1.0000
  H   H7        1.0  0.34389  0.37102  0.28726  1.0000
  H   H8        1.0  0.65612  0.62898  0.71274  1.0000
  H   H9        1.0  0.25080  0.46552  0.98314  1.0000
  H   H10       1.0  0.74921  0.53448  0.01685  1.0000
  H   H11       1.0  0.24843  0.57073  0.81731  1.0000
  H   H12       1.0  0.75157  0.42927  0.18268  1.0000
  H   H13       1.0  0.11211  0.48257  0.64213  1.0000
  H   H14       1.0  0.88787  0.51742  0.35786  1.0000
  H   H15       1.0  0.97570  0.28665  0.62877  1.0000
  H   H16       1.0  0.02427  0.71335  0.37123  1.0000
  C   C1        1.0  0.10944  0.02305  0.23659  1.0000
  C   C2        1.0  0.89057  0.97695  0.76341  1.0000
  C   C3        1.0  0.19838  0.10293  0.31926  1.0000
  C   C4        1.0  0.80164  0.89707  0.68074  1.0000
  C   C5        1.0  0.26278  0.09443  0.42864  1.0000
  C   C6        1.0  0.73722  0.90557  0.57136  1.0000
  C   C7        1.0  0.36291  0.18647  0.48675  1.0000
  C   C8        1.0  0.63708  0.81353  0.51325  1.0000
  C   C9        1.0  0.39185  0.28523  0.43611  1.0000
  C   C10       1.0  0.60816  0.71477  0.56389  1.0000
  C   C11       1.0  0.32264  0.29456  0.32654  1.0000
  C   C12       1.0  0.67738  0.70544  0.67346  1.0000
  C   C13       1.0  0.22623  0.20214  0.26832  1.0000
  C   C14       1.0  0.77379  0.79786  0.73168  1.0000
  C   C15       1.0  0.14476  0.18145  0.15528  1.0000
  C   C16       1.0  0.85525  0.81855  0.84472  1.0000
  C   C17       1.0  0.08813  0.23732  0.97824  1.0000
  C   C18       1.0  0.91187  0.76269  0.02176  1.0000
  C   C19       1.0  0.11019  0.31920  0.89824  1.0000
  C   C20       1.0  0.88980  0.68080  0.10176  1.0000
  C   C21       1.0  0.19096  0.42769  0.90606  1.0000
  C   C22       1.0  0.80903  0.57231  0.09394  1.0000
  C   C23       1.0  0.19050  0.48539  0.81272  1.0000
  C   C24       1.0  0.80949  0.51461  0.18728  1.0000
  C   C25       1.0  0.11249  0.43505  0.71368  1.0000
  C   C26       1.0  0.88749  0.56495  0.28632  1.0000
  C   C27       1.0  0.03525  0.32599  0.70530  1.0000
  C   C28       1.0  0.96473  0.67401  0.29470  1.0000
  C   C29       1.0  0.03556  0.26835  0.79876  1.0000
  C   C30       1.0  0.96444  0.73164  0.20124  1.0000
  C   C31       1.0  0.97780  0.15552  0.81984  1.0000
  C   C32       1.0  0.02220  0.84448  0.18016  1.0000
  N   N1        1.0  0.07399  0.07394  0.14050  1.0000
  N   N2        1.0  0.92602  0.92606  0.85950  1.0000
  N   N3        1.0  0.00421  0.14152  0.92772  1.0000
  N   N4        1.0  0.99577  0.85848  0.07229  1.0000
  N   N5        1.0  0.08054  0.91899  0.25515  1.0000
  N   N6        1.0  0.91946  0.08101  0.74485  1.0000
  N   N7        1.0  0.14944  0.25604  0.08160  1.0000
  N   N8        1.0  0.85056  0.74395  0.91840  1.0000
  F   F1        1.0  0.49999  1.00000  1.00000  1.0000
