data_image0
_chemical_formula_structural       Ag2GeH14C12O16
_chemical_formula_sum              "Ag2 Ge1 H14 C12 O16"
_cell_length_a       6.24818
_cell_length_b       8.04326
_cell_length_c       9.36316
_cell_angle_alpha    107.001
_cell_angle_beta     77.881
_cell_angle_gamma    94.6131

_space_group_name_H-M_alt    "P 1"
_space_group_IT_number       1

loop_
  _space_group_symop_operation_xyz
  'x, y, z'

loop_
  _atom_site_type_symbol
  _atom_site_label
  _atom_site_symmetry_multiplicity
  _atom_site_fract_x
  _atom_site_fract_y
  _atom_site_fract_z
  _atom_site_occupancy
  Ag  Ag1       1.0  0.28619  0.08999  0.53144  1.0000
  Ag  Ag2       1.0  0.71379  0.91002  0.46857  1.0000
  Ge  Ge1       1.0  0.50000  0.50000  0.50001  1.0000
  H   H1        1.0  0.26593  0.79944  0.02930  1.0000
  H   H2        1.0  0.73407  0.20056  0.97070  1.0000
  H   H3        1.0  0.11816  0.16047  0.83779  1.0000
  H   H4        1.0  0.88181  0.83952  0.16222  1.0000
  H   H5        1.0  0.36943  0.12997  0.81917  1.0000
  H   H6        1.0  0.63055  0.87004  0.18082  1.0000
  H   H7        1.0  0.20118  0.54621  0.16400  1.0000
  H   H8        1.0  0.79882  0.45379  0.83600  1.0000
  H   H9        1.0  0.98718  0.52184  0.31255  1.0000
  H   H10       1.0  0.01282  0.47816  0.68744  1.0000
  H   H11       1.0  0.98912  0.19349  0.27875  1.0000
  H   H12       1.0  0.01088  0.80651  0.72124  1.0000
  H   H13       1.0  0.10390  0.22544  0.10124  1.0000
  H   H14       1.0  0.89611  0.77456  0.89875  1.0000
  C   C1        1.0  0.27145  0.36690  0.28273  1.0000
  C   C2        1.0  0.72856  0.63310  0.71727  1.0000
  C   C3        1.0  0.51323  0.37053  0.19984  1.0000
  C   C4        1.0  0.48678  0.62947  0.80016  1.0000
  C   C5        1.0  0.16584  0.53294  0.28057  1.0000
  C   C6        1.0  0.83417  0.46705  0.71942  1.0000
  C   C7        1.0  0.23712  0.70090  0.38333  1.0000
  C   C8        1.0  0.76287  0.29912  0.61667  1.0000
  C   C9        1.0  0.14646  0.20734  0.20354  1.0000
  C   C10       1.0  0.85355  0.79266  0.79646  1.0000
  C   C11       1.0  0.26981  0.04038  0.15625  1.0000
  C   C12       1.0  0.73019  0.95962  0.84374  1.0000
  O   O1        1.0  0.26521  0.36614  0.43633  1.0000
  O   O2        1.0  0.73480  0.63386  0.56366  1.0000
  O   O3        1.0  0.65253  0.42628  0.29028  1.0000
  O   O4        1.0  0.34747  0.57372  0.70973  1.0000
  O   O5        1.0  0.56323  0.33258  0.05855  1.0000
  O   O6        1.0  0.43679  0.66743  0.94146  1.0000
  O   O7        1.0  0.38488  0.70410  0.46451  1.0000
  O   O8        1.0  0.61511  0.29590  0.53549  1.0000
  O   O9        1.0  0.15353  0.83942  0.38795  1.0000
  O   O10       1.0  0.84648  0.16056  0.61204  1.0000
  O   O11       1.0  0.45269  0.03162  0.18332  1.0000
  O   O12       1.0  0.54731  0.96838  0.81669  1.0000
  O   O13       1.0  0.16322  0.90469  0.07914  1.0000
  O   O14       1.0  0.83678  0.09531  0.92085  1.0000
  O   O15       1.0  0.26449  0.19687  0.79302  1.0000
  O   O16       1.0  0.73548  0.80313  0.20699  1.0000
