data_image0
_chemical_formula_structural       Zn2H40C68N4O8
_chemical_formula_sum              "Zn2 H40 C68 N4 O8"
_cell_length_a       8.58975
_cell_length_b       12.3088
_cell_length_c       14.2236
_cell_angle_alpha    72.6063
_cell_angle_beta     88.1156
_cell_angle_gamma    71.6159

_space_group_name_H-M_alt    "P 1"
_space_group_IT_number       1

loop_
  _space_group_symop_operation_xyz
  'x, y, z'

loop_
  _atom_site_type_symbol
  _atom_site_label
  _atom_site_symmetry_multiplicity
  _atom_site_fract_x
  _atom_site_fract_y
  _atom_site_fract_z
  _atom_site_occupancy
  Zn  Zn1       1.0  0.10508  0.20138  0.27617  1.0000
  Zn  Zn2       1.0  0.89492  0.79862  0.72383  1.0000
  H   H1        1.0  0.02209  0.92113  0.16056  1.0000
  H   H2        1.0  0.97791  0.07888  0.83944  1.0000
  H   H3        1.0  0.02014  0.83351  0.47618  1.0000
  H   H4        1.0  0.97986  0.16649  0.52382  1.0000
  H   H5        1.0  0.80090  0.47289  0.42389  1.0000
  H   H6        1.0  0.19910  0.52711  0.57610  1.0000
  H   H7        1.0  0.96137  0.64555  0.48469  1.0000
  H   H8        1.0  0.03863  0.35445  0.51531  1.0000
  H   H9        1.0  0.92124  0.59845  0.33094  1.0000
  H   H10       1.0  0.07877  0.40155  0.66906  1.0000
  H   H11       1.0  0.96802  0.79954  0.07541  1.0000
  H   H12       1.0  0.03198  0.20046  0.92459  1.0000
  H   H13       1.0  0.27083  0.57961  0.23497  1.0000
  H   H14       1.0  0.72917  0.42039  0.76504  1.0000
  H   H15       1.0  0.82980  0.59984  0.19283  1.0000
  H   H16       1.0  0.17020  0.40016  0.80717  1.0000
  H   H17       1.0  0.29057  0.68819  0.35091  1.0000
  H   H18       1.0  0.70943  0.31181  0.64909  1.0000
  H   H19       1.0  0.74777  0.71938  0.58095  1.0000
  H   H20       1.0  0.25223  0.28062  0.41905  1.0000
  H   H21       1.0  0.33498  0.78620  0.44247  1.0000
  H   H22       1.0  0.66503  0.21380  0.55753  1.0000
  H   H23       1.0  0.23149  0.93239  0.52975  1.0000
  H   H24       1.0  0.76851  0.06761  0.47025  1.0000
  H   H25       1.0  0.69105  0.61785  0.50247  1.0000
  H   H26       1.0  0.30895  0.38215  0.49753  1.0000
  H   H27       1.0  0.57007  0.98029  0.71966  1.0000
  H   H28       1.0  0.42993  0.01971  0.28035  1.0000
  H   H29       1.0  0.28555  0.04065  0.64205  1.0000
  H   H30       1.0  0.71445  0.95934  0.35795  1.0000
  H   H31       1.0  0.52031  0.41794  0.20956  1.0000
  H   H32       1.0  0.47969  0.58206  0.79044  1.0000
  H   H33       1.0  0.74438  0.49188  0.10162  1.0000
  H   H34       1.0  0.25562  0.50811  0.89838  1.0000
  H   H35       1.0  0.69482  0.46074  0.94214  1.0000
  H   H36       1.0  0.30518  0.53926  0.05786  1.0000
  H   H37       1.0  0.76445  0.59481  0.78522  1.0000
  H   H38       1.0  0.23555  0.40519  0.21478  1.0000
  H   H39       1.0  0.92170  0.78288  0.93694  1.0000
  H   H40       1.0  0.07830  0.21712  0.06306  1.0000
  C   C1        1.0  0.60967  0.07581  0.04809  1.0000
  C   C2        1.0  0.39032  0.92419  0.95190  1.0000
  C   C3        1.0  0.58961  0.11824  0.94978  1.0000
  C   C4        1.0  0.41039  0.88177  0.05022  1.0000
  C   C5        1.0  0.64232  0.20939  0.94841  1.0000
  C   C6        1.0  0.35768  0.79061  0.05159  1.0000
  C   C7        1.0  0.69875  0.26581  0.99915  1.0000
  C   C8        1.0  0.30126  0.73419  0.00085  1.0000
  C   C9        1.0  0.69190  0.18697  0.08576  1.0000
  C   C10       1.0  0.30810  0.81303  0.91424  1.0000
  C   C11       1.0  0.65531  0.08788  0.13176  1.0000
  C   C12       1.0  0.34469  0.91212  0.86824  1.0000
  C   C13       1.0  0.06128  0.00049  0.31107  1.0000
  C   C14       1.0  0.93871  0.99951  0.68893  1.0000
  C   C15       1.0  0.82401  0.34617  0.29456  1.0000
  C   C16       1.0  0.17599  0.65383  0.70544  1.0000
  C   C17       1.0  0.67523  0.43791  0.31410  1.0000
  C   C18       1.0  0.32477  0.56209  0.68590  1.0000
  C   C19       1.0  0.02589  0.88744  0.31732  1.0000
  C   C20       1.0  0.97411  0.11256  0.68268  1.0000
  C   C21       1.0  0.00612  0.86013  0.23086  1.0000
  C   C22       1.0  0.99388  0.13987  0.76914  1.0000
  C   C23       1.0  0.00710  0.81078  0.40905  1.0000
  C   C24       1.0  0.99290  0.18922  0.59096  1.0000
  C   C25       1.0  0.68461  0.49834  0.38159  1.0000
  C   C26       1.0  0.31540  0.50166  0.61841  1.0000
  C   C27       1.0  0.97150  0.70632  0.41284  1.0000
  C   C28       1.0  0.02851  0.29368  0.58716  1.0000
  C   C29       1.0  0.96315  0.75825  0.23347  1.0000
  C   C30       1.0  0.03685  0.24174  0.76653  1.0000
  C   C31       1.0  0.94909  0.68022  0.32654  1.0000
  C   C32       1.0  0.05091  0.31978  0.67346  1.0000
  C   C33       1.0  0.93380  0.73945  0.14023  1.0000
  C   C34       1.0  0.06620  0.26055  0.85977  1.0000
  C   C35       1.0  0.54860  0.59066  0.39543  1.0000
  C   C36       1.0  0.45140  0.40934  0.60457  1.0000
  C   C37       1.0  0.38814  0.55654  0.27558  1.0000
  C   C38       1.0  0.61186  0.44346  0.72442  1.0000
  C   C39       1.0  0.86687  0.65834  0.12821  1.0000
  C   C40       1.0  0.13313  0.34166  0.87179  1.0000
  C   C41       1.0  0.39920  0.61823  0.34140  1.0000
  C   C42       1.0  0.60080  0.38177  0.65860  1.0000
  C   C43       1.0  0.63954  0.78822  0.59270  1.0000
  C   C44       1.0  0.36046  0.21178  0.40730  1.0000
  C   C45       1.0  0.45763  0.75052  0.48006  1.0000
  C   C46       1.0  0.54237  0.24948  0.51994  1.0000
  C   C47       1.0  0.35446  0.90745  0.56446  1.0000
  C   C48       1.0  0.64554  0.09255  0.43554  1.0000
  C   C49       1.0  0.48463  0.81417  0.54611  1.0000
  C   C50       1.0  0.51537  0.18583  0.45390  1.0000
  C   C51       1.0  0.56967  0.65398  0.46317  1.0000
  C   C52       1.0  0.43033  0.34602  0.53683  1.0000
  C   C53       1.0  0.54080  0.93549  0.67036  1.0000
  C   C54       1.0  0.45920  0.06450  0.32964  1.0000
  C   C55       1.0  0.38372  0.96830  0.62664  1.0000
  C   C56       1.0  0.61627  0.03170  0.37336  1.0000
  C   C57       1.0  0.52554  0.46694  0.26112  1.0000
  C   C58       1.0  0.47446  0.53306  0.73888  1.0000
  C   C59       1.0  0.83644  0.64082  0.03470  1.0000
  C   C60       1.0  0.16356  0.35918  0.96530  1.0000
  C   C61       1.0  0.77082  0.55008  0.03289  1.0000
  C   C62       1.0  0.22918  0.44992  0.96711  1.0000
  C   C63       1.0  0.74284  0.53250  0.94366  1.0000
  C   C64       1.0  0.25716  0.46750  0.05634  1.0000
  C   C65       1.0  0.78198  0.60505  0.85728  1.0000
  C   C66       1.0  0.21802  0.39495  0.14272  1.0000
  C   C67       1.0  0.87115  0.71030  0.94329  1.0000
  C   C68       1.0  0.12885  0.28970  0.05671  1.0000
  N   N1        1.0  0.66623  0.84657  0.65313  1.0000
  N   N2        1.0  0.33377  0.15343  0.34688  1.0000
  N   N3        1.0  0.84473  0.69231  0.85782  1.0000
  N   N4        1.0  0.15527  0.30769  0.14218  1.0000
  O   O1        1.0  0.96326  0.32815  0.33910  1.0000
  O   O2        1.0  0.03674  0.67185  0.66090  1.0000
  O   O3        1.0  0.04797  0.03743  0.38589  1.0000
  O   O4        1.0  0.95202  0.96257  0.61410  1.0000
  O   O5        1.0  0.10277  0.05851  0.22791  1.0000
  O   O6        1.0  0.89723  0.94149  0.77209  1.0000
  O   O7        1.0  0.81239  0.29215  0.23365  1.0000
  O   O8        1.0  0.18761  0.70785  0.76635  1.0000
