data_image0
_chemical_formula_structural       Ag4H18C28N6Cl8O8
_chemical_formula_sum              "Ag4 H18 C28 N6 Cl8 O8"
_cell_length_a       7.46685
_cell_length_b       8.822
_cell_length_c       14.2305
_cell_angle_alpha    91.2884
_cell_angle_beta     101.877
_cell_angle_gamma    101.986

_space_group_name_H-M_alt    "P 1"
_space_group_IT_number       1

loop_
  _space_group_symop_operation_xyz
  'x, y, z'

loop_
  _atom_site_type_symbol
  _atom_site_label
  _atom_site_symmetry_multiplicity
  _atom_site_fract_x
  _atom_site_fract_y
  _atom_site_fract_z
  _atom_site_occupancy
  Ag  Ag1       1.0  0.34791  0.01190  0.09247  1.0000
  Ag  Ag2       1.0  0.65209  0.98809  0.90753  1.0000
  Ag  Ag3       1.0  0.06988  0.28944  0.10290  1.0000
  Ag  Ag4       1.0  0.93012  0.71056  0.89710  1.0000
  H   H1        1.0  0.15848  0.72325  0.38431  1.0000
  H   H2        1.0  0.84152  0.27675  0.61569  1.0000
  H   H3        1.0  0.43712  0.05448  0.28709  1.0000
  H   H4        1.0  0.56288  0.94552  0.71291  1.0000
  H   H5        1.0  0.34050  0.98865  0.38817  1.0000
  H   H6        1.0  0.65950  0.01135  0.61183  1.0000
  H   H7        1.0  0.19990  0.05619  0.28696  1.0000
  H   H8        1.0  0.80010  0.94381  0.71304  1.0000
  H   H9        1.0  0.11743  0.33124  0.30924  1.0000
  H   H10       1.0  0.88256  0.66876  0.69076  1.0000
  H   H11       1.0  0.89233  0.36718  0.26657  1.0000
  H   H12       1.0  0.10767  0.63282  0.73343  1.0000
  H   H13       1.0  0.02578  0.44951  0.38254  1.0000
  H   H14       1.0  0.97422  0.55049  0.61746  1.0000
  H   H15       1.0  0.31969  0.72916  0.01104  1.0000
  H   H16       1.0  0.68032  0.27083  0.98897  1.0000
  H   H17       1.0  0.21413  0.53388  0.00778  1.0000
  H   H18       1.0  0.78587  0.46611  0.99222  1.0000
  C   C1        1.0  0.20965  0.66461  0.12737  1.0000
  C   C2        1.0  0.79035  0.33538  0.87264  1.0000
  C   C3        1.0  0.11738  0.55944  0.26227  1.0000
  C   C4        1.0  0.88262  0.44056  0.73773  1.0000
  C   C5        1.0  0.17223  0.70645  0.31036  1.0000
  C   C6        1.0  0.82777  0.29355  0.68964  1.0000
  C   C7        1.0  0.24694  0.83207  0.26219  1.0000
  C   C8        1.0  0.75306  0.16792  0.73781  1.0000
  C   C9        1.0  0.31126  0.99193  0.30969  1.0000
  C   C10       1.0  0.68874  0.00807  0.69031  1.0000
  C   C11       1.0  0.03360  0.42009  0.30849  1.0000
  C   C12       1.0  0.96640  0.57991  0.69151  1.0000
  C   C13       1.0  0.80894  0.04129  0.17636  1.0000
  C   C14       1.0  0.19106  0.95871  0.82364  1.0000
  C   C15       1.0  0.74978  0.89400  0.22561  1.0000
  C   C16       1.0  0.25022  0.10601  0.77439  1.0000
  C   C17       1.0  0.74865  0.89976  0.32377  1.0000
  C   C18       1.0  0.25134  0.10024  0.67623  1.0000
  C   C19       1.0  0.69082  0.76341  0.36875  1.0000
  C   C20       1.0  0.30918  0.23659  0.63125  1.0000
  C   C21       1.0  0.63546  0.61953  0.31490  1.0000
  C   C22       1.0  0.36454  0.38048  0.68510  1.0000
  C   C23       1.0  0.63967  0.61359  0.21653  1.0000
  C   C24       1.0  0.36033  0.38641  0.78347  1.0000
  C   C25       1.0  0.69795  0.74992  0.17236  1.0000
  C   C26       1.0  0.30205  0.25008  0.82763  1.0000
  C   C27       1.0  0.70968  0.74914  0.06764  1.0000
  C   C28       1.0  0.29033  0.25086  0.93236  1.0000
  N   N1        1.0  0.26082  0.81151  0.16995  1.0000
  N   N2        1.0  0.73918  0.18848  0.83005  1.0000
  N   N3        1.0  0.22791  0.64485  0.03566  1.0000
  N   N4        1.0  0.77209  0.35515  0.96434  1.0000
  N   N5        1.0  0.14035  0.53814  0.17165  1.0000
  N   N6        1.0  0.85965  0.46186  0.82835  1.0000
  Cl  Cl1       1.0  0.81997  0.07572  0.39052  1.0000
  Cl  Cl2       1.0  0.18004  0.92429  0.60948  1.0000
  Cl  Cl3       1.0  0.68579  0.77216  0.48848  1.0000
  Cl  Cl4       1.0  0.31420  0.22785  0.51152  1.0000
  Cl  Cl5       1.0  0.56430  0.45311  0.36955  1.0000
  Cl  Cl6       1.0  0.43569  0.54689  0.63045  1.0000
  Cl  Cl7       1.0  0.56815  0.43820  0.15073  1.0000
  Cl  Cl8       1.0  0.43186  0.56180  0.84927  1.0000
  O   O1        1.0  0.69689  0.12993  0.15705  1.0000
  O   O2        1.0  0.30311  0.87007  0.84295  1.0000
  O   O3        1.0  0.97314  0.06068  0.15903  1.0000
  O   O4        1.0  0.02686  0.93933  0.84097  1.0000
  O   O5        1.0  0.60546  0.82711  0.01585  1.0000
  O   O6        1.0  0.39454  0.17289  0.98415  1.0000
  O   O7        1.0  0.82166  0.67684  0.04163  1.0000
  O   O8        1.0  0.17835  0.32317  0.95837  1.0000
