data_image0
_chemical_formula_structural       Fe2H48C36S4N28
_chemical_formula_sum              "Fe2 H48 C36 S4 N28"
_cell_length_a       8.87006
_cell_length_b       10.386
_cell_length_c       13.4705
_cell_angle_alpha    103.806
_cell_angle_beta     100.053
_cell_angle_gamma    99.6553

_space_group_name_H-M_alt    "P 1"
_space_group_IT_number       1

loop_
  _space_group_symop_operation_xyz
  'x, y, z'

loop_
  _atom_site_type_symbol
  _atom_site_label
  _atom_site_symmetry_multiplicity
  _atom_site_fract_x
  _atom_site_fract_y
  _atom_site_fract_z
  _atom_site_occupancy
  Fe  Fe1       1.0  0.00016  0.50010  0.49999  1.0000
  Fe  Fe2       1.0  0.00823  0.98997  0.00371  1.0000
  H   H1        1.0  0.19457  0.40586  0.68652  1.0000
  H   H2        1.0  0.80545  0.59403  0.31345  1.0000
  H   H3        1.0  0.25869  0.37173  0.37872  1.0000
  H   H4        1.0  0.74128  0.62811  0.62122  1.0000
  H   H5        1.0  0.40602  0.29833  0.74902  1.0000
  H   H6        1.0  0.59434  0.70189  0.25104  1.0000
  H   H7        1.0  0.57481  0.33171  0.69727  1.0000
  H   H8        1.0  0.42534  0.66858  0.30272  1.0000
  H   H9        1.0  0.49631  0.09889  0.57355  1.0000
  H   H10       1.0  0.50362  0.90124  0.42629  1.0000
  H   H11       1.0  0.31395  0.07171  0.61129  1.0000
  H   H12       1.0  0.68637  0.92840  0.38901  1.0000
  H   H13       1.0  0.63529  0.12194  0.76012  1.0000
  H   H14       1.0  0.36566  0.87802  0.23963  1.0000
  H   H15       1.0  0.45282  0.09364  0.79449  1.0000
  H   H16       1.0  0.54849  0.90639  0.20557  1.0000
  H   H17       1.0  0.55601  0.88462  0.63111  1.0000
  H   H18       1.0  0.44485  0.11545  0.36868  1.0000
  H   H19       1.0  0.56602  0.88681  0.76428  1.0000
  H   H20       1.0  0.43509  0.11321  0.23551  1.0000
  H   H21       1.0  0.34270  0.68899  0.52524  1.0000
  H   H22       1.0  0.65764  0.31110  0.47442  1.0000
  H   H23       1.0  0.01817  0.73087  0.71901  1.0000
  H   H24       1.0  0.98286  0.26911  0.28110  1.0000
  H   H25       1.0  0.19561  0.04901  0.24495  1.0000
  H   H26       1.0  0.81409  0.94265  0.75351  1.0000
  H   H27       1.0  0.74086  0.82200  0.09584  1.0000
  H   H28       1.0  0.26732  0.17471  0.89926  1.0000
  H   H29       1.0  0.21518  0.99745  0.41863  1.0000
  H   H30       1.0  0.78414  0.00380  0.58235  1.0000
  H   H31       1.0  0.14321  0.81781  0.38140  1.0000
  H   H32       1.0  0.85633  0.18346  0.61953  1.0000
  H   H33       1.0  0.90874  0.85174  0.45613  1.0000
  H   H34       1.0  0.08953  0.14923  0.54343  1.0000
  H   H35       1.0  0.08745  0.90772  0.54907  1.0000
  H   H36       1.0  0.91055  0.09348  0.45066  1.0000
  H   H37       1.0  0.03702  0.66571  0.94562  1.0000
  H   H38       1.0  0.95724  0.33633  0.05803  1.0000
  H   H39       1.0  0.38045  0.03077  0.03004  1.0000
  H   H40       1.0  0.61317  0.97242  0.97032  1.0000
  H   H41       1.0  0.35079  0.55948  0.86221  1.0000
  H   H42       1.0  0.64452  0.44494  0.13771  1.0000
  H   H43       1.0  0.22310  0.50107  0.93929  1.0000
  H   H44       1.0  0.77241  0.50181  0.06020  1.0000
  H   H45       1.0  0.44685  0.57995  0.09608  1.0000
  H   H46       1.0  0.54837  0.42407  0.90383  1.0000
  H   H47       1.0  0.56746  0.65402  0.02212  1.0000
  H   H48       1.0  0.42758  0.35025  0.97784  1.0000
  C   C1        1.0  0.91375  0.43535  0.69798  1.0000
  C   C2        1.0  0.08606  0.56601  0.30228  1.0000
  C   C3        1.0  0.23748  0.38570  0.61515  1.0000
  C   C4        1.0  0.76267  0.61435  0.38487  1.0000
  C   C5        1.0  0.26957  0.36378  0.45860  1.0000
  C   C6        1.0  0.73050  0.63617  0.54138  1.0000
  C   C7        1.0  0.45228  0.27486  0.67809  1.0000
  C   C8        1.0  0.54797  0.72525  0.32194  1.0000
  C   C9        1.0  0.43871  0.12201  0.63978  1.0000
  C   C10       1.0  0.56165  0.87810  0.36027  1.0000
  C   C11       1.0  0.51119  0.06927  0.72906  1.0000
  C   C12       1.0  0.48972  0.93076  0.27082  1.0000
  C   C13       1.0  0.50380  0.91725  0.69862  1.0000
  C   C14       1.0  0.49718  0.08279  0.30122  1.0000
  C   C15       1.0  0.28197  0.72528  0.58597  1.0000
  C   C16       1.0  0.71864  0.27481  0.41384  1.0000
  C   C17       1.0  0.12097  0.74901  0.68682  1.0000
  C   C18       1.0  0.87998  0.25101  0.31323  1.0000
  C   C19       1.0  0.74149  0.75187  0.86101  1.0000
  C   C20       1.0  0.26266  0.24125  0.14087  1.0000
  C   C21       1.0  0.08129  0.98233  0.22759  1.0000
  C   C22       1.0  0.92717  0.01141  0.77032  1.0000
  C   C23       1.0  0.84975  0.86583  0.15410  1.0000
  C   C24       1.0  0.15718  0.13071  0.84214  1.0000
  C   C25       1.0  0.10851  0.91623  0.39615  1.0000
  C   C26       1.0  0.89075  0.08495  0.60413  1.0000
  C   C27       1.0  0.01727  0.93074  0.48242  1.0000
  C   C28       1.0  0.98087  0.07039  0.51718  1.0000
  C   C29       1.0  0.14696  0.74055  0.96725  1.0000
  C   C30       1.0  0.84699  0.26155  0.03575  1.0000
  C   C31       1.0  0.32467  0.92384  0.00900  1.0000
  C   C32       1.0  0.66929  0.07945  0.99207  1.0000
  C   C33       1.0  0.32755  0.57629  0.94145  1.0000
  C   C34       1.0  0.66747  0.42730  0.05836  1.0000
  C   C35       1.0  0.47239  0.56887  0.01783  1.0000
  C   C36       1.0  0.52285  0.43519  0.98209  1.0000
  S   S1        1.0  0.88808  0.39929  0.80571  1.0000
  S   S2        1.0  0.11115  0.60313  0.19480  1.0000
  S   S3        1.0  0.60018  0.63544  0.77792  1.0000
  S   S4        1.0  0.39720  0.36611  0.22139  1.0000
  N   N1        1.0  0.93406  0.45881  0.61840  1.0000
  N   N2        1.0  0.06611  0.54162  0.38164  1.0000
  N   N3        1.0  0.17764  0.41088  0.52478  1.0000
  N   N4        1.0  0.82256  0.58921  0.47524  1.0000
  N   N5        1.0  0.86178  0.33129  0.40531  1.0000
  N   N6        1.0  0.13882  0.66887  0.59459  1.0000
  N   N7        1.0  0.35834  0.32572  0.60249  1.0000
  N   N8        1.0  0.64171  0.67421  0.39750  1.0000
  N   N9        1.0  0.38055  0.31037  0.50331  1.0000
  N   N10       1.0  0.61946  0.68950  0.49666  1.0000
  N   N11       1.0  0.34431  0.83435  0.66907  1.0000
  N   N12       1.0  0.65666  0.16556  0.33085  1.0000
  N   N13       1.0  0.24414  0.85078  0.73443  1.0000
  N   N14       1.0  0.75702  0.14904  0.26562  1.0000
  N   N15       1.0  0.84389  0.83983  0.92025  1.0000
  N   N16       1.0  0.16524  0.14740  0.08372  1.0000
  N   N17       1.0  0.97521  0.94647  0.13623  1.0000
  N   N18       1.0  0.03699  0.04435  0.85904  1.0000
  N   N19       1.0  0.02179  0.92444  0.29570  1.0000
  N   N20       1.0  0.97992  0.07618  0.70353  1.0000
  N   N21       1.0  0.87427  0.84888  0.24985  1.0000
  N   N22       1.0  0.12685  0.15375  0.74844  1.0000
  N   N23       1.0  0.16614  0.87671  0.99261  1.0000
  N   N24       1.0  0.82703  0.12630  0.01109  1.0000
  N   N25       1.0  0.28880  0.70989  0.96916  1.0000
  N   N26       1.0  0.70509  0.29326  0.03116  1.0000
  N   N27       1.0  0.40287  0.82517  0.99531  1.0000
  N   N28       1.0  0.59022  0.17808  0.00355  1.0000
