data_image0
_chemical_formula_structural       Fe2H48C36S4N28
_chemical_formula_sum              "Fe2 H48 C36 S4 N28"
_cell_length_a       8.32852
_cell_length_b       8.79499
_cell_length_c       16.6535
_cell_angle_alpha    89.9903
_cell_angle_beta     89.9996
_cell_angle_gamma    110.283

_space_group_name_H-M_alt    "P 1"
_space_group_IT_number       1

loop_
  _space_group_symop_operation_xyz
  'x, y, z'

loop_
  _atom_site_type_symbol
  _atom_site_label
  _atom_site_symmetry_multiplicity
  _atom_site_fract_x
  _atom_site_fract_y
  _atom_site_fract_z
  _atom_site_occupancy
  Fe  Fe1       1.0  0.00566  0.98688  0.50436  1.0000
  Fe  Fe2       1.0  0.99419  0.51304  0.00451  1.0000
  H   H1        1.0  0.73689  0.48514  0.29754  1.0000
  H   H2        1.0  0.26309  0.01519  0.79748  1.0000
  H   H3        1.0  0.25306  0.51991  0.70109  1.0000
  H   H4        1.0  0.74719  0.98034  0.20107  1.0000
  H   H5        1.0  0.63468  0.47605  0.39188  1.0000
  H   H6        1.0  0.36512  0.02383  0.89184  1.0000
  H   H7        1.0  0.35533  0.52717  0.60677  1.0000
  H   H8        1.0  0.64478  0.97277  0.10677  1.0000
  H   H9        1.0  0.55079  0.18790  0.27513  1.0000
  H   H10       1.0  0.44943  0.31245  0.77527  1.0000
  H   H11       1.0  0.44476  0.81441  0.72425  1.0000
  H   H12       1.0  0.55562  0.68597  0.22456  1.0000
  H   H13       1.0  0.44472  0.19346  0.36731  1.0000
  H   H14       1.0  0.55539  0.30646  0.86746  1.0000
  H   H15       1.0  0.54967  0.80818  0.63178  1.0000
  H   H16       1.0  0.45067  0.69166  0.13202  1.0000
  H   H17       1.0  0.36982  0.43028  0.31202  1.0000
  H   H18       1.0  0.63003  0.06965  0.81202  1.0000
  H   H19       1.0  0.61847  0.56663  0.68633  1.0000
  H   H20       1.0  0.38169  0.93341  0.18627  1.0000
  H   H21       1.0  0.45994  0.40385  0.21877  1.0000
  H   H22       1.0  0.53989  0.09632  0.71881  1.0000
  H   H23       1.0  0.53177  0.59622  0.77997  1.0000
  H   H24       1.0  0.46822  0.90402  0.28000  1.0000
  H   H25       1.0  0.24618  0.11753  0.21111  1.0000
  H   H26       1.0  0.75394  0.38248  0.71111  1.0000
  H   H27       1.0  0.75005  0.88335  0.78390  1.0000
  H   H28       1.0  0.25012  0.61676  0.28396  1.0000
  H   H29       1.0  0.14838  0.15514  0.30065  1.0000
  H   H30       1.0  0.85172  0.34469  0.80062  1.0000
  H   H31       1.0  0.84594  0.83675  0.69608  1.0000
  H   H32       1.0  0.15427  0.66327  0.19608  1.0000
  H   H33       1.0  0.17005  0.40111  0.44924  1.0000
  H   H34       1.0  0.82997  0.09889  0.94935  1.0000
  H   H35       1.0  0.82549  0.60695  0.54719  1.0000
  H   H36       1.0  0.17466  0.89287  0.04724  1.0000
  H   H37       1.0  0.66730  0.08999  0.40528  1.0000
  H   H38       1.0  0.33270  0.41007  0.90537  1.0000
  H   H39       1.0  0.32957  0.91628  0.59298  1.0000
  H   H40       1.0  0.67049  0.58371  0.09320  1.0000
  H   H41       1.0  0.77982  0.35659  0.17062  1.0000
  H   H42       1.0  0.21994  0.14303  0.67052  1.0000
  H   H43       1.0  0.21184  0.64774  0.83702  1.0000
  H   H44       1.0  0.78783  0.85159  0.33699  1.0000
  H   H45       1.0  0.27081  0.37887  0.09688  1.0000
  H   H46       1.0  0.72908  0.12118  0.59684  1.0000
  H   H47       1.0  0.71959  0.63391  0.90398  1.0000
  H   H48       1.0  0.28053  0.86666  0.40384  1.0000
  C   C1        1.0  0.67161  0.40322  0.34651  1.0000
  C   C2        1.0  0.32831  0.09691  0.84653  1.0000
  C   C3        1.0  0.32014  0.60109  0.65220  1.0000
  C   C4        1.0  0.68010  0.89901  0.15225  1.0000
  C   C5        1.0  0.51332  0.26759  0.31638  1.0000
  C   C6        1.0  0.48678  0.23255  0.81648  1.0000
  C   C7        1.0  0.48014  0.73413  0.68253  1.0000
  C   C8        1.0  0.52015  0.76600  0.18270  1.0000
  C   C9        1.0  0.39485  0.33999  0.27296  1.0000
  C   C10       1.0  0.60511  0.16007  0.77299  1.0000
  C   C11       1.0  0.59671  0.65858  0.72544  1.0000
  C   C12       1.0  0.40341  0.84155  0.22546  1.0000
  C   C13       1.0  0.22514  0.21221  0.24820  1.0000
  C   C14       1.0  0.77490  0.28773  0.74819  1.0000
  C   C15       1.0  0.76849  0.78456  0.74904  1.0000
  C   C16       1.0  0.23164  0.71550  0.24905  1.0000
  C   C17       1.0  0.03776  0.35568  0.42936  1.0000
  C   C18       1.0  0.96223  0.14435  0.92947  1.0000
  C   C19       1.0  0.95717  0.65176  0.56761  1.0000
  C   C20       1.0  0.04298  0.84815  0.06769  1.0000
  C   C21       1.0  0.78373  0.19490  0.40777  1.0000
  C   C22       1.0  0.21623  0.30515  0.90786  1.0000
  C   C23       1.0  0.21274  0.81215  0.59039  1.0000
  C   C24       1.0  0.78735  0.68783  0.09055  1.0000
  C   C25       1.0  0.90532  0.34554  0.16997  1.0000
  C   C26       1.0  0.09449  0.15423  0.66989  1.0000
  C   C27       1.0  0.08648  0.65910  0.83547  1.0000
  C   C28       1.0  0.91330  0.84052  0.33539  1.0000
  C   C29       1.0  0.15510  0.36123  0.13123  1.0000
  C   C30       1.0  0.84475  0.13872  0.63118  1.0000
  C   C31       1.0  0.83579  0.64719  0.87078  1.0000
  C   C32       1.0  0.16424  0.85310  0.37065  1.0000
  C   C33       1.0  0.62969  0.78322  0.47569  1.0000
  C   C34       1.0  0.37015  0.71679  0.97587  1.0000
  C   C35       1.0  0.37725  0.20824  0.52806  1.0000
  C   C36       1.0  0.62256  0.29181  0.02817  1.0000
  S   S1        1.0  0.44248  0.67767  0.44040  1.0000
  S   S2        1.0  0.55730  0.82237  0.94051  1.0000
  S   S3        1.0  0.56361  0.32204  0.56091  1.0000
  S   S4        1.0  0.43615  0.17788  0.06094  1.0000
  N   N1        1.0  0.79895  0.34422  0.38209  1.0000
  N   N2        1.0  0.20098  0.15585  0.88215  1.0000
  N   N3        1.0  0.19486  0.66265  0.61623  1.0000
  N   N4        1.0  0.80533  0.83738  0.11633  1.0000
  N   N5        1.0  0.96058  0.44898  0.39556  1.0000
  N   N6        1.0  0.03934  0.05107  0.89564  1.0000
  N   N7        1.0  0.03331  0.55905  0.60214  1.0000
  N   N8        1.0  0.96689  0.94092  0.10219  1.0000
  N   N9        1.0  0.93387  0.19839  0.43767  1.0000
  N   N10       1.0  0.06608  0.30160  0.93777  1.0000
  N   N11       1.0  0.06270  0.80987  0.55918  1.0000
  N   N12       1.0  0.93735  0.69005  0.05934  1.0000
  N   N13       1.0  0.11927  0.28275  0.20193  1.0000
  N   N14       1.0  0.88061  0.21707  0.70189  1.0000
  N   N15       1.0  0.87197  0.71551  0.79772  1.0000
  N   N16       1.0  0.12804  0.78450  0.29767  1.0000
  N   N17       1.0  0.96034  0.27103  0.22743  1.0000
  N   N18       1.0  0.03949  0.22866  0.72739  1.0000
  N   N19       1.0  0.03150  0.72470  0.77430  1.0000
  N   N20       1.0  0.96838  0.77489  0.27428  1.0000
  N   N21       1.0  0.02139  0.40367  0.10939  1.0000
  N   N22       1.0  0.97839  0.09620  0.60931  1.0000
  N   N23       1.0  0.96979  0.60943  0.89650  1.0000
  N   N24       1.0  0.03008  0.89058  0.39638  1.0000
  N   N25       1.0  0.76792  0.86220  0.49962  1.0000
  N   N26       1.0  0.23194  0.63774  0.99979  1.0000
  N   N27       1.0  0.24011  0.12235  0.50592  1.0000
  N   N28       1.0  0.75971  0.37776  0.00609  1.0000
