data_image0
_chemical_formula_structural       Co2H40C52N8Cl4O8
_chemical_formula_sum              "Co2 H40 C52 N8 Cl4 O8"
_cell_length_a       9.78858
_cell_length_b       10.0261
_cell_length_c       13.2088
_cell_angle_alpha    81.7405
_cell_angle_beta     69.759
_cell_angle_gamma    87.2521

_space_group_name_H-M_alt    "P 1"
_space_group_IT_number       1

loop_
  _space_group_symop_operation_xyz
  'x, y, z'

loop_
  _atom_site_type_symbol
  _atom_site_label
  _atom_site_symmetry_multiplicity
  _atom_site_fract_x
  _atom_site_fract_y
  _atom_site_fract_z
  _atom_site_occupancy
  Co  Co1       1.0  0.33230  0.67571  0.71344  1.0000
  Co  Co2       1.0  0.66769  0.32429  0.28656  1.0000
  H   H1        1.0  0.81177  0.66241  0.47271  1.0000
  H   H2        1.0  0.18822  0.33758  0.52730  1.0000
  H   H3        1.0  0.63703  0.51037  0.66303  1.0000
  H   H4        1.0  0.36297  0.48963  0.33697  1.0000
  H   H5        1.0  0.49595  0.65121  0.46015  1.0000
  H   H6        1.0  0.50405  0.34879  0.53985  1.0000
  H   H7        1.0  0.73076  0.17184  0.53199  1.0000
  H   H8        1.0  0.26923  0.82816  0.46802  1.0000
  H   H9        1.0  0.85231  0.05611  0.57046  1.0000
  H   H10       1.0  0.14769  0.94389  0.42954  1.0000
  H   H11       1.0  0.14371  0.53625  0.94765  1.0000
  H   H12       1.0  0.85629  0.46375  0.05235  1.0000
  H   H13       1.0  0.49942  0.92547  0.74724  1.0000
  H   H14       1.0  0.50058  0.07453  0.25276  1.0000
  H   H15       1.0  0.89573  0.21335  0.69286  1.0000
  H   H16       1.0  0.10427  0.78665  0.30714  1.0000
  H   H17       1.0  0.79485  0.32463  0.63118  1.0000
  H   H18       1.0  0.20515  0.67537  0.36883  1.0000
  H   H19       1.0  0.53679  0.25433  0.04052  1.0000
  H   H20       1.0  0.46321  0.74568  0.95948  1.0000
  H   H21       1.0  0.69139  0.05106  0.76885  1.0000
  H   H22       1.0  0.30861  0.94894  0.23115  1.0000
  H   H23       1.0  0.57279  0.16737  0.72706  1.0000
  H   H24       1.0  0.42720  0.83263  0.27295  1.0000
  H   H25       1.0  0.85785  0.88442  0.22604  1.0000
  H   H26       1.0  0.14215  0.11558  0.77396  1.0000
  H   H27       1.0  0.85856  0.03165  0.36253  1.0000
  H   H28       1.0  0.14144  0.96835  0.63747  1.0000
  H   H29       1.0  0.08369  0.16324  0.08996  1.0000
  H   H30       1.0  0.91631  0.83675  0.91004  1.0000
  H   H31       1.0  0.68163  0.69882  0.27236  1.0000
  H   H32       1.0  0.31837  0.30118  0.72763  1.0000
  H   H33       1.0  0.72057  0.25100  0.87865  1.0000
  H   H34       1.0  0.27943  0.74900  0.12135  1.0000
  H   H35       1.0  0.81802  0.39572  0.79859  1.0000
  H   H36       1.0  0.18198  0.60428  0.20141  1.0000
  H   H37       1.0  0.29293  0.27670  0.17946  1.0000
  H   H38       1.0  0.70708  0.72330  0.82054  1.0000
  H   H39       1.0  0.09777  0.41210  0.13495  1.0000
  H   H40       1.0  0.90224  0.58790  0.86505  1.0000
  C   C1        1.0  0.89348  0.59072  0.48505  1.0000
  C   C2        1.0  0.10651  0.40927  0.51495  1.0000
  C   C3        1.0  0.56061  0.48033  0.74441  1.0000
  C   C4        1.0  0.43939  0.51967  0.25559  1.0000
  C   C5        1.0  0.07429  0.52178  0.57049  1.0000
  C   C6        1.0  0.92571  0.47821  0.42951  1.0000
  C   C7        1.0  0.36594  0.46382  0.88981  1.0000
  C   C8        1.0  0.63407  0.53619  0.11019  1.0000
  C   C9        1.0  0.15437  0.54566  0.64503  1.0000
  C   C10       1.0  0.84562  0.45434  0.35497  1.0000
  C   C11       1.0  0.67998  0.91859  0.48934  1.0000
  C   C12       1.0  0.32001  0.08141  0.51066  1.0000
  C   C13       1.0  0.57753  0.81250  0.51686  1.0000
  C   C14       1.0  0.42247  0.18750  0.48314  1.0000
  C   C15       1.0  0.96733  0.61168  0.55453  1.0000
  C   C16       1.0  0.03266  0.38832  0.44547  1.0000
  C   C17       1.0  0.57489  0.73260  0.43874  1.0000
  C   C18       1.0  0.42511  0.26740  0.56126  1.0000
  C   C19       1.0  0.47423  0.38115  0.91506  1.0000
  C   C20       1.0  0.52577  0.61886  0.08494  1.0000
  C   C21       1.0  0.20132  0.82247  0.86272  1.0000
  C   C22       1.0  0.79869  0.17753  0.13728  1.0000
  C   C23       1.0  0.73734  0.08748  0.59349  1.0000
  C   C24       1.0  0.26266  0.91252  0.40651  1.0000
  C   C25       1.0  0.10122  0.91373  0.93505  1.0000
  C   C26       1.0  0.89878  0.08627  0.06495  1.0000
  C   C27       1.0  0.22796  0.47508  0.96806  1.0000
  C   C28       1.0  0.77205  0.52493  0.03194  1.0000
  C   C29       1.0  0.54335  0.90464  0.66369  1.0000
  C   C30       1.0  0.45665  0.09536  0.33631  1.0000
  C   C31       1.0  0.78455  0.25026  0.70334  1.0000
  C   C32       1.0  0.21545  0.74974  0.29666  1.0000
  C   C33       1.0  0.45178  0.31296  0.01926  1.0000
  C   C34       1.0  0.54823  0.68704  0.98074  1.0000
  C   C35       1.0  0.68693  0.13411  0.70564  1.0000
  C   C36       1.0  0.31306  0.86589  0.29436  1.0000
  C   C37       1.0  0.77924  0.86646  0.30835  1.0000
  C   C38       1.0  0.22076  0.13354  0.69165  1.0000
  C   C39       1.0  0.78223  0.94791  0.38477  1.0000
  C   C40       1.0  0.21777  0.05209  0.61523  1.0000
  C   C41       1.0  0.04723  0.09071  0.05078  1.0000
  C   C42       1.0  0.95277  0.90929  0.94923  1.0000
  C   C43       1.0  0.67731  0.76116  0.33450  1.0000
  C   C44       1.0  0.32269  0.23884  0.66550  1.0000
  C   C45       1.0  0.14742  0.00630  0.98738  1.0000
  C   C46       1.0  0.85258  0.99370  0.01262  1.0000
  C   C47       1.0  0.73487  0.32224  0.80442  1.0000
  C   C48       1.0  0.26513  0.67777  0.19558  1.0000
  C   C49       1.0  0.31496  0.32731  0.09668  1.0000
  C   C50       1.0  0.68505  0.67270  0.90332  1.0000
  C   C51       1.0  0.20392  0.40524  0.07174  1.0000
  C   C52       1.0  0.79609  0.59477  0.92826  1.0000
  N   N1        1.0  0.42451  0.52559  0.78253  1.0000
  N   N2        1.0  0.57549  0.47441  0.21747  1.0000
  N   N3        1.0  0.65413  0.97509  0.58447  1.0000
  N   N4        1.0  0.34587  0.02491  0.41553  1.0000
  N   N5        1.0  0.59526  0.39156  0.81995  1.0000
  N   N6        1.0  0.40474  0.60845  0.18005  1.0000
  N   N7        1.0  0.49375  0.80660  0.62695  1.0000
  N   N8        1.0  0.50625  0.19340  0.37305  1.0000
  Cl  Cl1       1.0  0.92775  0.75403  0.62058  1.0000
  Cl  Cl2       1.0  0.07225  0.24596  0.37942  1.0000
  Cl  Cl3       1.0  0.32803  0.02572  0.97364  1.0000
  Cl  Cl4       1.0  0.67197  0.97428  0.02637  1.0000
  O   O1        1.0  0.26967  0.62063  0.59807  1.0000
  O   O2        1.0  0.73032  0.37936  0.40193  1.0000
  O   O3        1.0  0.10803  0.49666  0.74270  1.0000
  O   O4        1.0  0.89197  0.50335  0.25730  1.0000
  O   O5        1.0  0.32485  0.79150  0.86826  1.0000
  O   O6        1.0  0.67516  0.20849  0.13174  1.0000
  O   O7        1.0  0.15626  0.77652  0.79327  1.0000
  O   O8        1.0  0.84374  0.22349  0.20672  1.0000
