data_image0
_chemical_formula_structural       Co2H52C60N8Cl4O8
_chemical_formula_sum              "Co2 H52 C60 N8 Cl4 O8"
_cell_length_a       11.4597
_cell_length_b       11.8955
_cell_length_c       12.309
_cell_angle_alpha    112.666
_cell_angle_beta     90
_cell_angle_gamma    118.795

_space_group_name_H-M_alt    "P 1"
_space_group_IT_number       1

loop_
  _space_group_symop_operation_xyz
  'x, y, z'

loop_
  _atom_site_type_symbol
  _atom_site_label
  _atom_site_symmetry_multiplicity
  _atom_site_fract_x
  _atom_site_fract_y
  _atom_site_fract_z
  _atom_site_occupancy
  Co  Co1       1.0  0.02835  0.00040  0.25039  1.0000
  Co  Co2       1.0  0.96969  0.00097  0.75353  1.0000
  H   H1        1.0  0.27622  0.44081  0.55173  1.0000
  H   H2        1.0  0.83592  0.56141  0.94965  1.0000
  H   H3        1.0  0.72094  0.55380  0.44420  1.0000
  H   H4        1.0  0.16673  0.44617  0.05561  1.0000
  H   H5        1.0  0.44496  0.68328  0.36201  1.0000
  H   H6        1.0  0.76137  0.31595  0.13769  1.0000
  H   H7        1.0  0.56062  0.31786  0.63911  1.0000
  H   H8        1.0  0.24348  0.68121  0.86058  1.0000
  H   H9        1.0  0.92104  0.10965  0.46155  1.0000
  H   H10       1.0  0.81176  0.89050  0.03968  1.0000
  H   H11       1.0  0.07937  0.89359  0.52476  1.0000
  H   H12       1.0  0.18583  0.10527  0.97564  1.0000
  H   H13       1.0  0.78027  0.63733  0.11354  1.0000
  H   H14       1.0  0.14372  0.36381  0.38659  1.0000
  H   H15       1.0  0.21489  0.36169  0.87440  1.0000
  H   H16       1.0  0.85439  0.63786  0.62514  1.0000
  H   H17       1.0  0.59334  0.07947  0.42878  1.0000
  H   H18       1.0  0.51391  0.91936  0.07083  1.0000
  H   H19       1.0  0.41091  0.92267  0.56798  1.0000
  H   H20       1.0  0.48910  0.07784  0.93289  1.0000
  H   H21       1.0  0.75371  0.08879  0.59149  1.0000
  H   H22       1.0  0.66578  0.91125  0.90888  1.0000
  H   H23       1.0  0.25161  0.91260  0.40380  1.0000
  H   H24       1.0  0.33907  0.08670  0.09618  1.0000
  H   H25       1.0  0.62004  0.91803  0.56565  1.0000
  H   H26       1.0  0.70270  0.08204  0.93494  1.0000
  H   H27       1.0  0.38586  0.08363  0.42991  1.0000
  H   H28       1.0  0.30272  0.91593  0.07030  1.0000
  H   H29       1.0  0.27389  0.44439  0.23332  1.0000
  H   H30       1.0  0.82854  0.55474  0.26650  1.0000
  H   H31       1.0  0.72919  0.55643  0.77037  1.0000
  H   H32       1.0  0.17374  0.44293  0.72866  1.0000
  H   H33       1.0  0.33847  0.32919  0.19425  1.0000
  H   H34       1.0  0.00837  0.67062  0.30578  1.0000
  H   H35       1.0  0.66377  0.67086  0.80443  1.0000
  H   H36       1.0  0.99399  0.32845  0.69493  1.0000
  H   H37       1.0  0.29258  0.36911  0.08358  1.0000
  H   H38       1.0  0.92252  0.63046  0.41633  1.0000
  H   H39       1.0  0.70530  0.63181  0.91770  1.0000
  H   H40       1.0  0.07412  0.36759  0.58152  1.0000
  H   H41       1.0  0.62821  0.39097  0.00635  1.0000
  H   H42       1.0  0.23736  0.60989  0.49372  1.0000
  H   H43       1.0  0.36823  0.60622  0.98828  1.0000
  H   H44       1.0  0.76240  0.39341  0.51193  1.0000
  H   H45       1.0  0.45347  0.33735  0.97826  1.0000
  H   H46       1.0  0.11587  0.66306  0.52156  1.0000
  H   H47       1.0  0.54293  0.66005  0.01819  1.0000
  H   H48       1.0  0.88276  0.33891  0.48125  1.0000
  H   H49       1.0  0.51890  0.31009  0.09005  1.0000
  H   H50       1.0  0.20860  0.69030  0.40970  1.0000
  H   H51       1.0  0.47967  0.68980  0.90709  1.0000
  H   H52       1.0  0.79036  0.30956  0.59280  1.0000
  C   C1        1.0  0.37366  0.46612  0.52656  1.0000
  C   C2        1.0  0.90755  0.53528  0.97431  1.0000
  C   C3        1.0  0.62267  0.52831  0.46771  1.0000
  C   C4        1.0  0.09384  0.47171  0.03236  1.0000
  C   C5        1.0  0.48609  0.60430  0.58654  1.0000
  C   C6        1.0  0.88152  0.39716  0.91380  1.0000
  C   C7        1.0  0.50986  0.39030  0.40720  1.0000
  C   C8        1.0  0.11943  0.60991  0.09323  1.0000
  C   C9        1.0  0.74392  0.78008  0.26124  1.0000
  C   C10       1.0  0.96439  0.22045  0.23902  1.0000
  C   C11       1.0  0.25480  0.22062  0.72831  1.0000
  C   C12       1.0  0.03522  0.77848  0.77124  1.0000
  C   C13       1.0  0.38134  0.35635  0.43436  1.0000
  C   C14       1.0  0.02526  0.64444  0.06638  1.0000
  C   C15       1.0  0.61462  0.63822  0.55908  1.0000
  C   C16       1.0  0.97579  0.36268  0.94085  1.0000
  C   C17       1.0  0.24909  0.21679  0.37166  1.0000
  C   C18       1.0  0.03296  0.78417  0.12904  1.0000
  C   C19       1.0  0.74558  0.77853  0.62550  1.0000
  C   C20       1.0  0.96498  0.22227  0.87177  1.0000
  C   C21       1.0  0.65007  0.78981  0.33346  1.0000
  C   C22       1.0  0.86040  0.21031  0.16693  1.0000
  C   C23       1.0  0.35237  0.21101  0.66111  1.0000
  C   C24       1.0  0.14227  0.78821  0.83857  1.0000
  C   C25       1.0  0.48215  0.54257  0.21306  1.0000
  C   C26       1.0  0.93937  0.45745  0.28698  1.0000
  C   C27       1.0  0.51884  0.45768  0.78483  1.0000
  C   C28       1.0  0.06205  0.54159  0.71467  1.0000
  C   C29       1.0  0.51846  0.67344  0.30888  1.0000
  C   C30       1.0  0.84493  0.32646  0.19124  1.0000
  C   C31       1.0  0.48490  0.32732  0.68931  1.0000
  C   C32       1.0  0.15845  0.67189  0.81032  1.0000
  C   C33       1.0  0.57928  0.52897  0.14517  1.0000
  C   C34       1.0  0.05042  0.47145  0.35481  1.0000
  C   C35       1.0  0.41940  0.47050  0.84957  1.0000
  C   C36       1.0  0.94962  0.52864  0.65008  1.0000
  C   C37       1.0  0.84482  0.99881  0.40333  1.0000
  C   C38       1.0  0.84643  0.00147  0.09742  1.0000
  C   C39       1.0  0.15545  0.00370  0.58509  1.0000
  C   C40       1.0  0.15214  0.99528  0.91503  1.0000
  C   C41       1.0  0.70812  0.64792  0.16752  1.0000
  C   C42       1.0  0.06078  0.35279  0.33250  1.0000
  C   C43       1.0  0.28910  0.35166  0.82294  1.0000
  C   C44       1.0  0.93827  0.64752  0.67670  1.0000
  C   C45       1.0  0.56286  0.02008  0.48334  1.0000
  C   C46       1.0  0.54306  0.97933  0.01672  1.0000
  C   C47       1.0  0.44182  0.98198  0.51337  1.0000
  C   C48       1.0  0.46048  0.01802  0.98710  1.0000
  C   C49       1.0  0.66500  0.99049  0.52279  1.0000
  C   C50       1.0  0.67500  0.00935  0.97760  1.0000
  C   C51       1.0  0.33998  0.01116  0.47266  1.0000
  C   C52       1.0  0.32928  0.98832  0.02747  1.0000
  C   C53       1.0  0.34017  0.41570  0.17997  1.0000
  C   C54       1.0  0.92368  0.58394  0.32001  1.0000
  C   C55       1.0  0.66100  0.58489  0.82054  1.0000
  C   C56       1.0  0.07700  0.41448  0.67872  1.0000
  C   C57       1.0  0.54317  0.38463  0.04975  1.0000
  C   C58       1.0  0.15849  0.61590  0.45018  1.0000
  C   C59       1.0  0.45429  0.61385  0.94603  1.0000
  C   C60       1.0  0.84080  0.38537  0.55373  1.0000
  N   N1        1.0  0.86418  0.91409  0.30603  1.0000
  N   N2        1.0  0.95083  0.08658  0.19442  1.0000
  N   N3        1.0  0.13289  0.08788  0.67947  1.0000
  N   N4        1.0  0.04577  0.91102  0.82024  1.0000
  N   N5        1.0  0.71795  0.92951  0.42320  1.0000
  N   N6        1.0  0.78854  0.07047  0.07747  1.0000
  N   N7        1.0  0.28527  0.07154  0.57050  1.0000
  N   N8        1.0  0.21439  0.92766  0.92944  1.0000
  Cl  Cl1       1.0  0.45762  0.73090  0.69097  1.0000
  Cl  Cl2       1.0  0.72657  0.27091  0.80918  1.0000
  Cl  Cl3       1.0  0.53665  0.26203  0.30308  1.0000
  Cl  Cl4       1.0  0.27442  0.73780  0.19750  1.0000
  O   O1        1.0  0.15852  0.18207  0.43129  1.0000
  O   O2        1.0  0.97785  0.81931  0.06920  1.0000
  O   O3        1.0  0.84603  0.81044  0.57465  1.0000
  O   O4        1.0  0.02561  0.18319  0.92337  1.0000
  O   O5        1.0  0.22230  0.13888  0.25681  1.0000
  O   O6        1.0  0.08328  0.86154  0.24399  1.0000
  O   O7        1.0  0.75871  0.86002  0.73518  1.0000
  O   O8        1.0  0.90427  0.14794  0.76034  1.0000
