data_image0
_chemical_formula_structural       Ba4H16C8O24
_chemical_formula_sum              "Ba4 H16 C8 O24"
_cell_length_a       7.04162
_cell_length_b       7.49304
_cell_length_c       11.1176
_cell_angle_alpha    90.0005
_cell_angle_beta     89.999
_cell_angle_gamma    105.069

_space_group_name_H-M_alt    "P 1"
_space_group_IT_number       1

loop_
  _space_group_symop_operation_xyz
  'x, y, z'

loop_
  _atom_site_type_symbol
  _atom_site_label
  _atom_site_symmetry_multiplicity
  _atom_site_fract_x
  _atom_site_fract_y
  _atom_site_fract_z
  _atom_site_occupancy
  Ba  Ba1       1.0  0.29300  0.20175  0.01066  1.0000
  Ba  Ba2       1.0  0.20700  0.79826  0.51066  1.0000
  Ba  Ba3       1.0  0.70700  0.79825  0.98934  1.0000
  Ba  Ba4       1.0  0.79300  0.20174  0.48934  1.0000
  H   H1        1.0  0.74302  0.40198  0.11043  1.0000
  H   H2        1.0  0.75698  0.59802  0.61043  1.0000
  H   H3        1.0  0.25698  0.59802  0.88957  1.0000
  H   H4        1.0  0.24302  0.40198  0.38957  1.0000
  H   H5        1.0  0.77853  0.36015  0.97561  1.0000
  H   H6        1.0  0.72146  0.63985  0.47561  1.0000
  H   H7        1.0  0.22146  0.63985  0.02439  1.0000
  H   H8        1.0  0.27854  0.36015  0.52439  1.0000
  H   H9        1.0  0.46816  0.46325  0.24565  1.0000
  H   H10       1.0  0.03184  0.53675  0.74565  1.0000
  H   H11       1.0  0.53184  0.53675  0.75435  1.0000
  H   H12       1.0  0.96816  0.46325  0.25434  1.0000
  H   H13       1.0  0.40702  0.24986  0.28463  1.0000
  H   H14       1.0  0.09298  0.75014  0.78464  1.0000
  H   H15       1.0  0.59298  0.75014  0.71537  1.0000
  H   H16       1.0  0.90702  0.24986  0.21536  1.0000
  C   C1        1.0  0.92515  0.21167  0.79948  1.0000
  C   C2        1.0  0.57483  0.78834  0.29949  1.0000
  C   C3        1.0  0.07485  0.78833  0.20052  1.0000
  C   C4        1.0  0.42517  0.21166  0.70051  1.0000
  C   C5        1.0  0.99007  0.03978  0.75272  1.0000
  C   C6        1.0  0.50992  0.96023  0.25274  1.0000
  C   C7        1.0  0.00993  0.96022  0.24728  1.0000
  C   C8        1.0  0.49008  0.03977  0.74726  1.0000
  O   O1        1.0  0.92726  0.23321  0.91261  1.0000
  O   O2        1.0  0.57273  0.76679  0.41261  1.0000
  O   O3        1.0  0.07274  0.76679  0.08740  1.0000
  O   O4        1.0  0.42727  0.23320  0.58739  1.0000
  O   O5        1.0  0.87768  0.31614  0.72211  1.0000
  O   O6        1.0  0.62232  0.68387  0.22211  1.0000
  O   O7        1.0  0.12232  0.68386  0.27789  1.0000
  O   O8        1.0  0.37768  0.31613  0.77789  1.0000
  O   O9        1.0  0.99722  0.01513  0.64084  1.0000
  O   O10       1.0  0.50277  0.98488  0.14084  1.0000
  O   O11       1.0  0.00278  0.98487  0.35916  1.0000
  O   O12       1.0  0.49723  0.01512  0.85916  1.0000
  O   O13       1.0  0.03434  0.93783  0.83453  1.0000
  O   O14       1.0  0.46565  0.06217  0.33454  1.0000
  O   O15       1.0  0.96566  0.06217  0.16547  1.0000
  O   O16       1.0  0.53435  0.93783  0.66546  1.0000
  O   O17       1.0  0.69398  0.41665  0.02766  1.0000
  O   O18       1.0  0.80601  0.58335  0.52766  1.0000
  O   O19       1.0  0.30601  0.58335  0.97235  1.0000
  O   O20       1.0  0.19399  0.41665  0.47234  1.0000
  O   O21       1.0  0.35456  0.35271  0.25215  1.0000
  O   O22       1.0  0.14544  0.64729  0.75215  1.0000
  O   O23       1.0  0.64544  0.64729  0.74785  1.0000
  O   O24       1.0  0.85456  0.35271  0.24785  1.0000
