data_image0
_chemical_formula_structural       Cu2Mo4H14C22N12O16
_chemical_formula_sum              "Cu2 Mo4 H14 C22 N12 O16"
_cell_length_a       7.25928
_cell_length_b       11.4233
_cell_length_c       11.6486
_cell_angle_alpha    119.362
_cell_angle_beta     97.2728
_cell_angle_gamma    90

_space_group_name_H-M_alt    "P 1"
_space_group_IT_number       1

loop_
  _space_group_symop_operation_xyz
  'x, y, z'

loop_
  _atom_site_type_symbol
  _atom_site_label
  _atom_site_symmetry_multiplicity
  _atom_site_fract_x
  _atom_site_fract_y
  _atom_site_fract_z
  _atom_site_occupancy
  Cu  Cu1       1.0  0.50000  0.00000  0.50000  1.0000
  Cu  Cu2       1.0  0.00000  0.50000  0.50000  1.0000
  Mo  Mo1       1.0  0.59386  0.44593  0.84992  1.0000
  Mo  Mo2       1.0  0.90614  0.59601  0.15008  1.0000
  Mo  Mo3       1.0  0.40614  0.55407  0.15008  1.0000
  Mo  Mo4       1.0  0.09386  0.40399  0.84992  1.0000
  H   H1        1.0  0.75000  0.80660  1.00000  1.0000
  H   H2        1.0  0.25000  0.19340  0.00000  1.0000
  H   H3        1.0  0.76459  0.24131  0.21359  1.0000
  H   H4        1.0  0.73541  0.02773  0.78641  1.0000
  H   H5        1.0  0.23541  0.75869  0.78641  1.0000
  H   H6        1.0  0.26459  0.97227  0.21358  1.0000
  H   H7        1.0  0.56374  0.87136  0.20408  1.0000
  H   H8        1.0  0.93626  0.66728  0.79592  1.0000
  H   H9        1.0  0.43626  0.12864  0.79592  1.0000
  H   H10       1.0  0.06374  0.33272  0.20408  1.0000
  H   H11       1.0  0.86110  0.19114  0.55674  1.0000
  H   H12       1.0  0.63890  0.63439  0.44326  1.0000
  H   H13       1.0  0.13890  0.80886  0.44326  1.0000
  H   H14       1.0  0.36110  0.36561  0.55674  1.0000
  C   C1        1.0  0.75000  0.90199  1.00000  1.0000
  C   C2        1.0  0.25000  0.09801  0.00000  1.0000
  C   C3        1.0  0.76237  0.02499  0.11839  1.0000
  C   C4        1.0  0.73763  0.90660  0.88161  1.0000
  C   C5        1.0  0.23763  0.97501  0.88161  1.0000
  C   C6        1.0  0.26237  0.09340  0.11839  1.0000
  C   C7        1.0  0.76159  0.14784  0.11988  1.0000
  C   C8        1.0  0.73841  0.02796  0.88012  1.0000
  C   C9        1.0  0.23841  0.85216  0.88012  1.0000
  C   C10       1.0  0.26160  0.97204  0.11988  1.0000
  C   C11       1.0  0.75000  0.27943  1.00000  1.0000
  C   C12       1.0  0.25000  0.72057  1.00000  1.0000
  C   C13       1.0  0.75000  0.14869  1.00000  1.0000
  C   C14       1.0  0.25000  0.85131  1.00000  1.0000
  C   C15       1.0  0.65746  0.95856  0.27478  1.0000
  C   C16       1.0  0.84253  0.68379  0.72522  1.0000
  C   C17       1.0  0.34254  0.04144  0.72522  1.0000
  C   C18       1.0  0.15747  0.31621  0.27478  1.0000
  C   C19       1.0  0.80930  0.12290  0.45270  1.0000
  C   C20       1.0  0.69070  0.67021  0.54730  1.0000
  C   C21       1.0  0.19070  0.87710  0.54731  1.0000
  C   C22       1.0  0.30930  0.32979  0.45270  1.0000
  N   N1        1.0  0.67950  0.01620  0.40770  1.0000
  N   N2        1.0  0.82050  0.60850  0.59230  1.0000
  N   N3        1.0  0.32050  0.98380  0.59230  1.0000
  N   N4        1.0  0.17950  0.39151  0.40771  1.0000
  N   N5        1.0  0.76673  0.03025  0.24293  1.0000
  N   N6        1.0  0.73326  0.78731  0.75707  1.0000
  N   N7        1.0  0.23327  0.96975  0.75707  1.0000
  N   N8        1.0  0.26674  0.21268  0.24293  1.0000
  N   N9        1.0  0.86499  0.13498  0.35523  1.0000
  N   N10       1.0  0.63501  0.77975  0.64477  1.0000
  N   N11       1.0  0.13501  0.86502  0.64477  1.0000
  N   N12       1.0  0.36499  0.22025  0.35523  1.0000
  O   O1        1.0  0.57103  0.31946  0.68778  1.0000
  O   O2        1.0  0.92897  0.63168  0.31222  1.0000
  O   O3        1.0  0.42897  0.68054  0.31222  1.0000
  O   O4        1.0  0.07103  0.36832  0.68778  1.0000
  O   O5        1.0  0.36088  0.42799  0.90950  1.0000
  O   O6        1.0  0.13912  0.51849  0.09049  1.0000
  O   O7        1.0  0.63912  0.57200  0.09050  1.0000
  O   O8        1.0  0.86088  0.48151  0.90950  1.0000
  O   O9        1.0  0.55395  0.58840  0.83853  1.0000
  O   O10       1.0  0.94605  0.74987  0.16147  1.0000
  O   O11       1.0  0.44605  0.41160  0.16147  1.0000
  O   O12       1.0  0.05395  0.25013  0.83853  1.0000
  O   O13       1.0  0.64859  0.28099  0.90367  1.0000
  O   O14       1.0  0.85141  0.37732  0.09633  1.0000
  O   O15       1.0  0.35141  0.71901  0.09633  1.0000
  O   O16       1.0  0.14859  0.62268  0.90367  1.0000
