data_image0
_chemical_formula_structural       Ag4H28C48S4N8Cl16O14F12
_chemical_formula_sum              "Ag4 H28 C48 S4 N8 Cl16 O14 F12"
_cell_length_a       12.1785
_cell_length_b       12.6123
_cell_length_c       13.8909
_cell_angle_alpha    88.3131
_cell_angle_beta     78.4939
_cell_angle_gamma    61.8864

_space_group_name_H-M_alt    "P 1"
_space_group_IT_number       1

loop_
  _space_group_symop_operation_xyz
  'x, y, z'

loop_
  _atom_site_type_symbol
  _atom_site_label
  _atom_site_symmetry_multiplicity
  _atom_site_fract_x
  _atom_site_fract_y
  _atom_site_fract_z
  _atom_site_occupancy
  Ag  Ag1       1.0  0.47430  0.64824  0.40586  1.0000
  Ag  Ag2       1.0  0.52570  0.35176  0.59414  1.0000
  Ag  Ag3       1.0  0.54637  0.04695  0.14250  1.0000
  Ag  Ag4       1.0  0.45363  0.95304  0.85750  1.0000
  H   H1        1.0  0.43668  0.85724  0.28460  1.0000
  H   H2        1.0  0.56332  0.14276  0.71540  1.0000
  H   H3        1.0  0.67532  0.65008  0.24165  1.0000
  H   H4        1.0  0.32468  0.34992  0.75836  1.0000
  H   H5        1.0  0.37120  0.53075  0.27540  1.0000
  H   H6        1.0  0.62880  0.46924  0.72460  1.0000
  H   H7        1.0  0.20813  0.86311  0.43325  1.0000
  H   H8        1.0  0.79187  0.13689  0.56675  1.0000
  H   H9        1.0  0.70719  0.44803  0.48621  1.0000
  H   H10       1.0  0.29281  0.55197  0.51379  1.0000
  H   H11       1.0  0.82671  0.98875  0.05261  1.0000
  H   H12       1.0  0.17329  0.01125  0.94739  1.0000
  H   H13       1.0  0.29652  0.11000  0.07016  1.0000
  H   H14       1.0  0.70348  0.89001  0.92984  1.0000
  H   H15       1.0  0.37486  0.25512  0.29689  1.0000
  H   H16       1.0  0.62514  0.74488  0.70311  1.0000
  H   H17       1.0  0.66701  0.84567  0.27698  1.0000
  H   H18       1.0  0.33299  0.15433  0.72303  1.0000
  H   H19       1.0  0.48632  0.00497  0.34348  1.0000
  H   H20       1.0  0.51368  0.99503  0.65651  1.0000
  H   H21       1.0  0.50281  0.92404  0.45120  1.0000
  H   H22       1.0  0.49719  0.07596  0.54880  1.0000
  H   H23       1.0  0.25560  0.04262  0.37203  1.0000
  H   H24       1.0  0.74441  0.95738  0.62797  1.0000
  H   H25       1.0  0.28879  0.11209  0.46357  1.0000
  H   H26       1.0  0.71121  0.88791  0.53643  1.0000
  H   H27       1.0  0.27517  0.97954  0.48872  1.0000
  H   H28       1.0  0.72483  0.02046  0.51128  1.0000
  C   C1        1.0  0.17433  0.33418  0.29429  1.0000
  C   C2        1.0  0.82567  0.66582  0.70571  1.0000
  C   C3        1.0  0.08174  0.77426  0.27373  1.0000
  C   C4        1.0  0.91826  0.22574  0.72627  1.0000
  C   C5        1.0  0.86087  0.80397  0.27828  1.0000
  C   C6        1.0  0.13913  0.19603  0.72172  1.0000
  C   C7        1.0  0.18586  0.65900  0.24857  1.0000
  C   C8        1.0  0.81414  0.34100  0.75143  1.0000
  C   C9        1.0  0.73655  0.57519  0.27923  1.0000
  C   C10       1.0  0.26345  0.42481  0.72077  1.0000
  C   C11       1.0  0.94410  0.40901  0.28710  1.0000
  C   C12       1.0  0.05590  0.59099  0.71291  1.0000
  C   C13       1.0  0.09157  0.84940  0.34019  1.0000
  C   C14       1.0  0.90842  0.15060  0.65981  1.0000
  C   C15       1.0  0.95476  0.88163  0.14737  1.0000
  C   C16       1.0  0.04524  0.11837  0.85263  1.0000
  C   C17       1.0  0.88368  0.38891  0.37777  1.0000
  C   C18       1.0  0.11632  0.61109  0.62223  1.0000
  C   C19       1.0  0.29101  0.62128  0.29194  1.0000
  C   C20       1.0  0.70899  0.37872  0.70806  1.0000
  C   C21       1.0  0.19959  0.80685  0.38042  1.0000
  C   C22       1.0  0.80041  0.19315  0.61958  1.0000
  C   C23       1.0  0.96611  0.81806  0.23237  1.0000
  C   C24       1.0  0.03389  0.18194  0.76762  1.0000
  C   C25       1.0  0.12915  0.24782  0.16684  1.0000
  C   C26       1.0  0.87085  0.75217  0.83316  1.0000
  C   C27       1.0  0.75417  0.46280  0.41580  1.0000
  C   C28       1.0  0.24583  0.53720  0.58420  1.0000
  C   C29       1.0  0.83955  0.93488  0.11603  1.0000
  C   C30       1.0  0.16044  0.06512  0.88397  1.0000
  C   C31       1.0  0.08225  0.33172  0.24858  1.0000
  C   C32       1.0  0.91775  0.66827  0.75142  1.0000
  C   C33       1.0  0.25999  0.17388  0.13416  1.0000
  C   C34       1.0  0.74001  0.82612  0.86584  1.0000
  C   C35       1.0  0.30354  0.25598  0.25979  1.0000
  C   C36       1.0  0.69646  0.74402  0.74021  1.0000
  C   C37       1.0  0.86563  0.50496  0.23757  1.0000
  C   C38       1.0  0.13438  0.49503  0.76244  1.0000
  C   C39       1.0  0.51032  0.32075  0.94217  1.0000
  C   C40       1.0  0.48968  0.67925  0.05782  1.0000
  C   C41       1.0  0.74919  0.85686  0.24229  1.0000
  C   C42       1.0  0.25081  0.14314  0.75772  1.0000
  C   C43       1.0  0.45132  0.95056  0.39074  1.0000
  C   C44       1.0  0.54868  0.04944  0.60926  1.0000
  C   C45       1.0  0.33250  0.72763  0.76145  1.0000
  C   C46       1.0  0.66750  0.27237  0.23855  1.0000
  C   C47       1.0  0.30932  0.02475  0.43091  1.0000
  C   C48       1.0  0.69068  0.97525  0.56909  1.0000
  S   S1        1.0  0.57543  0.15615  0.91017  1.0000
  S   S2        1.0  0.42457  0.84385  0.08983  1.0000
  S   S3        1.0  0.41627  0.73573  0.63528  1.0000
  S   S4        1.0  0.58373  0.26427  0.36472  1.0000
  N   N1        1.0  0.29621  0.69461  0.35699  1.0000
  N   N2        1.0  0.70379  0.30540  0.64300  1.0000
  N   N3        1.0  0.34477  0.17739  0.18102  1.0000
  N   N4        1.0  0.65523  0.82261  0.81898  1.0000
  N   N5        1.0  0.73871  0.92397  0.16427  1.0000
  N   N6        1.0  0.26129  0.07603  0.83574  1.0000
  N   N7        1.0  0.68264  0.55400  0.36655  1.0000
  N   N8        1.0  0.31736  0.44600  0.63345  1.0000
  Cl  Cl1       1.0  0.86720  0.72313  0.38076  1.0000
  Cl  Cl2       1.0  0.13280  0.27687  0.61924  1.0000
  Cl  Cl3       1.0  0.13180  0.43297  0.39444  1.0000
  Cl  Cl4       1.0  0.86821  0.56703  0.60556  1.0000
  Cl  Cl5       1.0  0.92413  0.54074  0.12527  1.0000
  Cl  Cl6       1.0  0.07587  0.45926  0.87473  1.0000
  Cl  Cl7       1.0  0.97043  0.99423  0.37221  1.0000
  Cl  Cl8       1.0  0.02957  0.00577  0.62779  1.0000
  Cl  Cl9       1.0  0.18568  0.56412  0.16262  1.0000
  Cl  Cl10      1.0  0.81432  0.43588  0.83738  1.0000
  Cl  Cl11      1.0  0.96807  0.27037  0.44267  1.0000
  Cl  Cl12      1.0  0.03193  0.72962  0.55733  1.0000
  Cl  Cl13      1.0  0.02636  0.23084  0.10789  1.0000
  Cl  Cl14      1.0  0.97364  0.76916  0.89211  1.0000
  Cl  Cl15      1.0  0.08326  0.89544  0.08442  1.0000
  Cl  Cl16      1.0  0.91674  0.10456  0.91558  1.0000
  O   O1        1.0  0.44319  0.83482  0.64836  1.0000
  O   O2        1.0  0.55681  0.16518  0.35165  1.0000
  O   O3        1.0  0.65704  0.09747  0.98059  1.0000
  O   O4        1.0  0.34296  0.90253  0.01941  1.0000
  O   O5        1.0  0.46039  0.14292  0.92480  1.0000
  O   O6        1.0  0.53961  0.85708  0.07520  1.0000
  O   O7        1.0  0.48641  0.83948  0.33682  1.0000
  O   O8        1.0  0.51359  0.16052  0.66318  1.0000
  O   O9        1.0  0.32276  0.75918  0.57425  1.0000
  O   O10       1.0  0.67725  0.24082  0.42575  1.0000
  O   O11       1.0  0.64520  0.13690  0.80792  1.0000
  O   O12       1.0  0.35480  0.86310  0.19208  1.0000
  O   O13       1.0  0.52771  0.61597  0.61481  1.0000
  O   O14       1.0  0.47229  0.38403  0.38519  1.0000
  F   F1        1.0  0.44320  0.38700  0.87485  1.0000
  F   F2        1.0  0.55680  0.61300  0.12515  1.0000
  F   F3        1.0  0.30797  0.63289  0.76592  1.0000
  F   F4        1.0  0.69203  0.36711  0.23408  1.0000
  F   F5        1.0  0.43093  0.35372  0.03197  1.0000
  F   F6        1.0  0.56907  0.64628  0.96803  1.0000
  F   F7        1.0  0.60451  0.34880  0.94354  1.0000
  F   F8        1.0  0.39549  0.65120  0.05646  1.0000
  F   F9        1.0  0.21976  0.82952  0.79047  1.0000
  F   F10       1.0  0.78024  0.17048  0.20953  1.0000
  F   F11       1.0  0.40602  0.71386  0.82760  1.0000
  F   F12       1.0  0.59397  0.28614  0.17241  1.0000
