data_image0
_chemical_formula_structural       Mn2Ag4H32C48N24
_chemical_formula_sum              "Mn2 Ag4 H32 C48 N24"
_cell_length_a       9.01987
_cell_length_b       10.215
_cell_length_c       14.0966
_cell_angle_alpha    90
_cell_angle_beta     97.6943
_cell_angle_gamma    90

_space_group_name_H-M_alt    "P 1"
_space_group_IT_number       1

loop_
  _space_group_symop_operation_xyz
  'x, y, z'

loop_
  _atom_site_type_symbol
  _atom_site_label
  _atom_site_symmetry_multiplicity
  _atom_site_fract_x
  _atom_site_fract_y
  _atom_site_fract_z
  _atom_site_occupancy
  Mn  Mn1       1.0  1.00000  0.50000  0.00000  1.0000
  Mn  Mn2       1.0  0.50000  0.00000  0.50000  1.0000
  Ag  Ag1       1.0  0.78342  0.67663  0.30897  1.0000
  Ag  Ag2       1.0  0.71646  0.17669  0.19104  1.0000
  Ag  Ag3       1.0  0.21658  0.32336  0.69103  1.0000
  Ag  Ag4       1.0  0.28354  0.82332  0.80896  1.0000
  H   H1        1.0  0.34070  0.54925  0.01125  1.0000
  H   H2        1.0  0.15931  0.04916  0.48882  1.0000
  H   H3        1.0  0.65930  0.45075  0.98875  1.0000
  H   H4        1.0  0.84068  0.95083  0.51119  1.0000
  H   H5        1.0  0.57802  0.53549  0.12852  1.0000
  H   H6        1.0  0.92205  0.03554  0.37152  1.0000
  H   H7        1.0  0.42198  0.46452  0.87148  1.0000
  H   H8        1.0  0.07795  0.96446  0.62847  1.0000
  H   H9        1.0  0.32281  0.34118  0.32453  1.0000
  H   H10       1.0  0.17724  0.84126  0.17548  1.0000
  H   H11       1.0  0.67720  0.65882  0.67547  1.0000
  H   H12       1.0  0.82277  0.15874  0.82452  1.0000
  H   H13       1.0  0.09534  0.36350  0.19940  1.0000
  H   H14       1.0  0.40466  0.86345  0.30063  1.0000
  H   H15       1.0  0.90466  0.63650  0.80060  1.0000
  H   H16       1.0  0.59534  0.13654  0.69937  1.0000
  H   H17       1.0  0.86086  0.34868  0.33486  1.0000
  H   H18       1.0  0.63914  0.84873  0.16515  1.0000
  H   H19       1.0  0.13914  0.65132  0.66514  1.0000
  H   H20       1.0  0.36086  0.15127  0.83485  1.0000
  H   H21       1.0  0.08722  0.30437  0.45637  1.0000
  H   H22       1.0  0.41279  0.80443  0.04365  1.0000
  H   H23       1.0  0.91278  0.69564  0.54363  1.0000
  H   H24       1.0  0.58721  0.19557  0.95635  1.0000
  H   H25       1.0  0.85247  0.38470  0.68222  1.0000
  H   H26       1.0  0.64756  0.88472  0.81780  1.0000
  H   H27       1.0  0.14753  0.61530  0.31778  1.0000
  H   H28       1.0  0.35244  0.11528  0.18220  1.0000
  H   H29       1.0  0.61377  0.42869  0.57013  1.0000
  H   H30       1.0  0.88625  0.92869  0.92988  1.0000
  H   H31       1.0  0.38623  0.57131  0.42987  1.0000
  H   H32       1.0  0.11375  0.07130  0.07012  1.0000
  C   C1        1.0  0.34184  0.50420  0.08141  1.0000
  C   C2        1.0  0.15819  0.00416  0.41865  1.0000
  C   C3        1.0  0.65816  0.49580  0.91859  1.0000
  C   C4        1.0  0.84181  0.99584  0.58135  1.0000
  C   C5        1.0  0.47218  0.49707  0.14578  1.0000
  C   C6        1.0  0.02787  0.99712  0.35425  1.0000
  C   C7        1.0  0.52782  0.50293  0.85422  1.0000
  C   C8        1.0  0.97214  0.00287  0.64575  1.0000
  C   C9        1.0  0.46598  0.43977  0.23549  1.0000
  C   C10       1.0  0.03404  0.93984  0.26452  1.0000
  C   C11       1.0  0.53402  0.56023  0.76451  1.0000
  C   C12       1.0  0.96596  0.06016  0.73548  1.0000
  C   C13       1.0  0.32887  0.38960  0.25627  1.0000
  C   C14       1.0  0.17118  0.88966  0.24375  1.0000
  C   C15       1.0  0.67113  0.61040  0.74374  1.0000
  C   C16       1.0  0.82883  0.11034  0.75625  1.0000
  C   C17       1.0  0.20446  0.40102  0.18718  1.0000
  C   C18       1.0  0.29555  0.90100  0.31286  1.0000
  C   C19       1.0  0.79554  0.59897  0.81282  1.0000
  C   C20       1.0  0.70445  0.09900  0.68714  1.0000
  C   C21       1.0  0.72105  0.39145  0.44486  1.0000
  C   C22       1.0  0.77901  0.89145  0.05516  1.0000
  C   C23       1.0  0.27895  0.60855  0.55514  1.0000
  C   C24       1.0  0.22100  0.10855  0.94483  1.0000
  C   C25       1.0  0.85595  0.35708  0.41141  1.0000
  C   C26       1.0  0.64407  0.85709  0.08860  1.0000
  C   C27       1.0  0.14405  0.64293  0.58858  1.0000
  C   C28       1.0  0.35594  0.14291  0.91140  1.0000
  C   C29       1.0  0.97995  0.33223  0.47853  1.0000
  C   C30       1.0  0.52006  0.83226  0.02148  1.0000
  C   C31       1.0  0.02004  0.66777  0.52147  1.0000
  C   C32       1.0  0.47994  0.16774  0.97851  1.0000
  C   C33       1.0  0.84894  0.37668  0.60474  1.0000
  C   C34       1.0  0.65110  0.87668  0.89527  1.0000
  C   C35       1.0  0.15106  0.62332  0.39526  1.0000
  C   C36       1.0  0.34891  0.12332  0.10473  1.0000
  C   C37       1.0  0.71753  0.40121  0.54357  1.0000
  C   C38       1.0  0.78251  0.90121  0.95644  1.0000
  C   C39       1.0  0.28247  0.59879  0.45643  1.0000
  C   C40       1.0  0.21749  0.09879  0.04356  1.0000
  C   C41       1.0  0.86270  0.61307  0.18729  1.0000
  C   C42       1.0  0.63723  0.11313  0.31269  1.0000
  C   C43       1.0  0.13730  0.38693  0.81271  1.0000
  C   C44       1.0  0.36276  0.88689  0.68731  1.0000
  C   C45       1.0  0.65659  0.75652  0.40496  1.0000
  C   C46       1.0  0.84338  0.25657  0.09510  1.0000
  C   C47       1.0  0.34341  0.24348  0.59504  1.0000
  C   C48       1.0  0.15662  0.74343  0.90491  1.0000
  N   N1        1.0  0.20972  0.45744  0.10121  1.0000
  N   N2        1.0  0.29028  0.95728  0.39887  1.0000
  N   N3        1.0  0.79028  0.54255  0.89879  1.0000
  N   N4        1.0  0.70972  0.04271  0.60113  1.0000
  N   N5        1.0  0.60155  0.42909  0.29745  1.0000
  N   N6        1.0  0.89850  0.92917  0.20257  1.0000
  N   N7        1.0  0.39845  0.57091  0.70254  1.0000
  N   N8        1.0  0.10151  0.07083  0.79743  1.0000
  N   N9        1.0  0.58557  0.41453  0.38511  1.0000
  N   N10       1.0  0.91446  0.91455  0.11490  1.0000
  N   N11       1.0  0.41443  0.58547  0.61489  1.0000
  N   N12       1.0  0.08554  0.08545  0.88510  1.0000
  N   N13       1.0  0.97762  0.34167  0.57354  1.0000
  N   N14       1.0  0.52239  0.84168  0.92647  1.0000
  N   N15       1.0  0.02238  0.65833  0.42646  1.0000
  N   N16       1.0  0.47761  0.15832  0.07353  1.0000
  N   N17       1.0  0.90926  0.57921  0.11751  1.0000
  N   N18       1.0  0.59069  0.07907  0.38245  1.0000
  N   N19       1.0  0.09074  0.42079  0.88249  1.0000
  N   N20       1.0  0.40931  0.92093  0.61755  1.0000
  N   N21       1.0  0.59529  0.81288  0.46113  1.0000
  N   N22       1.0  0.90469  0.31288  0.03891  1.0000
  N   N23       1.0  0.40471  0.18712  0.53887  1.0000
  N   N24       1.0  0.09531  0.68713  0.96109  1.0000
