data_image0
_chemical_formula_structural       Ag4P4H60C32N12O8
_chemical_formula_sum              "Ag4 P4 H60 C32 N12 O8"
_cell_length_a       6.853
_cell_length_b       12.4662
_cell_length_c       15.5396
_cell_angle_alpha    75.4442
_cell_angle_beta     77.2331
_cell_angle_gamma    74.0404

_space_group_name_H-M_alt    "P 1"
_space_group_IT_number       1

loop_
  _space_group_symop_operation_xyz
  'x, y, z'

loop_
  _atom_site_type_symbol
  _atom_site_label
  _atom_site_symmetry_multiplicity
  _atom_site_fract_x
  _atom_site_fract_y
  _atom_site_fract_z
  _atom_site_occupancy
  Ag  Ag1       1.0  0.53170  0.60582  0.51133  1.0000
  Ag  Ag2       1.0  0.64838  0.89404  0.98856  1.0000
  Ag  Ag3       1.0  0.46830  0.39417  0.48867  1.0000
  Ag  Ag4       1.0  0.35163  0.10596  0.01144  1.0000
  P   P1        1.0  0.18269  0.69951  0.53985  1.0000
  P   P2        1.0  0.42178  0.80014  0.96020  1.0000
  P   P3        1.0  0.81730  0.30049  0.46014  1.0000
  P   P4        1.0  0.57823  0.19986  0.03979  1.0000
  H   H1        1.0  0.13608  0.90837  0.51204  1.0000
  H   H2        1.0  0.55621  0.59132  0.98813  1.0000
  H   H3        1.0  0.86390  0.09163  0.48795  1.0000
  H   H4        1.0  0.44380  0.40869  0.01186  1.0000
  H   H5        1.0  0.08880  0.86477  0.41997  1.0000
  H   H6        1.0  0.37274  0.63498  0.08010  1.0000
  H   H7        1.0  0.91118  0.13522  0.58003  1.0000
  H   H8        1.0  0.62728  0.36502  0.91990  1.0000
  H   H9        1.0  0.09876  0.60991  0.69686  1.0000
  H   H10       1.0  0.40576  0.88984  0.80322  1.0000
  H   H11       1.0  0.90125  0.39009  0.30314  1.0000
  H   H12       1.0  0.59425  0.11016  0.19678  1.0000
  H   H13       1.0  0.14302  0.74607  0.68868  1.0000
  H   H14       1.0  0.57832  0.75378  0.81132  1.0000
  H   H15       1.0  0.85698  0.25393  0.31132  1.0000
  H   H16       1.0  0.42169  0.24622  0.18867  1.0000
  H   H17       1.0  0.02267  0.63641  0.44071  1.0000
  H   H18       1.0  0.09883  0.86332  0.05917  1.0000
  H   H19       1.0  0.97731  0.36359  0.55929  1.0000
  H   H20       1.0  0.90118  0.13668  0.94083  1.0000
  H   H21       1.0  0.02730  0.54494  0.54903  1.0000
  H   H22       1.0  0.12094  0.95476  0.95086  1.0000
  H   H23       1.0  0.97270  0.45506  0.45097  1.0000
  H   H24       1.0  0.87907  0.04524  0.04914  1.0000
  H   H25       1.0  0.87254  0.91598  0.64723  1.0000
  H   H26       1.0  0.43645  0.58368  0.85287  1.0000
  H   H27       1.0  0.12745  0.08402  0.35277  1.0000
  H   H28       1.0  0.56356  0.41632  0.14712  1.0000
  H   H29       1.0  0.62490  0.89784  0.64303  1.0000
  H   H30       1.0  0.16669  0.60162  0.85674  1.0000
  H   H31       1.0  0.37509  0.10215  0.35698  1.0000
  H   H32       1.0  0.83333  0.39838  0.14326  1.0000
  H   H33       1.0  0.56898  0.71296  0.66121  1.0000
  H   H34       1.0  0.94387  0.78643  0.83851  1.0000
  H   H35       1.0  0.43103  0.28702  0.33880  1.0000
  H   H36       1.0  0.05613  0.21357  0.16149  1.0000
  H   H37       1.0  0.77636  0.59035  0.67432  1.0000
  H   H38       1.0  0.04128  0.90920  0.82539  1.0000
  H   H39       1.0  0.22366  0.40964  0.32569  1.0000
  H   H40       1.0  0.95873  0.09080  0.17460  1.0000
  H   H41       1.0  0.77134  0.81769  0.42510  1.0000
  H   H42       1.0  0.01367  0.68209  0.07469  1.0000
  H   H43       1.0  0.22864  0.18231  0.57490  1.0000
  H   H44       1.0  0.98634  0.31791  0.92531  1.0000
  H   H45       1.0  0.56486  0.84560  0.51554  1.0000
  H   H46       1.0  0.92590  0.65405  0.98421  1.0000
  H   H47       1.0  0.43512  0.15439  0.48447  1.0000
  H   H48       1.0  0.07411  0.34595  0.01579  1.0000
  H   H49       1.0  0.26779  0.30841  0.79695  1.0000
  H   H50       1.0  0.37088  0.19043  0.70322  1.0000
  H   H51       1.0  0.73220  0.69160  0.20304  1.0000
  H   H52       1.0  0.62910  0.80958  0.29678  1.0000
  H   H53       1.0  0.23290  0.44950  0.81086  1.0000
  H   H54       1.0  0.49757  0.05024  0.68856  1.0000
  H   H55       1.0  0.76706  0.55051  0.18913  1.0000
  H   H56       1.0  0.50244  0.94978  0.31143  1.0000
  H   H57       1.0  0.47749  0.35390  0.81658  1.0000
  H   H58       1.0  0.64612  0.14854  0.68371  1.0000
  H   H59       1.0  0.52248  0.64611  0.18343  1.0000
  H   H60       1.0  0.35386  0.85148  0.31630  1.0000
  C   C1        1.0  0.06172  0.85107  0.49398  1.0000
  C   C2        1.0  0.40633  0.64861  0.00607  1.0000
  C   C3        1.0  0.93827  0.14892  0.50602  1.0000
  C   C4        1.0  0.59369  0.35140  0.99393  1.0000
  C   C5        1.0  0.06679  0.69899  0.66029  1.0000
  C   C6        1.0  0.42643  0.80071  0.83972  1.0000
  C   C7        1.0  0.93321  0.30101  0.33971  1.0000
  C   C8        1.0  0.57358  0.19929  0.16028  1.0000
  C   C9        1.0  0.99562  0.63424  0.51348  1.0000
  C   C10       1.0  0.14290  0.86542  0.98640  1.0000
  C   C11       1.0  0.00438  0.36575  0.48652  1.0000
  C   C12       1.0  0.85710  0.13458  0.01360  1.0000
  C   C13       1.0  0.79175  0.86551  0.62496  1.0000
  C   C14       1.0  0.28272  0.63411  0.87496  1.0000
  C   C15       1.0  0.20823  0.13449  0.37505  1.0000
  C   C16       1.0  0.71730  0.36589  0.12504  1.0000
  C   C17       1.0  0.73555  0.68076  0.64203  1.0000
  C   C18       1.0  0.05874  0.81881  0.85775  1.0000
  C   C19       1.0  0.26445  0.31923  0.35797  1.0000
  C   C20       1.0  0.94127  0.18119  0.14225  1.0000
  C   C21       1.0  0.73156  0.81174  0.49835  1.0000
  C   C22       1.0  0.04137  0.68797  0.00144  1.0000
  C   C23       1.0  0.26844  0.18826  0.50166  1.0000
  C   C24       1.0  0.95864  0.31203  0.99856  1.0000
  C   C25       1.0  0.40339  0.42078  0.68174  1.0000
  C   C26       1.0  0.50594  0.07903  0.81818  1.0000
  C   C27       1.0  0.59660  0.57922  0.31826  1.0000
  C   C28       1.0  0.49405  0.92098  0.18182  1.0000
  C   C29       1.0  0.34286  0.37941  0.78266  1.0000
  C   C30       1.0  0.50478  0.12083  0.71731  1.0000
  C   C31       1.0  0.65713  0.62060  0.21734  1.0000
  C   C32       1.0  0.49521  0.87918  0.28270  1.0000
  N   N1        1.0  0.84354  0.74657  0.67313  1.0000
  N   N2        1.0  0.26385  0.75303  0.82676  1.0000
  N   N3        1.0  0.15647  0.25342  0.32688  1.0000
  N   N4        1.0  0.73616  0.24697  0.17324  1.0000
  N   N5        1.0  0.77886  0.68965  0.54287  1.0000
  N   N6        1.0  0.01116  0.81002  0.95690  1.0000
  N   N7        1.0  0.22113  0.31035  0.45713  1.0000
  N   N8        1.0  0.98885  0.18998  0.04310  1.0000
  N   N9        1.0  0.83864  0.88098  0.52611  1.0000
  N   N10       1.0  0.24561  0.61872  0.97381  1.0000
  N   N11       1.0  0.16134  0.11902  0.47389  1.0000
  N   N12       1.0  0.75440  0.38128  0.02619  1.0000
  O   O1        1.0  0.56189  0.46165  0.65500  1.0000
  O   O2        1.0  0.67870  0.03739  0.84464  1.0000
  O   O3        1.0  0.43812  0.53835  0.34501  1.0000
  O   O4        1.0  0.32127  0.96260  0.15537  1.0000
  O   O5        1.0  0.28499  0.41295  0.63131  1.0000
  O   O6        1.0  0.32943  0.08740  0.86883  1.0000
  O   O7        1.0  0.71502  0.58704  0.36868  1.0000
  O   O8        1.0  0.67056  0.91261  0.13117  1.0000
