data_image0
_chemical_formula_structural       Cu2H24C28N16Cl4
_chemical_formula_sum              "Cu2 H24 C28 N16 Cl4"
_cell_length_a       8.83137
_cell_length_b       9.6152
_cell_length_c       10.2291
_cell_angle_alpha    91.8044
_cell_angle_beta     105.323
_cell_angle_gamma    100.785

_space_group_name_H-M_alt    "P 1"
_space_group_IT_number       1

loop_
  _space_group_symop_operation_xyz
  'x, y, z'

loop_
  _atom_site_type_symbol
  _atom_site_label
  _atom_site_symmetry_multiplicity
  _atom_site_fract_x
  _atom_site_fract_y
  _atom_site_fract_z
  _atom_site_occupancy
  Cu  Cu1       1.0  0.68096  0.62674  0.13233  1.0000
  Cu  Cu2       1.0  0.31903  0.37326  0.86767  1.0000
  H   H1        1.0  0.58683  0.30230  0.14547  1.0000
  H   H2        1.0  0.41317  0.69770  0.85453  1.0000
  H   H3        1.0  0.73369  0.09813  0.16671  1.0000
  H   H4        1.0  0.26631  0.90187  0.83329  1.0000
  H   H5        1.0  0.02855  0.15171  0.19798  1.0000
  H   H6        1.0  0.97145  0.84829  0.80202  1.0000
  H   H7        1.0  0.16751  0.40463  0.19033  1.0000
  H   H8        1.0  0.83249  0.59538  0.80968  1.0000
  H   H9        1.0  0.27963  0.68657  0.18206  1.0000
  H   H10       1.0  0.72036  0.31343  0.81795  1.0000
  H   H11       1.0  0.19308  0.04211  0.07338  1.0000
  H   H12       1.0  0.80692  0.95789  0.92662  1.0000
  H   H13       1.0  0.34751  0.94227  0.10749  1.0000
  H   H14       1.0  0.65248  0.05773  0.89250  1.0000
  H   H15       1.0  0.56715  0.07039  0.28132  1.0000
  H   H16       1.0  0.43284  0.92961  0.71868  1.0000
  H   H17       1.0  0.67314  0.22213  0.50388  1.0000
  H   H18       1.0  0.32687  0.77786  0.49611  1.0000
  H   H19       1.0  0.47666  0.27668  0.62718  1.0000
  H   H20       1.0  0.52334  0.72332  0.37282  1.0000
  H   H21       1.0  0.02956  0.14883  0.47213  1.0000
  H   H22       1.0  0.97045  0.85117  0.52787  1.0000
  H   H23       1.0  0.15073  0.10776  0.62955  1.0000
  H   H24       1.0  0.84928  0.89223  0.37045  1.0000
  C   C1        1.0  0.71482  0.31861  0.15553  1.0000
  C   C2        1.0  0.28517  0.68139  0.84447  1.0000
  C   C3        1.0  0.79749  0.20742  0.16949  1.0000
  C   C4        1.0  0.20251  0.79258  0.83051  1.0000
  C   C5        1.0  0.96182  0.23713  0.18334  1.0000
  C   C6        1.0  0.03818  0.76287  0.81667  1.0000
  C   C7        1.0  0.03926  0.37679  0.18098  1.0000
  C   C8        1.0  0.96073  0.62321  0.81902  1.0000
  C   C9        1.0  0.94841  0.48245  0.16423  1.0000
  C   C10       1.0  0.05159  0.51755  0.83577  1.0000
  C   C11       1.0  0.01148  0.63092  0.15445  1.0000
  C   C12       1.0  0.98851  0.36909  0.84556  1.0000
  C   C13       1.0  0.16166  0.71277  0.16557  1.0000
  C   C14       1.0  0.83834  0.28723  0.83443  1.0000
  C   C15       1.0  0.25256  0.97358  0.14544  1.0000
  C   C16       1.0  0.74744  0.02642  0.85456  1.0000
  C   C17       1.0  0.32197  0.05017  0.28634  1.0000
  C   C18       1.0  0.67803  0.94984  0.71366  1.0000
  C   C19       1.0  0.48710  0.09870  0.33759  1.0000
  C   C20       1.0  0.51290  0.90130  0.66240  1.0000
  C   C21       1.0  0.54504  0.18126  0.46158  1.0000
  C   C22       1.0  0.45497  0.81874  0.53842  1.0000
  C   C23       1.0  0.43704  0.21099  0.53080  1.0000
  C   C24       1.0  0.56297  0.78901  0.46920  1.0000
  C   C25       1.0  0.27387  0.15307  0.47417  1.0000
  C   C26       1.0  0.72613  0.84693  0.52582  1.0000
  C   C27       1.0  0.14915  0.17599  0.54518  1.0000
  C   C28       1.0  0.85086  0.82401  0.45482  1.0000
  N   N1        1.0  0.78865  0.45313  0.15301  1.0000
  N   N2        1.0  0.21135  0.54687  0.84700  1.0000
  N   N3        1.0  0.90414  0.71900  0.12541  1.0000
  N   N4        1.0  0.09586  0.28100  0.87459  1.0000
  N   N5        1.0  0.97716  0.84934  0.11811  1.0000
  N   N6        1.0  0.02283  0.15066  0.88188  1.0000
  N   N7        1.0  0.13372  0.84507  0.14243  1.0000
  N   N8        1.0  0.86628  0.15493  0.85757  1.0000
  N   N9        1.0  0.21741  0.07460  0.35423  1.0000
  N   N10       1.0  0.78260  0.92540  0.64577  1.0000
  N   N11       1.0  0.17859  0.32115  0.60988  1.0000
  N   N12       1.0  0.82142  0.67884  0.39013  1.0000
  N   N13       1.0  0.17850  0.42130  0.53819  1.0000
  N   N14       1.0  0.82151  0.57869  0.46181  1.0000
  N   N15       1.0  0.18262  0.52603  0.48661  1.0000
  N   N16       1.0  0.81740  0.47397  0.51339  1.0000
  Cl  Cl1       1.0  0.59323  0.83326  0.11166  1.0000
  Cl  Cl2       1.0  0.40677  0.16675  0.88834  1.0000
  Cl  Cl3       1.0  0.44980  0.50405  0.16590  1.0000
  Cl  Cl4       1.0  0.55019  0.49595  0.83409  1.0000
