data_image0
_chemical_formula_structural       Cu2H48C56N20O10
_chemical_formula_sum              "Cu2 H48 C56 N20 O10"
_cell_length_a       10.1549
_cell_length_b       12.1254
_cell_length_c       13.665
_cell_angle_alpha    62.4716
_cell_angle_beta     77.0352
_cell_angle_gamma    72.4368

_space_group_name_H-M_alt    "P 1"
_space_group_IT_number       1

loop_
  _space_group_symop_operation_xyz
  'x, y, z'

loop_
  _atom_site_type_symbol
  _atom_site_label
  _atom_site_symmetry_multiplicity
  _atom_site_fract_x
  _atom_site_fract_y
  _atom_site_fract_z
  _atom_site_occupancy
  Cu  Cu1       1.0  0.61107  0.51995  0.75073  1.0000
  Cu  Cu2       1.0  0.38894  0.48005  0.24927  1.0000
  H   H1        1.0  0.56403  0.65214  0.49455  1.0000
  H   H2        1.0  0.43597  0.34785  0.50546  1.0000
  H   H3        1.0  0.44484  0.63488  0.59217  1.0000
  H   H4        1.0  0.55516  0.36511  0.40783  1.0000
  H   H5        1.0  0.06719  0.51828  0.72374  1.0000
  H   H6        1.0  0.93282  0.48171  0.27627  1.0000
  H   H7        1.0  0.31322  0.38246  0.99180  1.0000
  H   H8        1.0  0.68676  0.61755  0.00821  1.0000
  H   H9        1.0  0.11965  0.29212  0.12847  1.0000
  H   H10       1.0  0.88034  0.70789  0.87154  1.0000
  H   H11       1.0  0.89810  0.32591  0.06008  1.0000
  H   H12       1.0  0.10188  0.67409  0.93993  1.0000
  H   H13       1.0  0.82608  0.42090  0.57964  1.0000
  H   H14       1.0  0.17392  0.57909  0.42036  1.0000
  H   H15       1.0  0.47724  0.29153  0.78953  1.0000
  H   H16       1.0  0.52276  0.70848  0.21046  1.0000
  H   H17       1.0  0.59025  0.14684  0.67024  1.0000
  H   H18       1.0  0.40974  0.85315  0.32976  1.0000
  H   H19       1.0  0.88499  0.28540  0.46734  1.0000
  H   H20       1.0  0.11500  0.71459  0.53266  1.0000
  H   H21       1.0  0.75705  0.20495  0.48206  1.0000
  H   H22       1.0  0.24294  0.79503  0.51796  1.0000
  H   H23       1.0  0.24548  0.75822  0.72228  1.0000
  H   H24       1.0  0.75455  0.24179  0.27770  1.0000
  H   H25       1.0  0.43262  0.87910  0.64088  1.0000
  H   H26       1.0  0.56740  0.12092  0.35909  1.0000
  H   H27       1.0  0.37778  0.11438  0.53325  1.0000
  H   H28       1.0  0.62223  0.88564  0.46673  1.0000
  H   H29       1.0  0.13567  0.23740  0.49716  1.0000
  H   H30       1.0  0.86432  0.76261  0.50282  1.0000
  H   H31       1.0  0.40947  0.63185  0.92211  1.0000
  H   H32       1.0  0.59053  0.36816  0.07788  1.0000
  H   H33       1.0  0.73880  0.75922  0.68001  1.0000
  H   H34       1.0  0.26122  0.24078  0.31999  1.0000
  H   H35       1.0  0.64279  0.91665  0.78881  1.0000
  H   H36       1.0  0.35721  0.08335  0.21119  1.0000
  H   H37       1.0  0.36439  0.77192  0.01825  1.0000
  H   H38       1.0  0.63560  0.22807  0.98174  1.0000
  H   H39       1.0  0.49891  0.85151  0.99743  1.0000
  H   H40       1.0  0.50109  0.14849  0.00257  1.0000
  H   H41       1.0  0.12746  0.81577  0.96629  1.0000
  H   H42       1.0  0.87254  0.18423  0.03371  1.0000
  H   H43       1.0  0.88885  0.93097  0.90781  1.0000
  H   H44       1.0  0.11114  0.06904  0.09219  1.0000
  H   H45       1.0  0.82843  0.16568  0.80328  1.0000
  H   H46       1.0  0.17157  0.83433  0.19671  1.0000
  H   H47       1.0  0.00601  0.29498  0.74408  1.0000
  H   H48       1.0  0.99400  0.70502  0.25591  1.0000
  C   C1        1.0  0.83497  0.43472  0.85142  1.0000
  C   C2        1.0  0.16502  0.56529  0.14859  1.0000
  C   C3        1.0  0.31868  0.50972  0.77036  1.0000
  C   C4        1.0  0.68131  0.49028  0.22965  1.0000
  C   C5        1.0  0.96992  0.42010  0.88781  1.0000
  C   C6        1.0  0.03008  0.57990  0.11220  1.0000
  C   C7        1.0  0.07864  0.46885  0.81217  1.0000
  C   C8        1.0  0.92137  0.53115  0.18784  1.0000
  C   C9        1.0  0.20217  0.45507  0.84997  1.0000
  C   C10       1.0  0.79783  0.54493  0.15005  1.0000
  C   C11       1.0  0.21721  0.39023  0.96392  1.0000
  C   C12       1.0  0.78278  0.60978  0.03610  1.0000
  C   C13       1.0  0.10946  0.34093  0.03973  1.0000
  C   C14       1.0  0.89052  0.65908  0.96028  1.0000
  C   C15       1.0  0.98571  0.35784  0.00161  1.0000
  C   C16       1.0  0.01428  0.64216  0.99840  1.0000
  C   C17       1.0  0.74594  0.36752  0.62114  1.0000
  C   C18       1.0  0.25406  0.63248  0.37887  1.0000
  C   C19       1.0  0.56743  0.29678  0.72930  1.0000
  C   C20       1.0  0.43257  0.70322  0.27069  1.0000
  C   C21       1.0  0.62138  0.22442  0.67062  1.0000
  C   C22       1.0  0.37862  0.77558  0.32938  1.0000
  C   C23       1.0  0.82322  0.21782  0.52739  1.0000
  C   C24       1.0  0.17677  0.78216  0.47262  1.0000
  C   C25       1.0  0.05503  0.06451  0.58963  1.0000
  C   C26       1.0  0.94497  0.93548  0.41036  1.0000
  C   C27       1.0  0.08477  0.93059  0.65359  1.0000
  C   C28       1.0  0.91525  0.06941  0.34641  1.0000
  C   C29       1.0  0.22168  0.86145  0.67418  1.0000
  C   C30       1.0  0.77834  0.13855  0.32580  1.0000
  C   C31       1.0  0.32477  0.92986  0.62893  1.0000
  C   C32       1.0  0.67524  0.07014  0.37105  1.0000
  C   C33       1.0  0.29362  0.06418  0.56637  1.0000
  C   C34       1.0  0.70639  0.93583  0.43361  1.0000
  C   C35       1.0  0.15853  0.13410  0.54562  1.0000
  C   C36       1.0  0.84146  0.86590  0.45437  1.0000
  C   C37       1.0  0.48535  0.68693  0.86881  1.0000
  C   C38       1.0  0.51465  0.31307  0.13119  1.0000
  C   C39       1.0  0.65493  0.75706  0.74507  1.0000
  C   C40       1.0  0.34508  0.24293  0.25493  1.0000
  C   C41       1.0  0.60895  0.83527  0.79872  1.0000
  C   C42       1.0  0.39105  0.16473  0.20128  1.0000
  C   C43       1.0  0.42524  0.84025  0.95681  1.0000
  C   C44       1.0  0.57476  0.15975  0.04319  1.0000
  C   C45       1.0  0.19798  0.99252  0.88515  1.0000
  C   C46       1.0  0.80201  0.00748  0.11486  1.0000
  C   C47       1.0  0.10062  0.91855  0.91697  1.0000
  C   C48       1.0  0.89937  0.08146  0.08303  1.0000
  C   C49       1.0  0.96870  0.98438  0.88466  1.0000
  C   C50       1.0  0.03130  0.01563  0.11533  1.0000
  C   C51       1.0  0.93488  0.11880  0.82353  1.0000
  C   C52       1.0  0.06512  0.88121  0.17647  1.0000
  C   C53       1.0  0.03248  0.19162  0.79083  1.0000
  C   C54       1.0  0.96752  0.80838  0.20916  1.0000
  C   C55       1.0  0.16685  0.12644  0.82278  1.0000
  C   C56       1.0  0.83315  0.87356  0.17722  1.0000
  N   N1        1.0  0.64576  0.38578  0.69747  1.0000
  N   N2        1.0  0.35424  0.61422  0.30253  1.0000
  N   N3        1.0  0.73389  0.27039  0.60233  1.0000
  N   N4        1.0  0.26611  0.72960  0.39768  1.0000
  N   N5        1.0  0.91442  0.09602  0.58543  1.0000
  N   N6        1.0  0.08558  0.90397  0.41457  1.0000
  N   N7        1.0  0.86140  0.98901  0.64298  1.0000
  N   N8        1.0  0.13861  0.01098  0.35702  1.0000
  N   N9        1.0  0.96208  0.89022  0.68406  1.0000
  N   N10       1.0  0.03795  0.10978  0.31594  1.0000
  N   N11       1.0  0.57704  0.66571  0.78923  1.0000
  N   N12       1.0  0.42296  0.33429  0.21077  1.0000
  N   N13       1.0  0.50236  0.78950  0.87695  1.0000
  N   N14       1.0  0.49763  0.21050  0.12305  1.0000
  N   N15       1.0  0.33357  0.96355  0.90442  1.0000
  N   N16       1.0  0.66643  0.03645  0.09558  1.0000
  N   N17       1.0  0.38335  0.07265  0.85541  1.0000
  N   N18       1.0  0.61665  0.92735  0.14459  1.0000
  N   N19       1.0  0.28478  0.16986  0.80685  1.0000
  N   N20       1.0  0.71523  0.83014  0.19314  1.0000
  O   O1        1.0  0.81821  0.50087  0.74670  1.0000
  O   O2        1.0  0.18180  0.49913  0.25330  1.0000
  O   O3        1.0  0.74229  0.38427  0.92265  1.0000
  O   O4        1.0  0.25771  0.61573  0.07735  1.0000
  O   O5        1.0  0.31013  0.56398  0.66719  1.0000
  O   O6        1.0  0.68986  0.43603  0.33282  1.0000
  O   O7        1.0  0.42307  0.49590  0.81758  1.0000
  O   O8        1.0  0.57693  0.50409  0.18243  1.0000
  O   O9        1.0  0.52262  0.68007  0.55319  1.0000
  O   O10       1.0  0.47739  0.31992  0.44682  1.0000
