data_image0
_chemical_formula_structural       Tl4H16C28Br4N16
_chemical_formula_sum              "Tl4 H16 C28 Br4 N16"
_cell_length_a       4.08993
_cell_length_b       12.9277
_cell_length_c       18.2348
_cell_angle_alpha    107.007
_cell_angle_beta     96.428
_cell_angle_gamma    90.0065

_space_group_name_H-M_alt    "P 1"
_space_group_IT_number       1

loop_
  _space_group_symop_operation_xyz
  'x, y, z'

loop_
  _atom_site_type_symbol
  _atom_site_label
  _atom_site_symmetry_multiplicity
  _atom_site_fract_x
  _atom_site_fract_y
  _atom_site_fract_z
  _atom_site_occupancy
  Tl  Tl1       1.0  0.06441  0.90676  0.07324  1.0000
  Tl  Tl2       1.0  0.98966  0.59321  0.92669  1.0000
  Tl  Tl3       1.0  0.93557  0.09324  0.92676  1.0000
  Tl  Tl4       1.0  0.01033  0.40679  0.07330  1.0000
  H   H1        1.0  0.08888  0.23860  0.30676  1.0000
  H   H2        1.0  0.77884  0.26107  0.69296  1.0000
  H   H3        1.0  0.91115  0.76140  0.69324  1.0000
  H   H4        1.0  0.22114  0.73893  0.30704  1.0000
  H   H5        1.0  0.31416  0.39428  0.41767  1.0000
  H   H6        1.0  0.89369  0.10529  0.58216  1.0000
  H   H7        1.0  0.68585  0.60572  0.58233  1.0000
  H   H8        1.0  0.10631  0.89470  0.41784  1.0000
  H   H9        1.0  0.76595  0.61285  0.31488  1.0000
  H   H10       1.0  0.44904  0.88686  0.68524  1.0000
  H   H11       1.0  0.23404  0.38715  0.68513  1.0000
  H   H12       1.0  0.55096  0.11314  0.31475  1.0000
  H   H13       1.0  0.53772  0.45981  0.20715  1.0000
  H   H14       1.0  0.32778  0.04000  0.79281  1.0000
  H   H15       1.0  0.46226  0.54019  0.79286  1.0000
  H   H16       1.0  0.67219  0.96000  0.20718  1.0000
  C   C1        1.0  0.67923  0.24687  0.18146  1.0000
  C   C2        1.0  0.49561  0.25294  0.81843  1.0000
  C   C3        1.0  0.32078  0.75313  0.81854  1.0000
  C   C4        1.0  0.50437  0.74706  0.18157  1.0000
  C   C5        1.0  0.80225  0.33750  0.24814  1.0000
  C   C6        1.0  0.55139  0.16225  0.75175  1.0000
  C   C7        1.0  0.19775  0.66250  0.75187  1.0000
  C   C8        1.0  0.44859  0.83775  0.24825  1.0000
  C   C9        1.0  0.01784  0.32062  0.30889  1.0000
  C   C10       1.0  0.70608  0.17906  0.69093  1.0000
  C   C11       1.0  0.98217  0.67938  0.69111  1.0000
  C   C12       1.0  0.29390  0.82094  0.30906  1.0000
  C   C13       1.0  0.14445  0.40758  0.37112  1.0000
  C   C14       1.0  0.77075  0.09204  0.62877  1.0000
  C   C15       1.0  0.85556  0.59242  0.62888  1.0000
  C   C16       1.0  0.22925  0.90796  0.37123  1.0000
  C   C17       1.0  0.05525  0.51226  0.37230  1.0000
  C   C18       1.0  0.68082  0.98737  0.62770  1.0000
  C   C19       1.0  0.94476  0.48774  0.62770  1.0000
  C   C20       1.0  0.31919  0.01263  0.37230  1.0000
  C   C21       1.0  0.83902  0.53131  0.31328  1.0000
  C   C22       1.0  0.52355  0.96838  0.68676  1.0000
  C   C23       1.0  0.16098  0.46869  0.68673  1.0000
  C   C24       1.0  0.47645  0.03161  0.31324  1.0000
  C   C25       1.0  0.71255  0.44370  0.25180  1.0000
  C   C26       1.0  0.45816  0.05606  0.74817  1.0000
  C   C27       1.0  0.28745  0.55630  0.74821  1.0000
  C   C28       1.0  0.54183  0.94394  0.25183  1.0000
  Br  Br1       1.0  0.23667  0.63291  0.45480  1.0000
  Br  Br2       1.0  0.78074  0.86667  0.54533  1.0000
  Br  Br3       1.0  0.76335  0.36709  0.54520  1.0000
  Br  Br4       1.0  0.21931  0.13332  0.45468  1.0000
  N   N1        1.0  0.49418  0.25761  0.11762  1.0000
  N   N2        1.0  0.37498  0.24230  0.88237  1.0000
  N   N3        1.0  0.50582  0.74239  0.88239  1.0000
  N   N4        1.0  0.62501  0.75770  0.11762  1.0000
  N   N5        1.0  0.44649  0.15703  0.06898  1.0000
  N   N6        1.0  0.37663  0.34291  0.93100  1.0000
  N   N7        1.0  0.55351  0.84297  0.93102  1.0000
  N   N8        1.0  0.62337  0.65709  0.06900  1.0000
  N   N9        1.0  0.59630  0.08805  0.10234  1.0000
  N   N10       1.0  0.49307  0.41180  0.89755  1.0000
  N   N11       1.0  0.40370  0.91196  0.89766  1.0000
  N   N12       1.0  0.50693  0.58820  0.10245  1.0000
  N   N13       1.0  0.74456  0.14187  0.17273  1.0000
  N   N14       1.0  0.57020  0.35789  0.82710  1.0000
  N   N15       1.0  0.25545  0.85813  0.82727  1.0000
  N   N16       1.0  0.42978  0.64211  0.17290  1.0000
