data_image0
_chemical_formula_structural       Tl4H20C28N16
_chemical_formula_sum              "Tl4 H20 C28 N16"
_cell_length_a       4.11721
_cell_length_b       12.8489
_cell_length_c       16.3001
_cell_angle_alpha    102.219
_cell_angle_beta     97.2397
_cell_angle_gamma    89.9918

_space_group_name_H-M_alt    "P 1"
_space_group_IT_number       1

loop_
  _space_group_symop_operation_xyz
  'x, y, z'

loop_
  _atom_site_type_symbol
  _atom_site_label
  _atom_site_symmetry_multiplicity
  _atom_site_fract_x
  _atom_site_fract_y
  _atom_site_fract_z
  _atom_site_occupancy
  Tl  Tl1       1.0  0.47638  0.09941  0.91530  1.0000
  Tl  Tl2       1.0  0.56160  0.40060  0.08462  1.0000
  Tl  Tl3       1.0  0.52364  0.90059  0.08470  1.0000
  Tl  Tl4       1.0  0.43840  0.59940  0.91538  1.0000
  H   H1        1.0  0.42436  0.21306  0.68102  1.0000
  H   H2        1.0  0.74474  0.28679  0.31895  1.0000
  H   H3        1.0  0.57563  0.78694  0.31898  1.0000
  H   H4        1.0  0.25526  0.71321  0.68104  1.0000
  H   H5        1.0  0.13468  0.24711  0.54555  1.0000
  H   H6        1.0  0.59001  0.25291  0.45443  1.0000
  H   H7        1.0  0.86532  0.75289  0.45445  1.0000
  H   H8        1.0  0.41000  0.74709  0.54557  1.0000
  H   H9        1.0  0.18140  0.42573  0.51138  1.0000
  H   H10       1.0  0.67024  0.07423  0.48865  1.0000
  H   H11       1.0  0.81860  0.57426  0.48862  1.0000
  H   H12       1.0  0.32975  0.92578  0.51135  1.0000
  H   H13       1.0  0.52075  0.57003  0.61248  1.0000
  H   H14       1.0  0.90873  0.92988  0.38757  1.0000
  H   H15       1.0  0.47925  0.42997  0.38752  1.0000
  H   H16       1.0  0.09126  0.07012  0.61244  1.0000
  H   H17       1.0  0.80918  0.53657  0.74599  1.0000
  H   H18       1.0  0.06404  0.96318  0.25406  1.0000
  H   H19       1.0  0.19082  0.46343  0.25401  1.0000
  H   H20       1.0  0.93597  0.03682  0.74594  1.0000
  C   C1        1.0  0.79925  0.34935  0.80107  1.0000
  C   C2        1.0  0.99924  0.15052  0.19890  1.0000
  C   C3        1.0  0.20073  0.65065  0.19893  1.0000
  C   C4        1.0  0.00077  0.84948  0.80110  1.0000
  C   C5        1.0  0.63209  0.37200  0.72252  1.0000
  C   C6        1.0  0.91073  0.12782  0.27747  1.0000
  C   C7        1.0  0.36790  0.62800  0.27748  1.0000
  C   C8        1.0  0.08928  0.87218  0.72253  1.0000
  C   C9        1.0  0.44362  0.29080  0.66498  1.0000
  C   C10       1.0  0.77986  0.20906  0.33504  1.0000
  C   C11       1.0  0.55637  0.70919  0.33502  1.0000
  C   C12       1.0  0.22014  0.79094  0.66496  1.0000
  C   C13       1.0  0.28236  0.31024  0.58963  1.0000
  C   C14       1.0  0.69367  0.18972  0.41040  1.0000
  C   C15       1.0  0.71763  0.68976  0.41037  1.0000
  C   C16       1.0  0.30633  0.81029  0.58960  1.0000
  C   C17       1.0  0.30792  0.41080  0.57055  1.0000
  C   C18       1.0  0.73788  0.08915  0.42950  1.0000
  C   C19       1.0  0.69208  0.58919  0.42945  1.0000
  C   C20       1.0  0.26211  0.91085  0.57050  1.0000
  C   C21       1.0  0.49611  0.49176  0.62735  1.0000
  C   C22       1.0  0.86929  0.00816  0.37270  1.0000
  C   C23       1.0  0.50389  0.50824  0.37264  1.0000
  C   C24       1.0  0.13070  0.99184  0.62730  1.0000
  C   C25       1.0  0.65739  0.47306  0.70322  1.0000
  C   C26       1.0  0.95492  0.02676  0.29679  1.0000
  C   C27       1.0  0.34260  0.52694  0.29678  1.0000
  C   C28       1.0  0.04508  0.97324  0.70321  1.0000
  N   N1        1.0  0.86642  0.25064  0.81395  1.0000
  N   N2        1.0  0.05348  0.24927  0.18610  1.0000
  N   N3        1.0  0.13356  0.74936  0.18605  1.0000
  N   N4        1.0  0.94653  0.75074  0.81390  1.0000
  N   N5        1.0  0.01847  0.26642  0.89368  1.0000
  N   N6        1.0  0.12532  0.23360  0.10632  1.0000
  N   N7        1.0  0.98154  0.73358  0.10632  1.0000
  N   N8        1.0  0.87469  0.76640  0.89368  1.0000
  N   N9        1.0  0.04242  0.36979  0.92843  1.0000
  N   N10       1.0  0.11438  0.13025  0.07148  1.0000
  N   N11       1.0  0.95759  0.63021  0.07157  1.0000
  N   N12       1.0  0.88563  0.86975  0.92852  1.0000
  N   N13       1.0  0.90617  0.42414  0.87119  1.0000
  N   N14       1.0  0.03570  0.07581  0.12870  1.0000
  N   N15       1.0  0.09382  0.57586  0.12881  1.0000
  N   N16       1.0  0.96431  0.92419  0.87131  1.0000
