data_image0
_chemical_formula_structural       Tl4H8C16N16
_chemical_formula_sum              "Tl4 H8 C16 N16"
_cell_length_a       4.08734
_cell_length_b       12.6132
_cell_length_c       12.9315
_cell_angle_alpha    117.145
_cell_angle_beta     90.0688
_cell_angle_gamma    99.4363

_space_group_name_H-M_alt    "P 1"
_space_group_IT_number       1

loop_
  _space_group_symop_operation_xyz
  'x, y, z'

loop_
  _atom_site_type_symbol
  _atom_site_label
  _atom_site_symmetry_multiplicity
  _atom_site_fract_x
  _atom_site_fract_y
  _atom_site_fract_z
  _atom_site_occupancy
  Tl  Tl1       1.0  0.41066  0.87963  0.56895  1.0000
  Tl  Tl2       1.0  0.52873  0.11906  0.93036  1.0000
  Tl  Tl3       1.0  0.58934  0.12037  0.43105  1.0000
  Tl  Tl4       1.0  0.47126  0.88094  0.06964  1.0000
  H   H1        1.0  0.35262  0.52514  0.19546  1.0000
  H   H2        1.0  0.82485  0.47445  0.30449  1.0000
  H   H3        1.0  0.64739  0.47486  0.80454  1.0000
  H   H4        1.0  0.17515  0.52555  0.69551  1.0000
  H   H5        1.0  0.89316  0.66074  0.98015  1.0000
  H   H6        1.0  0.23421  0.33997  0.51994  1.0000
  H   H7        1.0  0.10684  0.33927  0.01985  1.0000
  H   H8        1.0  0.76579  0.66003  0.48006  1.0000
  C   C1        1.0  0.77831  0.71744  0.20661  1.0000
  C   C2        1.0  0.06012  0.28299  0.29344  1.0000
  C   C3        1.0  0.22170  0.28256  0.79339  1.0000
  C   C4        1.0  0.93988  0.71701  0.70656  1.0000
  C   C5        1.0  0.63968  0.60671  0.10133  1.0000
  C   C6        1.0  0.03207  0.39342  0.39872  1.0000
  C   C7        1.0  0.36033  0.39329  0.89867  1.0000
  C   C8        1.0  0.96793  0.60658  0.60128  1.0000
  C   C9        1.0  0.41840  0.51371  0.10979  1.0000
  C   C10       1.0  0.90315  0.48605  0.39018  1.0000
  C   C11       1.0  0.58161  0.48629  0.89020  1.0000
  C   C12       1.0  0.09685  0.51395  0.60982  1.0000
  C   C13       1.0  0.71865  0.59133  0.98996  1.0000
  C   C14       1.0  0.12814  0.40905  0.51011  1.0000
  C   C15       1.0  0.28137  0.40868  0.01004  1.0000
  C   C16       1.0  0.87186  0.59095  0.48989  1.0000
  N   N1        1.0  0.71045  0.74015  0.31629  1.0000
  N   N2        1.0  0.97137  0.26060  0.18366  1.0000
  N   N3        1.0  0.28955  0.25985  0.68371  1.0000
  N   N4        1.0  0.02862  0.73940  0.81634  1.0000
  N   N5        1.0  0.87890  0.85244  0.38504  1.0000
  N   N6        1.0  0.02915  0.14881  0.11493  1.0000
  N   N7        1.0  0.12110  0.14756  0.61496  1.0000
  N   N8        1.0  0.97085  0.85119  0.88507  1.0000
  N   N9        1.0  0.04345  0.89726  0.32055  1.0000
  N   N10       1.0  0.14779  0.10394  0.17957  1.0000
  N   N11       1.0  0.95654  0.10274  0.67945  1.0000
  N   N12       1.0  0.85220  0.89606  0.82043  1.0000
  N   N13       1.0  0.98465  0.81404  0.20791  1.0000
  N   N14       1.0  0.17000  0.18668  0.29225  1.0000
  N   N15       1.0  0.01535  0.18596  0.79209  1.0000
  N   N16       1.0  0.83000  0.81332  0.70774  1.0000
