data_image0
_chemical_formula_structural       Mn4H4C8O12
_chemical_formula_sum              "Mn4 H4 C8 O12"
_cell_length_a       3.36749
_cell_length_b       8.62561
_cell_length_c       10.2513
_cell_angle_alpha    89.9997
_cell_angle_beta     89.9996
_cell_angle_gamma    101.836

_space_group_name_H-M_alt    "P 1"
_space_group_IT_number       1

loop_
  _space_group_symop_operation_xyz
  'x, y, z'

loop_
  _atom_site_type_symbol
  _atom_site_label
  _atom_site_symmetry_multiplicity
  _atom_site_fract_x
  _atom_site_fract_y
  _atom_site_fract_z
  _atom_site_occupancy
  Mn  Mn1       1.0  0.70799  0.92081  0.38287  1.0000
  Mn  Mn2       1.0  0.29201  0.57919  0.88288  1.0000
  Mn  Mn3       1.0  0.29202  0.07919  0.61712  1.0000
  Mn  Mn4       1.0  0.70799  0.42081  0.11712  1.0000
  H   H1        1.0  0.63160  0.82585  0.64033  1.0000
  H   H2        1.0  0.36840  0.67415  0.14033  1.0000
  H   H3        1.0  0.36840  0.17414  0.35968  1.0000
  H   H4        1.0  0.63159  0.32585  0.85967  1.0000
  C   C1        1.0  0.84961  0.44386  0.41840  1.0000
  C   C2        1.0  0.15039  0.05615  0.91839  1.0000
  C   C3        1.0  0.15039  0.55614  0.58161  1.0000
  C   C4        1.0  0.84960  0.94385  0.08161  1.0000
  C   C5        1.0  0.05845  0.60721  0.44953  1.0000
  C   C6        1.0  0.94159  0.89280  0.94953  1.0000
  C   C7        1.0  0.94156  0.39279  0.55047  1.0000
  C   C8        1.0  0.05843  0.10721  0.05047  1.0000
  O   O1        1.0  0.12502  0.73781  0.38797  1.0000
  O   O2        1.0  0.87497  0.76218  0.88796  1.0000
  O   O3        1.0  0.87498  0.26219  0.61203  1.0000
  O   O4        1.0  0.12503  0.23782  0.11204  1.0000
  O   O5        1.0  0.66393  0.37439  0.32102  1.0000
  O   O6        1.0  0.33607  0.12561  0.82102  1.0000
  O   O7        1.0  0.33607  0.62561  0.67898  1.0000
  O   O8        1.0  0.66394  0.87439  0.17898  1.0000
  O   O9        1.0  0.71693  0.92919  0.59658  1.0000
  O   O10       1.0  0.28307  0.57081  0.09658  1.0000
  O   O11       1.0  0.28308  0.07082  0.40342  1.0000
  O   O12       1.0  0.71692  0.42918  0.90342  1.0000
