data_image0
_chemical_formula_structural       Ag2H24C24N6O10
_chemical_formula_sum              "Ag2 H24 C24 N6 O10"
_cell_length_a       7.0605
_cell_length_b       8.81307
_cell_length_c       11.1084
_cell_angle_alpha    70.9632
_cell_angle_beta     89.1285
_cell_angle_gamma    76.2814

_space_group_name_H-M_alt    "P 1"
_space_group_IT_number       1

loop_
  _space_group_symop_operation_xyz
  'x, y, z'

loop_
  _atom_site_type_symbol
  _atom_site_label
  _atom_site_symmetry_multiplicity
  _atom_site_fract_x
  _atom_site_fract_y
  _atom_site_fract_z
  _atom_site_occupancy
  Ag  Ag1       1.0  0.24090  0.02486  0.88647  1.0000
  Ag  Ag2       1.0  0.75910  0.97514  0.11353  1.0000
  H   H1        1.0  0.97651  0.23760  0.96973  1.0000
  H   H2        1.0  0.02349  0.76239  0.03027  1.0000
  H   H3        1.0  0.16023  0.69476  0.84332  1.0000
  H   H4        1.0  0.83977  0.30524  0.15668  1.0000
  H   H5        1.0  0.00312  0.01144  0.72093  1.0000
  H   H6        1.0  0.99687  0.98856  0.27907  1.0000
  H   H7        1.0  0.30012  0.87444  0.41381  1.0000
  H   H8        1.0  0.69988  0.12556  0.58619  1.0000
  H   H9        1.0  0.12493  0.30122  0.57072  1.0000
  H   H10       1.0  0.87506  0.69878  0.42927  1.0000
  H   H11       1.0  0.37703  0.22763  0.62040  1.0000
  H   H12       1.0  0.62297  0.77237  0.37960  1.0000
  H   H13       1.0  0.42092  0.49871  0.58920  1.0000
  H   H14       1.0  0.57908  0.50129  0.41080  1.0000
  H   H15       1.0  0.19791  0.57485  0.48914  1.0000
  H   H16       1.0  0.80209  0.42515  0.51086  1.0000
  H   H17       1.0  0.59127  0.67288  0.90721  1.0000
  H   H18       1.0  0.40874  0.32713  0.09279  1.0000
  H   H19       1.0  0.68004  0.85060  0.83167  1.0000
  H   H20       1.0  0.31996  0.14941  0.16832  1.0000
  H   H21       1.0  0.79901  0.73345  0.66786  1.0000
  H   H22       1.0  0.20099  0.26655  0.33214  1.0000
  H   H23       1.0  0.68618  0.56419  0.73644  1.0000
  H   H24       1.0  0.31382  0.43581  0.26356  1.0000
  C   C1        1.0  0.07578  0.46225  0.89293  1.0000
  C   C2        1.0  0.92422  0.53775  0.10707  1.0000
  C   C3        1.0  0.98696  0.35254  0.98295  1.0000
  C   C4        1.0  0.01304  0.64745  0.01705  1.0000
  C   C5        1.0  0.08836  0.61012  0.91110  1.0000
  C   C6        1.0  0.91164  0.38988  0.08889  1.0000
  C   C7        1.0  0.17606  0.93603  0.57671  1.0000
  C   C8        1.0  0.82394  0.06397  0.42329  1.0000
  C   C9        1.0  0.00410  0.00595  0.62418  1.0000
  C   C10       1.0  0.99589  0.99405  0.37582  1.0000
  C   C11       1.0  0.16960  0.93078  0.45180  1.0000
  C   C12       1.0  0.83039  0.06922  0.54821  1.0000
  C   C13       1.0  0.14927  0.42706  0.77830  1.0000
  C   C14       1.0  0.85073  0.57294  0.22171  1.0000
  C   C15       1.0  0.24282  0.31723  0.62568  1.0000
  C   C16       1.0  0.75718  0.68277  0.37432  1.0000
  C   C17       1.0  0.26761  0.49467  0.58289  1.0000
  C   C18       1.0  0.73239  0.50533  0.41711  1.0000
  C   C19       1.0  0.35910  0.86243  0.65703  1.0000
  C   C20       1.0  0.64090  0.13757  0.34297  1.0000
  C   C21       1.0  0.59381  0.76934  0.81552  1.0000
  C   C22       1.0  0.40619  0.23067  0.18448  1.0000
  C   C23       1.0  0.66719  0.69860  0.70899  1.0000
  C   C24       1.0  0.33280  0.30140  0.29101  1.0000
  N   N1        1.0  0.19031  0.28637  0.75916  1.0000
  N   N2        1.0  0.80969  0.71364  0.24084  1.0000
  N   N3        1.0  0.30838  0.78391  0.15720  1.0000
  N   N4        1.0  0.69162  0.21609  0.84280  1.0000
  N   N5        1.0  0.39241  0.86686  0.76984  1.0000
  N   N6        1.0  0.60759  0.13314  0.23016  1.0000
  O   O1        1.0  0.17052  0.56057  0.67949  1.0000
  O   O2        1.0  0.82948  0.43943  0.32051  1.0000
  O   O3        1.0  0.20052  0.93386  0.10231  1.0000
  O   O4        1.0  0.79948  0.06614  0.89769  1.0000
  O   O5        1.0  0.42157  0.71480  0.09216  1.0000
  O   O6        1.0  0.57843  0.28520  0.90784  1.0000
  O   O7        1.0  0.29268  0.71375  0.27382  1.0000
  O   O8        1.0  0.70732  0.28625  0.72619  1.0000
  O   O9        1.0  0.50760  0.77588  0.60828  1.0000
  O   O10       1.0  0.49240  0.22412  0.39172  1.0000
