data_image0
_chemical_formula_structural       Fe3H14C12N4O16
_chemical_formula_sum              "Fe3 H14 C12 N4 O16"
_cell_length_a       7.36682
_cell_length_b       8.51336
_cell_length_c       8.92807
_cell_angle_alpha    114.796
_cell_angle_beta     107.37
_cell_angle_gamma    95.7465

_space_group_name_H-M_alt    "P 1"
_space_group_IT_number       1

loop_
  _space_group_symop_operation_xyz
  'x, y, z'

loop_
  _atom_site_type_symbol
  _atom_site_label
  _atom_site_symmetry_multiplicity
  _atom_site_fract_x
  _atom_site_fract_y
  _atom_site_fract_z
  _atom_site_occupancy
  Fe  Fe1       1.0  0.12496  0.24747  0.77154  1.0000
  Fe  Fe2       1.0  0.87433  0.75181  0.23640  1.0000
  Fe  Fe3       1.0  0.00395  0.00101  0.00151  1.0000
  H   H1        1.0  0.33683  0.61288  0.51224  1.0000
  H   H2        1.0  0.65739  0.39277  0.48671  1.0000
  H   H3        1.0  0.52717  0.36574  0.84856  1.0000
  H   H4        1.0  0.48803  0.63216  0.15267  1.0000
  H   H5        1.0  0.48882  0.25198  0.94398  1.0000
  H   H6        1.0  0.52786  0.74506  0.05666  1.0000
  H   H7        1.0  0.74517  0.28573  0.70707  1.0000
  H   H8        1.0  0.23665  0.69934  0.28331  1.0000
  H   H9        1.0  0.76010  0.11213  0.54763  1.0000
  H   H10       1.0  0.23001  0.87732  0.44628  1.0000
  H   H11       1.0  0.25909  0.90680  0.17616  1.0000
  H   H12       1.0  0.73730  0.08128  0.81771  1.0000
  H   H13       1.0  0.31108  0.87892  0.00637  1.0000
  H   H14       1.0  0.70019  0.12318  0.99752  1.0000
  C   C1        1.0  0.25647  0.57941  0.78808  1.0000
  C   C2        1.0  0.74159  0.42814  0.21371  1.0000
  C   C3        1.0  0.20244  0.44711  0.59844  1.0000
  C   C4        1.0  0.78204  0.56084  0.39844  1.0000
  C   C5        1.0  0.24823  0.48298  0.47519  1.0000
  C   C6        1.0  0.74428  0.52366  0.52449  1.0000
  C   C7        1.0  0.17917  0.34293  0.30232  1.0000
  C   C8        1.0  0.82117  0.66015  0.69916  1.0000
  C   C9        1.0  0.22027  0.37050  0.16294  1.0000
  C   C10       1.0  0.78388  0.63053  0.84077  1.0000
  C   C11       1.0  0.01807  0.15283  0.37784  1.0000
  C   C12       1.0  0.98054  0.84866  0.61958  1.0000
  N   N1        1.0  0.09977  0.28226  0.55205  1.0000
  N   N2        1.0  0.88392  0.72662  0.44191  1.0000
  N   N3        1.0  0.06402  0.17821  0.24957  1.0000
  N   N4        1.0  0.94031  0.82161  0.74921  1.0000
  O   O1        1.0  0.18463  0.52401  0.87722  1.0000
  O   O2        1.0  0.81930  0.48955  0.12993  1.0000
  O   O3        1.0  0.36710  0.73458  0.85195  1.0000
  O   O4        1.0  0.64454  0.26755  0.14825  1.0000
  O   O5        1.0  0.32072  0.52049  0.20092  1.0000
  O   O6        1.0  0.68050  0.48038  0.79801  1.0000
  O   O7        1.0  0.14325  0.23325  0.00453  1.0000
  O   O8        1.0  0.86409  0.76509  0.00117  1.0000
  O   O9        1.0  0.89406  0.01360  0.34174  1.0000
  O   O10       1.0  0.11031  0.98539  0.65901  1.0000
  O   O11       1.0  0.42959  0.26879  0.83850  1.0000
  O   O12       1.0  0.58244  0.73428  0.16684  1.0000
  O   O13       1.0  0.79194  0.17380  0.67677  1.0000
  O   O14       1.0  0.18559  0.80999  0.31586  1.0000
  O   O15       1.0  0.27022  0.96378  0.10206  1.0000
  O   O16       1.0  0.73665  0.03346  0.90121  1.0000
