data_image0
_chemical_formula_structural       Zn2H28C34N16
_chemical_formula_sum              "Zn2 H28 C34 N16"
_cell_length_a       9.23512
_cell_length_b       9.7387
_cell_length_c       12.0654
_cell_angle_alpha    98.3908
_cell_angle_beta     107.13
_cell_angle_gamma    116.299

_space_group_name_H-M_alt    "P 1"
_space_group_IT_number       1

loop_
  _space_group_symop_operation_xyz
  'x, y, z'

loop_
  _atom_site_type_symbol
  _atom_site_label
  _atom_site_symmetry_multiplicity
  _atom_site_fract_x
  _atom_site_fract_y
  _atom_site_fract_z
  _atom_site_occupancy
  Zn  Zn1       1.0  0.50038  1.00000  0.00019  1.0000
  Zn  Zn2       1.0  0.50002  0.50006  0.50002  1.0000
  H   H1        1.0  0.01957  0.66083  0.37763  1.0000
  H   H2        1.0  0.20731  0.47786  0.69735  1.0000
  H   H3        1.0  0.98112  0.33901  0.62170  1.0000
  H   H4        1.0  0.79322  0.52208  0.30280  1.0000
  H   H5        1.0  0.79861  0.48264  0.10216  1.0000
  H   H6        1.0  0.21216  0.24411  0.66132  1.0000
  H   H7        1.0  0.20033  0.51840  0.89709  1.0000
  H   H8        1.0  0.78850  0.75581  0.33959  1.0000
  H   H9        1.0  0.95446  0.45043  0.20184  1.0000
  H   H10       1.0  0.22386  0.27027  0.81089  1.0000
  H   H11       1.0  0.04351  0.54872  0.79648  1.0000
  H   H12       1.0  0.77571  0.72991  0.18976  1.0000
  H   H13       1.0  0.28561  0.65711  0.27613  1.0000
  H   H14       1.0  0.11639  0.99243  0.79969  1.0000
  H   H15       1.0  0.71325  0.34177  0.72325  1.0000
  H   H16       1.0  0.88409  0.00730  0.19999  1.0000
  H   H17       1.0  0.50383  0.84102  0.20522  1.0000
  H   H18       1.0  0.86606  0.70465  0.71016  1.0000
  H   H19       1.0  0.49578  0.15790  0.79472  1.0000
  H   H20       1.0  0.13431  0.29511  0.28946  1.0000
  H   H21       1.0  0.12117  0.87857  0.95206  1.0000
  H   H22       1.0  0.56493  0.81294  0.45095  1.0000
  H   H23       1.0  0.87995  0.12253  0.04831  1.0000
  H   H24       1.0  0.43480  0.18743  0.54971  1.0000
  H   H25       1.0  0.88506  0.69255  0.00923  1.0000
  H   H26       1.0  0.80131  0.10131  0.52455  1.0000
  H   H27       1.0  0.11540  0.30865  0.99066  1.0000
  H   H28       1.0  0.19830  0.89905  0.47624  1.0000
  C   C1        1.0  0.90386  0.61987  0.29309  1.0000
  C   C2        1.0  0.09622  0.38004  0.70663  1.0000
  C   C3        1.0  0.92567  0.54445  0.18229  1.0000
  C   C4        1.0  0.13568  0.24393  0.71644  1.0000
  C   C5        1.0  0.07332  0.45552  0.81682  1.0000
  C   C6        1.0  0.86440  0.75611  0.28399  1.0000
  C   C7        1.0  0.06565  0.66047  0.14903  1.0000
  C   C8        1.0  0.98057  0.07379  0.67128  1.0000
  C   C9        1.0  0.93390  0.33949  0.85047  1.0000
  C   C10       1.0  0.01947  0.92627  0.32899  1.0000
  C   C11       1.0  0.24340  0.70534  0.20501  1.0000
  C   C12       1.0  0.99520  0.95803  0.72288  1.0000
  C   C13       1.0  0.75594  0.29392  0.79450  1.0000
  C   C14       1.0  0.00508  0.04186  0.27706  1.0000
  C   C15       1.0  0.36551  0.80736  0.16603  1.0000
  C   C16       1.0  0.85682  0.79805  0.67375  1.0000
  C   C17       1.0  0.63427  0.19204  0.83385  1.0000
  C   C18       1.0  0.14345  0.20186  0.32613  1.0000
  C   C19       1.0  0.15166  0.82765  0.02413  1.0000
  C   C20       1.0  0.68923  0.85817  0.52865  1.0000
  C   C21       1.0  0.84900  0.17300  0.97601  1.0000
  C   C22       1.0  0.31066  0.14207  0.47181  1.0000
  C   C23       1.0  0.02174  0.72543  0.05707  1.0000
  C   C24       1.0  0.82205  0.01989  0.57147  1.0000
  C   C25       1.0  0.97853  0.27522  0.94275  1.0000
  C   C26       1.0  0.17783  0.98037  0.42907  1.0000
  C   C27       1.0  0.72717  0.20673  0.28549  1.0000
  C   C28       1.0  0.54820  0.54111  0.78407  1.0000
  C   C29       1.0  0.27299  0.79314  0.71472  1.0000
  C   C30       1.0  0.45183  0.45878  0.21597  1.0000
  C   C31       1.0  0.41585  0.28138  0.04857  1.0000
  C   C32       1.0  0.27241  0.65036  0.54466  1.0000
  C   C33       1.0  0.58454  0.71862  0.95158  1.0000
  C   C34       1.0  0.72737  0.34950  0.45540  1.0000
  N   N1        1.0  0.32102  0.86745  0.07657  1.0000
  N   N2        1.0  0.70504  0.74790  0.57817  1.0000
  N   N3        1.0  0.67943  0.13259  0.92360  1.0000
  N   N4        1.0  0.29502  0.25216  0.42195  1.0000
  N   N5        1.0  0.69835  0.15509  0.18177  1.0000
  N   N6        1.0  0.52591  0.48691  0.68248  1.0000
  N   N7        1.0  0.30236  0.84499  0.81853  1.0000
  N   N8        1.0  0.47421  0.51315  0.31757  1.0000
  N   N9        1.0  0.39911  0.16319  0.98962  1.0000
  N   N10       1.0  0.30166  0.56693  0.48482  1.0000
  N   N11       1.0  0.60171  0.83693  0.01074  1.0000
  N   N12       1.0  0.69840  0.43319  0.51526  1.0000
  N   N13       1.0  0.76746  0.25533  0.40155  1.0000
  N   N14       1.0  0.57083  0.58615  0.89712  1.0000
  N   N15       1.0  0.23198  0.74419  0.59856  1.0000
  N   N16       1.0  0.42900  0.41362  0.10290  1.0000
