data_image0
_chemical_formula_structural       Li8H36C28N4O32
_chemical_formula_sum              "Li8 H36 C28 N4 O32"
_cell_length_a       7.0652
_cell_length_b       10.9863
_cell_length_c       13.0607
_cell_angle_alpha    90.6634
_cell_angle_beta     90
_cell_angle_gamma    90

_space_group_name_H-M_alt    "P 1"
_space_group_IT_number       1

loop_
  _space_group_symop_operation_xyz
  'x, y, z'

loop_
  _atom_site_type_symbol
  _atom_site_label
  _atom_site_symmetry_multiplicity
  _atom_site_fract_x
  _atom_site_fract_y
  _atom_site_fract_z
  _atom_site_occupancy
  Li  Li1       1.0  0.50968  0.60261  0.32432  1.0000
  Li  Li2       1.0  0.99032  0.10261  0.82432  1.0000
  Li  Li3       1.0  0.49032  0.39739  0.67568  1.0000
  Li  Li4       1.0  0.00968  0.89739  0.17568  1.0000
  Li  Li5       1.0  0.98458  0.63742  0.64432  1.0000
  Li  Li6       1.0  0.51542  0.13742  0.14432  1.0000
  Li  Li7       1.0  0.01542  0.36259  0.35568  1.0000
  Li  Li8       1.0  0.48457  0.86258  0.85568  1.0000
  H   H1        1.0  0.71066  0.92824  0.35502  1.0000
  H   H2        1.0  0.78934  0.42824  0.85503  1.0000
  H   H3        1.0  0.28934  0.07176  0.64497  1.0000
  H   H4        1.0  0.21066  0.57176  0.14497  1.0000
  H   H5        1.0  0.77888  0.87149  0.67103  1.0000
  H   H6        1.0  0.72112  0.37150  0.17104  1.0000
  H   H7        1.0  0.22112  0.12850  0.32897  1.0000
  H   H8        1.0  0.27888  0.62850  0.82897  1.0000
  H   H9        1.0  0.78676  0.23541  0.54357  1.0000
  H   H10       1.0  0.71323  0.73542  0.04357  1.0000
  H   H11       1.0  0.21324  0.76459  0.45643  1.0000
  H   H12       1.0  0.28676  0.26459  0.95643  1.0000
  H   H13       1.0  0.15001  0.60508  0.31553  1.0000
  H   H14       1.0  0.34999  0.10508  0.81553  1.0000
  H   H15       1.0  0.84999  0.39492  0.68447  1.0000
  H   H16       1.0  0.65001  0.89492  0.18447  1.0000
  H   H17       1.0  0.23158  0.73258  0.27836  1.0000
  H   H18       1.0  0.26842  0.23258  0.77836  1.0000
  H   H19       1.0  0.76842  0.26742  0.72164  1.0000
  H   H20       1.0  0.73158  0.76742  0.22164  1.0000
  H   H21       1.0  0.10988  0.42402  0.56718  1.0000
  H   H22       1.0  0.39012  0.92402  0.06718  1.0000
  H   H23       1.0  0.89012  0.57598  0.43282  1.0000
  H   H24       1.0  0.60988  0.07598  0.93282  1.0000
  H   H25       1.0  0.14377  0.44102  0.68600  1.0000
  H   H26       1.0  0.35623  0.94102  0.18600  1.0000
  H   H27       1.0  0.85623  0.55898  0.31400  1.0000
  H   H28       1.0  0.64377  0.05897  0.81400  1.0000
  H   H29       1.0  0.40005  0.40697  0.40944  1.0000
  H   H30       1.0  0.09995  0.90696  0.90944  1.0000
  H   H31       1.0  0.59995  0.59303  0.59056  1.0000
  H   H32       1.0  0.90005  0.09304  0.09056  1.0000
  H   H33       1.0  0.60604  0.38037  0.36561  1.0000
  H   H34       1.0  0.89395  0.88037  0.86561  1.0000
  H   H35       1.0  0.39396  0.61963  0.63439  1.0000
  H   H36       1.0  0.10604  0.11963  0.13439  1.0000
  C   C1        1.0  0.74446  0.88865  0.50898  1.0000
  C   C2        1.0  0.75554  0.38866  0.00899  1.0000
  C   C3        1.0  0.25554  0.11134  0.49102  1.0000
  C   C4        1.0  0.24446  0.61134  0.99101  1.0000
  C   C5        1.0  0.71913  0.75520  0.48307  1.0000
  C   C6        1.0  0.78087  0.25521  0.98307  1.0000
  C   C7        1.0  0.28087  0.24479  0.51693  1.0000
  C   C8        1.0  0.21913  0.74479  0.01693  1.0000
  C   C9        1.0  0.77134  0.93382  0.60682  1.0000
  C   C10       1.0  0.72866  0.43382  0.10682  1.0000
  C   C11       1.0  0.22866  0.06618  0.39318  1.0000
  C   C12       1.0  0.27134  0.56618  0.89318  1.0000
  C   C13       1.0  0.78191  0.06242  0.62479  1.0000
  C   C14       1.0  0.71809  0.56242  0.12479  1.0000
  C   C15       1.0  0.21809  0.93758  0.37521  1.0000
  C   C16       1.0  0.28191  0.43758  0.87521  1.0000
  C   C17       1.0  0.77603  0.13704  0.53612  1.0000
  C   C18       1.0  0.72396  0.63704  0.03612  1.0000
  C   C19       1.0  0.22397  0.86296  0.46388  1.0000
  C   C20       1.0  0.27604  0.36296  0.96388  1.0000
  C   C21       1.0  0.74764  0.08715  0.44033  1.0000
  C   C22       1.0  0.75237  0.58715  0.94033  1.0000
  C   C23       1.0  0.25237  0.91285  0.55967  1.0000
  C   C24       1.0  0.24763  0.41285  0.05967  1.0000
  C   C25       1.0  0.72040  0.16461  0.34618  1.0000
  C   C26       1.0  0.77961  0.66461  0.84618  1.0000
  C   C27       1.0  0.27960  0.83539  0.65382  1.0000
  C   C28       1.0  0.22039  0.33540  0.15382  1.0000
  N   N1        1.0  0.72838  0.96499  0.42834  1.0000
  N   N2        1.0  0.77162  0.46499  0.92835  1.0000
  N   N3        1.0  0.27163  0.03501  0.57166  1.0000
  N   N4        1.0  0.22837  0.53501  0.07166  1.0000
  O   O1        1.0  0.61271  0.73146  0.40877  1.0000
  O   O2        1.0  0.88729  0.23147  0.90877  1.0000
  O   O3        1.0  0.38729  0.26854  0.59123  1.0000
  O   O4        1.0  0.11271  0.76853  0.09123  1.0000
  O   O5        1.0  0.80626  0.67694  0.53765  1.0000
  O   O6        1.0  0.69374  0.17694  0.03765  1.0000
  O   O7        1.0  0.19374  0.32306  0.46235  1.0000
  O   O8        1.0  0.30625  0.82306  0.96235  1.0000
  O   O9        1.0  0.79529  0.10974  0.71590  1.0000
  O   O10       1.0  0.70471  0.60975  0.21590  1.0000
  O   O11       1.0  0.20471  0.89025  0.28410  1.0000
  O   O12       1.0  0.29529  0.39025  0.78410  1.0000
  O   O13       1.0  0.62903  0.11638  0.27419  1.0000
  O   O14       1.0  0.87097  0.61638  0.77419  1.0000
  O   O15       1.0  0.37097  0.88362  0.72581  1.0000
  O   O16       1.0  0.12903  0.38362  0.22581  1.0000
  O   O17       1.0  0.78523  0.27266  0.35056  1.0000
  O   O18       1.0  0.71477  0.77267  0.85056  1.0000
  O   O19       1.0  0.21477  0.72734  0.64944  1.0000
  O   O20       1.0  0.28522  0.22734  0.14944  1.0000
  O   O21       1.0  0.25754  0.64318  0.27878  1.0000
  O   O22       1.0  0.24246  0.14318  0.77878  1.0000
  O   O23       1.0  0.74246  0.35682  0.72122  1.0000
  O   O24       1.0  0.75754  0.85682  0.22122  1.0000
  O   O25       1.0  0.05466  0.46177  0.62958  1.0000
  O   O26       1.0  0.44534  0.96177  0.12958  1.0000
  O   O27       1.0  0.94534  0.53823  0.37042  1.0000
  O   O28       1.0  0.55466  0.03823  0.87042  1.0000
  O   O29       1.0  0.50835  0.44394  0.37451  1.0000
  O   O30       1.0  0.99165  0.94394  0.87451  1.0000
  O   O31       1.0  0.49165  0.55606  0.62549  1.0000
  O   O32       1.0  0.00835  0.05606  0.12549  1.0000
