data_image0
_chemical_formula_structural       Rb8H24C48N8O16
_chemical_formula_sum              "Rb8 H24 C48 N8 O16"
_cell_length_a       7.12993
_cell_length_b       12.4076
_cell_length_c       16.5323
_cell_angle_alpha    90
_cell_angle_beta     90
_cell_angle_gamma    90

_space_group_name_H-M_alt    "P 1"
_space_group_IT_number       1

loop_
  _space_group_symop_operation_xyz
  'x, y, z'

loop_
  _atom_site_type_symbol
  _atom_site_label
  _atom_site_symmetry_multiplicity
  _atom_site_fract_x
  _atom_site_fract_y
  _atom_site_fract_z
  _atom_site_occupancy
  Rb  Rb1       1.0  0.91966  0.08881  0.89170  1.0000
  Rb  Rb2       1.0  0.41966  0.91119  0.89170  1.0000
  Rb  Rb3       1.0  0.08034  0.58881  0.39170  1.0000
  Rb  Rb4       1.0  0.41966  0.58881  0.60830  1.0000
  Rb  Rb5       1.0  0.08034  0.91119  0.10830  1.0000
  Rb  Rb6       1.0  0.58034  0.08881  0.10830  1.0000
  Rb  Rb7       1.0  0.91966  0.41119  0.60830  1.0000
  Rb  Rb8       1.0  0.58034  0.41119  0.39170  1.0000
  H   H1        1.0  0.01141  0.65038  0.97896  1.0000
  H   H2        1.0  0.51143  0.34962  0.97896  1.0000
  H   H3        1.0  0.98858  0.15039  0.47896  1.0000
  H   H4        1.0  0.51141  0.15038  0.52104  1.0000
  H   H5        1.0  0.98858  0.34962  0.02104  1.0000
  H   H6        1.0  0.48859  0.65038  0.02104  1.0000
  H   H7        1.0  0.01142  0.84962  0.52104  1.0000
  H   H8        1.0  0.48859  0.84962  0.47896  1.0000
  H   H9        1.0  0.14064  0.47245  0.93020  1.0000
  H   H10       1.0  0.64064  0.52755  0.93020  1.0000
  H   H11       1.0  0.85936  0.97245  0.43020  1.0000
  H   H12       1.0  0.64063  0.97244  0.56980  1.0000
  H   H13       1.0  0.85936  0.52755  0.06980  1.0000
  H   H14       1.0  0.35936  0.47245  0.06980  1.0000
  H   H15       1.0  0.14064  0.02755  0.56980  1.0000
  H   H16       1.0  0.35936  0.02755  0.43020  1.0000
  H   H17       1.0  0.22462  0.45392  0.78314  1.0000
  H   H18       1.0  0.72463  0.54608  0.78314  1.0000
  H   H19       1.0  0.77537  0.95392  0.28314  1.0000
  H   H20       1.0  0.72462  0.95392  0.71686  1.0000
  H   H21       1.0  0.77538  0.54608  0.21686  1.0000
  H   H22       1.0  0.27537  0.45392  0.21686  1.0000
  H   H23       1.0  0.22462  0.04608  0.71686  1.0000
  H   H24       1.0  0.27538  0.04608  0.28314  1.0000
  C   C1        1.0  0.07933  0.70534  0.78014  1.0000
  C   C2        1.0  0.57933  0.29466  0.78014  1.0000
  C   C3        1.0  0.92067  0.20534  0.28014  1.0000
  C   C4        1.0  0.57933  0.20534  0.71985  1.0000
  C   C5        1.0  0.92066  0.29466  0.21986  1.0000
  C   C6        1.0  0.42067  0.70534  0.21986  1.0000
  C   C7        1.0  0.07933  0.79466  0.71986  1.0000
  C   C8        1.0  0.42067  0.79466  0.28014  1.0000
  C   C9        1.0  0.02109  0.72208  0.86052  1.0000
  C   C10       1.0  0.52110  0.27793  0.86052  1.0000
  C   C11       1.0  0.97890  0.22207  0.36052  1.0000
  C   C12       1.0  0.52110  0.22207  0.63948  1.0000
  C   C13       1.0  0.97890  0.27792  0.13948  1.0000
  C   C14       1.0  0.47891  0.72207  0.13948  1.0000
  C   C15       1.0  0.02110  0.77792  0.63948  1.0000
  C   C16       1.0  0.47891  0.77793  0.36052  1.0000
  C   C17       1.0  0.93678  0.82773  0.88832  1.0000
  C   C18       1.0  0.43678  0.17228  0.88832  1.0000
  C   C19       1.0  0.06322  0.32772  0.38832  1.0000
  C   C20       1.0  0.43677  0.32772  0.61168  1.0000
  C   C21       1.0  0.06321  0.17227  0.11168  1.0000
  C   C22       1.0  0.56322  0.82772  0.11169  1.0000
  C   C23       1.0  0.93678  0.67227  0.61168  1.0000
  C   C24       1.0  0.56323  0.67228  0.38832  1.0000
  C   C25       1.0  0.04743  0.63766  0.91552  1.0000
  C   C26       1.0  0.54744  0.36234  0.91552  1.0000
  C   C27       1.0  0.95256  0.13767  0.41552  1.0000
  C   C28       1.0  0.54743  0.13766  0.58448  1.0000
  C   C29       1.0  0.95255  0.36234  0.08448  1.0000
  C   C30       1.0  0.45257  0.63766  0.08448  1.0000
  C   C31       1.0  0.04744  0.86234  0.58448  1.0000
  C   C32       1.0  0.45257  0.86234  0.41552  1.0000
  C   C33       1.0  0.11988  0.53975  0.88883  1.0000
  C   C34       1.0  0.61989  0.46025  0.88883  1.0000
  C   C35       1.0  0.88010  0.03975  0.38882  1.0000
  C   C36       1.0  0.61989  0.03975  0.61117  1.0000
  C   C37       1.0  0.88011  0.46025  0.11118  1.0000
  C   C38       1.0  0.38012  0.53975  0.11118  1.0000
  C   C39       1.0  0.11989  0.96025  0.61117  1.0000
  C   C40       1.0  0.38011  0.96025  0.38882  1.0000
  C   C41       1.0  0.16812  0.52933  0.80733  1.0000
  C   C42       1.0  0.66813  0.47067  0.80732  1.0000
  C   C43       1.0  0.83187  0.02933  0.30732  1.0000
  C   C44       1.0  0.66812  0.02933  0.69268  1.0000
  C   C45       1.0  0.83187  0.47067  0.19268  1.0000
  C   C46       1.0  0.33188  0.52933  0.19268  1.0000
  C   C47       1.0  0.16812  0.97066  0.69268  1.0000
  C   C48       1.0  0.33188  0.97067  0.30732  1.0000
  N   N1        1.0  0.15131  0.61077  0.75442  1.0000
  N   N2        1.0  0.65133  0.38923  0.75442  1.0000
  N   N3        1.0  0.84868  0.11077  0.25443  1.0000
  N   N4        1.0  0.65132  0.11077  0.74557  1.0000
  N   N5        1.0  0.84868  0.38923  0.24557  1.0000
  N   N6        1.0  0.34868  0.61077  0.24557  1.0000
  N   N7        1.0  0.15131  0.88923  0.74558  1.0000
  N   N8        1.0  0.34868  0.88923  0.25443  1.0000
  O   O1        1.0  0.79060  0.86062  0.85280  1.0000
  O   O2        1.0  0.29060  0.13938  0.85279  1.0000
  O   O3        1.0  0.20941  0.36062  0.35280  1.0000
  O   O4        1.0  0.29060  0.36062  0.64721  1.0000
  O   O5        1.0  0.20939  0.13938  0.14720  1.0000
  O   O6        1.0  0.70940  0.86061  0.14721  1.0000
  O   O7        1.0  0.79060  0.63938  0.64720  1.0000
  O   O8        1.0  0.70941  0.63939  0.35279  1.0000
  O   O9        1.0  0.02232  0.87425  0.94613  1.0000
  O   O10       1.0  0.52233  0.12576  0.94612  1.0000
  O   O11       1.0  0.97768  0.37425  0.44613  1.0000
  O   O12       1.0  0.52231  0.37425  0.55388  1.0000
  O   O13       1.0  0.97767  0.12575  0.05387  1.0000
  O   O14       1.0  0.47770  0.87425  0.05388  1.0000
  O   O15       1.0  0.02233  0.62575  0.55387  1.0000
  O   O16       1.0  0.47770  0.62575  0.44612  1.0000
