data_image0
_chemical_formula_structural       Cu2H28C28N12O14
_chemical_formula_sum              "Cu2 H28 C28 N12 O14"
_cell_length_a       7.26105
_cell_length_b       11.5678
_cell_length_c       11.8331
_cell_angle_alpha    119.262
_cell_angle_beta     95.9255
_cell_angle_gamma    89.9993

_space_group_name_H-M_alt    "P 1"
_space_group_IT_number       1

loop_
  _space_group_symop_operation_xyz
  'x, y, z'

loop_
  _atom_site_type_symbol
  _atom_site_label
  _atom_site_symmetry_multiplicity
  _atom_site_fract_x
  _atom_site_fract_y
  _atom_site_fract_z
  _atom_site_occupancy
  Cu  Cu1       1.0  0.50000  1.00000  0.00000  1.0000
  Cu  Cu2       1.0  1.00000  0.00000  0.00000  1.0000
  H   H1        1.0  0.52335  0.29566  0.17236  1.0000
  H   H2        1.0  0.97663  0.12331  0.82765  1.0000
  H   H3        1.0  0.47664  0.70434  0.82764  1.0000
  H   H4        1.0  0.02337  0.87669  0.17235  1.0000
  H   H5        1.0  0.64034  0.45448  0.40325  1.0000
  H   H6        1.0  0.85964  0.05123  0.59676  1.0000
  H   H7        1.0  0.35965  0.54552  0.59675  1.0000
  H   H8        1.0  0.14036  0.94877  0.40325  1.0000
  H   H9        1.0  0.73564  0.11645  0.46009  1.0000
  H   H10       1.0  0.76437  0.65636  0.53990  1.0000
  H   H11       1.0  0.26436  0.88355  0.53991  1.0000
  H   H12       1.0  0.23564  0.34364  0.46009  1.0000
  H   H13       1.0  0.61180  0.97194  0.22957  1.0000
  H   H14       1.0  0.88820  0.74238  0.77043  1.0000
  H   H15       1.0  0.38820  0.02806  0.77043  1.0000
  H   H16       1.0  0.11180  0.25762  0.22957  1.0000
  H   H17       1.0  0.06851  0.47435  0.78269  1.0000
  H   H18       1.0  0.43152  0.69165  0.21730  1.0000
  H   H19       1.0  0.93149  0.52565  0.21731  1.0000
  H   H20       1.0  0.56849  0.30835  0.78270  1.0000
  H   H21       1.0  0.97873  0.35753  0.82582  1.0000
  H   H22       1.0  0.52130  0.53170  0.17418  1.0000
  H   H23       1.0  0.02127  0.64247  0.17418  1.0000
  H   H24       1.0  0.47870  0.46830  0.82582  1.0000
  H   H25       1.0  0.84687  0.49476  0.83992  1.0000
  H   H26       1.0  0.65315  0.65484  0.16008  1.0000
  H   H27       1.0  0.15313  0.50524  0.16008  1.0000
  H   H28       1.0  0.34685  0.34516  0.83992  1.0000
  C   C1        1.0  0.57303  0.25984  0.23896  1.0000
  C   C2        1.0  0.92695  0.02088  0.76104  1.0000
  C   C3        1.0  0.42697  0.74016  0.76103  1.0000
  C   C4        1.0  0.07304  0.97912  0.23896  1.0000
  C   C5        1.0  0.63869  0.34824  0.36796  1.0000
  C   C6        1.0  0.86130  0.98029  0.63205  1.0000
  C   C7        1.0  0.36131  0.65176  0.63204  1.0000
  C   C8        1.0  0.13869  0.01971  0.36795  1.0000
  C   C9        1.0  0.70176  0.29859  0.45063  1.0000
  C   C10       1.0  0.79824  0.84796  0.54938  1.0000
  C   C11       1.0  0.29824  0.70141  0.54937  1.0000
  C   C12       1.0  0.20176  0.15204  0.45062  1.0000
  C   C13       1.0  0.69113  0.16132  0.40069  1.0000
  C   C14       1.0  0.80887  0.76063  0.59931  1.0000
  C   C15       1.0  0.30887  0.83868  0.59931  1.0000
  C   C16       1.0  0.19113  0.23937  0.40069  1.0000
  C   C17       1.0  0.62300  0.07906  0.27063  1.0000
  C   C18       1.0  0.87700  0.80843  0.72937  1.0000
  C   C19       1.0  0.37700  0.92094  0.72937  1.0000
  C   C20       1.0  0.12300  0.19157  0.27063  1.0000
  C   C21       1.0  0.77749  0.39414  0.58836  1.0000
  C   C22       1.0  0.72253  0.80578  0.41164  1.0000
  C   C23       1.0  0.22251  0.60586  0.41164  1.0000
  C   C24       1.0  0.27748  0.19422  0.58836  1.0000
  C   C25       1.0  0.94405  0.42190  0.78419  1.0000
  C   C26       1.0  0.55597  0.63771  0.21581  1.0000
  C   C27       1.0  0.05595  0.57810  0.21581  1.0000
  C   C28       1.0  0.44403  0.36229  0.78419  1.0000
  N   N1        1.0  0.74999  0.91332  1.00000  1.0000
  N   N2        1.0  0.25000  0.08668  0.00000  1.0000
  N   N3        1.0  0.75000  0.80802  1.00000  1.0000
  N   N4        1.0  0.25000  0.19198  0.00000  1.0000
  N   N5        1.0  0.75001  0.70764  0.00000  1.0000
  N   N6        1.0  0.24999  0.29235  1.00000  1.0000
  N   N7        1.0  0.25001  0.75978  1.00000  1.0000
  N   N8        1.0  0.74999  0.24022  0.00000  1.0000
  N   N9        1.0  0.56731  0.12753  0.19067  1.0000
  N   N10       1.0  0.93269  0.93687  0.80934  1.0000
  N   N11       1.0  0.43269  0.87247  0.80933  1.0000
  N   N12       1.0  0.06731  0.06313  0.19066  1.0000
  O   O1        1.0  0.12187  0.78176  0.93161  1.0000
  O   O2        1.0  0.37815  0.85014  0.06838  1.0000
  O   O3        1.0  0.87813  0.21824  0.06839  1.0000
  O   O4        1.0  0.62185  0.14986  0.93162  1.0000
  O   O5        1.0  0.25000  0.65139  0.00000  1.0000
  O   O6        1.0  0.75000  0.34861  1.00000  1.0000
  O   O7        1.0  0.76657  0.51453  0.63714  1.0000
  O   O8        1.0  0.73344  0.87740  0.36287  1.0000
  O   O9        1.0  0.23343  0.48547  0.36286  1.0000
  O   O10       1.0  0.26656  0.12261  0.63713  1.0000
  O   O11       1.0  0.85957  0.33358  0.65080  1.0000
  O   O12       1.0  0.64046  0.68277  0.34919  1.0000
  O   O13       1.0  0.14043  0.66642  0.34919  1.0000
  O   O14       1.0  0.35955  0.31723  0.65081  1.0000
