data_image0
_chemical_formula_structural       Cs8H12C28N4O20
_chemical_formula_sum              "Cs8 H12 C28 N4 O20"
_cell_length_a       4.08816
_cell_length_b       15.2244
_cell_length_c       16.9137
_cell_angle_alpha    90.0002
_cell_angle_beta     90.0012
_cell_angle_gamma    91.2565

_space_group_name_H-M_alt    "P 1"
_space_group_IT_number       1

loop_
  _space_group_symop_operation_xyz
  'x, y, z'

loop_
  _atom_site_type_symbol
  _atom_site_label
  _atom_site_symmetry_multiplicity
  _atom_site_fract_x
  _atom_site_fract_y
  _atom_site_fract_z
  _atom_site_occupancy
  Cs  Cs1       1.0  0.63365  0.40463  0.69279  1.0000
  Cs  Cs2       1.0  0.13363  0.90463  0.80721  1.0000
  Cs  Cs3       1.0  0.36634  0.59538  0.30721  1.0000
  Cs  Cs4       1.0  0.86636  0.09537  0.19279  1.0000
  Cs  Cs5       1.0  0.57308  0.56779  0.88653  1.0000
  Cs  Cs6       1.0  0.07308  0.06779  0.61347  1.0000
  Cs  Cs7       1.0  0.42693  0.43221  0.11347  1.0000
  Cs  Cs8       1.0  0.92692  0.93221  0.38653  1.0000
  H   H1        1.0  0.76126  0.77365  0.69078  1.0000
  H   H2        1.0  0.26124  0.27365  0.80922  1.0000
  H   H3        1.0  0.23876  0.22635  0.30922  1.0000
  H   H4        1.0  0.73876  0.72635  0.19078  1.0000
  H   H5        1.0  0.09355  0.55195  0.57245  1.0000
  H   H6        1.0  0.59351  0.05195  0.92755  1.0000
  H   H7        1.0  0.90646  0.44806  0.42754  1.0000
  H   H8        1.0  0.40648  0.94805  0.07245  1.0000
  H   H9        1.0  0.56792  0.75696  0.44925  1.0000
  H   H10       1.0  0.06790  0.25696  0.05075  1.0000
  H   H11       1.0  0.43207  0.24304  0.55075  1.0000
  H   H12       1.0  0.93210  0.74304  0.94925  1.0000
  C   C1        1.0  0.93910  0.66220  0.64033  1.0000
  C   C2        1.0  0.43908  0.16220  0.85968  1.0000
  C   C3        1.0  0.06089  0.33780  0.35967  1.0000
  C   C4        1.0  0.56092  0.83780  0.14032  1.0000
  C   C5        1.0  0.06487  0.63584  0.72152  1.0000
  C   C6        1.0  0.56486  0.13583  0.77849  1.0000
  C   C7        1.0  0.93513  0.36416  0.27848  1.0000
  C   C8        1.0  0.43514  0.86416  0.22151  1.0000
  C   C9        1.0  0.97136  0.61491  0.57176  1.0000
  C   C10       1.0  0.47134  0.11491  0.92825  1.0000
  C   C11       1.0  0.02864  0.38508  0.42824  1.0000
  C   C12       1.0  0.52867  0.88509  0.07175  1.0000
  C   C13       1.0  0.84445  0.64751  0.49783  1.0000
  C   C14       1.0  0.34442  0.14751  0.00217  1.0000
  C   C15       1.0  0.15554  0.35249  0.50217  1.0000
  C   C16       1.0  0.65558  0.85249  0.99783  1.0000
  C   C17       1.0  0.67781  0.72993  0.50236  1.0000
  C   C18       1.0  0.17779  0.22992  0.99764  1.0000
  C   C19       1.0  0.32218  0.27007  0.49764  1.0000
  C   C20       1.0  0.82222  0.77008  0.00236  1.0000
  C   C21       1.0  0.65386  0.77477  0.57234  1.0000
  C   C22       1.0  0.15383  0.27476  0.92766  1.0000
  C   C23       1.0  0.34615  0.22524  0.42766  1.0000
  C   C24       1.0  0.84617  0.72524  0.07234  1.0000
  C   C25       1.0  0.49628  0.86350  0.58262  1.0000
  C   C26       1.0  0.99626  0.36350  0.91738  1.0000
  C   C27       1.0  0.50373  0.13650  0.41738  1.0000
  C   C28       1.0  0.00375  0.63650  0.08261  1.0000
  N   N1        1.0  0.78387  0.74020  0.63882  1.0000
  N   N2        1.0  0.28384  0.24020  0.86119  1.0000
  N   N3        1.0  0.21615  0.25980  0.36118  1.0000
  N   N4        1.0  0.71617  0.75980  0.13881  1.0000
  O   O1        1.0  0.03278  0.69238  0.77634  1.0000
  O   O2        1.0  0.53274  0.19237  0.72366  1.0000
  O   O3        1.0  0.96721  0.30763  0.22366  1.0000
  O   O4        1.0  0.46725  0.80761  0.27634  1.0000
  O   O5        1.0  0.18386  0.56011  0.72803  1.0000
  O   O6        1.0  0.68386  0.06011  0.77198  1.0000
  O   O7        1.0  0.81614  0.43990  0.27197  1.0000
  O   O8        1.0  0.31614  0.93988  0.22803  1.0000
  O   O9        1.0  0.87831  0.60680  0.43265  1.0000
  O   O10       1.0  0.37830  0.10680  0.06735  1.0000
  O   O11       1.0  0.12167  0.39320  0.56735  1.0000
  O   O12       1.0  0.62169  0.89320  0.93265  1.0000
  O   O13       1.0  0.51246  0.89624  0.65179  1.0000
  O   O14       1.0  0.01244  0.39623  0.84821  1.0000
  O   O15       1.0  0.48755  0.10376  0.34820  1.0000
  O   O16       1.0  0.98756  0.60377  0.15179  1.0000
  O   O17       1.0  0.36916  0.89755  0.52211  1.0000
  O   O18       1.0  0.86915  0.39755  0.97789  1.0000
  O   O19       1.0  0.63084  0.10245  0.47789  1.0000
  O   O20       1.0  0.13084  0.60245  0.02210  1.0000
