data_image0
_chemical_formula_structural       Cs8H24C48N8O16
_chemical_formula_sum              "Cs8 H24 C48 N8 O16"
_cell_length_a       7.57919
_cell_length_b       12.0101
_cell_length_c       17.1949
_cell_angle_alpha    90
_cell_angle_beta     90
_cell_angle_gamma    90

_space_group_name_H-M_alt    "P 1"
_space_group_IT_number       1

loop_
  _space_group_symop_operation_xyz
  'x, y, z'

loop_
  _atom_site_type_symbol
  _atom_site_label
  _atom_site_symmetry_multiplicity
  _atom_site_fract_x
  _atom_site_fract_y
  _atom_site_fract_z
  _atom_site_occupancy
  Cs  Cs1       1.0  0.93361  0.10376  0.88908  1.0000
  Cs  Cs2       1.0  0.43361  0.89623  0.88908  1.0000
  Cs  Cs3       1.0  0.06639  0.60377  0.38908  1.0000
  Cs  Cs4       1.0  0.43361  0.60376  0.61092  1.0000
  Cs  Cs5       1.0  0.06639  0.89623  0.11092  1.0000
  Cs  Cs6       1.0  0.56639  0.10377  0.11093  1.0000
  Cs  Cs7       1.0  0.93361  0.39623  0.61093  1.0000
  Cs  Cs8       1.0  0.56639  0.39623  0.38907  1.0000
  H   H1        1.0  0.02092  0.63621  0.96798  1.0000
  H   H2        1.0  0.52092  0.36378  0.96798  1.0000
  H   H3        1.0  0.97907  0.13622  0.46798  1.0000
  H   H4        1.0  0.52093  0.13622  0.53202  1.0000
  H   H5        1.0  0.97907  0.36378  0.03201  1.0000
  H   H6        1.0  0.47908  0.63622  0.03202  1.0000
  H   H7        1.0  0.02092  0.86378  0.53202  1.0000
  H   H8        1.0  0.47907  0.86378  0.46798  1.0000
  H   H9        1.0  0.14448  0.45516  0.91690  1.0000
  H   H10       1.0  0.64449  0.54483  0.91690  1.0000
  H   H11       1.0  0.85550  0.95516  0.41690  1.0000
  H   H12       1.0  0.64450  0.95517  0.58310  1.0000
  H   H13       1.0  0.85550  0.54482  0.08310  1.0000
  H   H14       1.0  0.35551  0.45518  0.08310  1.0000
  H   H15       1.0  0.14449  0.04483  0.58310  1.0000
  H   H16       1.0  0.35551  0.04483  0.41690  1.0000
  H   H17       1.0  0.22434  0.44376  0.77516  1.0000
  H   H18       1.0  0.72434  0.55623  0.77516  1.0000
  H   H19       1.0  0.77565  0.94376  0.27516  1.0000
  H   H20       1.0  0.72435  0.94377  0.72484  1.0000
  H   H21       1.0  0.77565  0.55623  0.22484  1.0000
  H   H22       1.0  0.27565  0.44377  0.22484  1.0000
  H   H23       1.0  0.22435  0.05623  0.72484  1.0000
  H   H24       1.0  0.27566  0.05623  0.27516  1.0000
  C   C1        1.0  0.08365  0.70256  0.77808  1.0000
  C   C2        1.0  0.58365  0.29744  0.77808  1.0000
  C   C3        1.0  0.91635  0.20256  0.27808  1.0000
  C   C4        1.0  0.58365  0.20256  0.72192  1.0000
  C   C5        1.0  0.91635  0.29744  0.22193  1.0000
  C   C6        1.0  0.41635  0.70257  0.22192  1.0000
  C   C7        1.0  0.08365  0.79744  0.72192  1.0000
  C   C8        1.0  0.41635  0.79744  0.27808  1.0000
  C   C9        1.0  0.03028  0.71596  0.85599  1.0000
  C   C10       1.0  0.53027  0.28404  0.85599  1.0000
  C   C11       1.0  0.96973  0.21597  0.35599  1.0000
  C   C12       1.0  0.53027  0.21596  0.64401  1.0000
  C   C13       1.0  0.96972  0.28404  0.14401  1.0000
  C   C14       1.0  0.46972  0.71596  0.14401  1.0000
  C   C15       1.0  0.03027  0.78403  0.64401  1.0000
  C   C16       1.0  0.46973  0.78403  0.35599  1.0000
  C   C17       1.0  0.94860  0.82233  0.88607  1.0000
  C   C18       1.0  0.44860  0.17767  0.88607  1.0000
  C   C19       1.0  0.05140  0.32233  0.38607  1.0000
  C   C20       1.0  0.44860  0.32234  0.61393  1.0000
  C   C21       1.0  0.05140  0.17766  0.11393  1.0000
  C   C22       1.0  0.55141  0.82234  0.11393  1.0000
  C   C23       1.0  0.94860  0.67767  0.61393  1.0000
  C   C24       1.0  0.55139  0.67767  0.38607  1.0000
  C   C25       1.0  0.05529  0.62621  0.90671  1.0000
  C   C26       1.0  0.55529  0.37379  0.90672  1.0000
  C   C27       1.0  0.94471  0.12623  0.40672  1.0000
  C   C28       1.0  0.55529  0.12621  0.59328  1.0000
  C   C29       1.0  0.94471  0.37378  0.09328  1.0000
  C   C30       1.0  0.44471  0.62621  0.09328  1.0000
  C   C31       1.0  0.05529  0.87378  0.59328  1.0000
  C   C32       1.0  0.44471  0.87378  0.40672  1.0000
  C   C33       1.0  0.12403  0.52652  0.87875  1.0000
  C   C34       1.0  0.62403  0.47348  0.87875  1.0000
  C   C35       1.0  0.87597  0.02653  0.37876  1.0000
  C   C36       1.0  0.62404  0.02653  0.62125  1.0000
  C   C37       1.0  0.87596  0.47348  0.12125  1.0000
  C   C38       1.0  0.37596  0.52652  0.12124  1.0000
  C   C39       1.0  0.12403  0.97348  0.62124  1.0000
  C   C40       1.0  0.37597  0.97347  0.37875  1.0000
  C   C41       1.0  0.16905  0.51996  0.80013  1.0000
  C   C42       1.0  0.66905  0.48004  0.80014  1.0000
  C   C43       1.0  0.83095  0.01996  0.30014  1.0000
  C   C44       1.0  0.66906  0.01996  0.69986  1.0000
  C   C45       1.0  0.83095  0.48004  0.19986  1.0000
  C   C46       1.0  0.33094  0.51996  0.19986  1.0000
  C   C47       1.0  0.16906  0.98004  0.69986  1.0000
  C   C48       1.0  0.33095  0.98004  0.30014  1.0000
  N   N1        1.0  0.15123  0.60617  0.75117  1.0000
  N   N2        1.0  0.65123  0.39383  0.75118  1.0000
  N   N3        1.0  0.84877  0.10617  0.25117  1.0000
  N   N4        1.0  0.65123  0.10617  0.74883  1.0000
  N   N5        1.0  0.84877  0.39383  0.24882  1.0000
  N   N6        1.0  0.34877  0.60617  0.24882  1.0000
  N   N7        1.0  0.15123  0.89383  0.74883  1.0000
  N   N8        1.0  0.34877  0.89383  0.25117  1.0000
  O   O1        1.0  0.80982  0.85628  0.85282  1.0000
  O   O2        1.0  0.30981  0.14371  0.85282  1.0000
  O   O3        1.0  0.19017  0.35629  0.35283  1.0000
  O   O4        1.0  0.30980  0.35629  0.64718  1.0000
  O   O5        1.0  0.19020  0.14372  0.14718  1.0000
  O   O6        1.0  0.69020  0.85629  0.14719  1.0000
  O   O7        1.0  0.80981  0.64371  0.64718  1.0000
  O   O8        1.0  0.69019  0.64371  0.35282  1.0000
  O   O9        1.0  0.02711  0.86750  0.94329  1.0000
  O   O10       1.0  0.52712  0.13249  0.94329  1.0000
  O   O11       1.0  0.97288  0.36751  0.44329  1.0000
  O   O12       1.0  0.52711  0.36750  0.55671  1.0000
  O   O13       1.0  0.97290  0.13249  0.05671  1.0000
  O   O14       1.0  0.47290  0.86751  0.05671  1.0000
  O   O15       1.0  0.02711  0.63249  0.55671  1.0000
  O   O16       1.0  0.47290  0.63249  0.44329  1.0000
