data_image0
_chemical_formula_structural       Zn4H40C20N4Cl4O20
_chemical_formula_sum              "Zn4 H40 C20 N4 Cl4 O20"
_cell_length_a       6.01214
_cell_length_b       8.35992
_cell_length_c       17.7224
_cell_angle_alpha    90.0004
_cell_angle_beta     89.9997
_cell_angle_gamma    105.475

_space_group_name_H-M_alt    "P 1"
_space_group_IT_number       1

loop_
  _space_group_symop_operation_xyz
  'x, y, z'

loop_
  _atom_site_type_symbol
  _atom_site_label
  _atom_site_symmetry_multiplicity
  _atom_site_fract_x
  _atom_site_fract_y
  _atom_site_fract_z
  _atom_site_occupancy
  Zn  Zn1       1.0  0.00862  0.83491  0.64425  1.0000
  Zn  Zn2       1.0  0.99138  0.66510  0.14424  1.0000
  Zn  Zn3       1.0  0.99139  0.16511  0.35575  1.0000
  Zn  Zn4       1.0  0.00861  0.33489  0.85575  1.0000
  H   H1        1.0  0.10095  0.32597  0.60235  1.0000
  H   H2        1.0  0.89906  0.17403  0.10235  1.0000
  H   H3        1.0  0.89906  0.67405  0.39765  1.0000
  H   H4        1.0  0.10093  0.82594  0.89765  1.0000
  H   H5        1.0  0.25306  0.42665  0.52418  1.0000
  H   H6        1.0  0.74695  0.07335  0.02417  1.0000
  H   H7        1.0  0.74696  0.57337  0.47582  1.0000
  H   H8        1.0  0.25302  0.92662  0.97583  1.0000
  H   H9        1.0  0.62129  0.50395  0.60611  1.0000
  H   H10       1.0  0.37872  0.99605  0.10610  1.0000
  H   H11       1.0  0.37873  0.49606  0.39389  1.0000
  H   H12       1.0  0.62125  0.00394  0.89390  1.0000
  H   H13       1.0  0.56774  0.26751  0.52240  1.0000
  H   H14       1.0  0.43226  0.23248  0.02240  1.0000
  H   H15       1.0  0.43226  0.73250  0.47760  1.0000
  H   H16       1.0  0.56773  0.76749  0.97760  1.0000
  H   H17       1.0  0.68445  0.22415  0.60912  1.0000
  H   H18       1.0  0.31555  0.27584  0.10912  1.0000
  H   H19       1.0  0.31555  0.77586  0.39088  1.0000
  H   H20       1.0  0.68445  0.72415  0.89088  1.0000
  H   H21       1.0  0.44825  0.49221  0.72506  1.0000
  H   H22       1.0  0.55175  0.00779  0.22505  1.0000
  H   H23       1.0  0.55174  0.50779  0.27495  1.0000
  H   H24       1.0  0.44826  0.99222  0.77495  1.0000
  H   H25       1.0  0.32023  0.28729  0.71841  1.0000
  H   H26       1.0  0.67978  0.21271  0.21840  1.0000
  H   H27       1.0  0.67978  0.71272  0.28159  1.0000
  H   H28       1.0  0.32022  0.78729  0.78159  1.0000
  H   H29       1.0  0.73462  0.93288  0.54728  1.0000
  H   H30       1.0  0.26538  0.56712  0.04728  1.0000
  H   H31       1.0  0.26539  0.06713  0.45272  1.0000
  H   H32       1.0  0.73462  0.43288  0.95271  1.0000
  H   H33       1.0  0.60845  0.35354  0.72245  1.0000
  H   H34       1.0  0.39156  0.14646  0.22244  1.0000
  H   H35       1.0  0.39156  0.64647  0.27756  1.0000
  H   H36       1.0  0.60844  0.85354  0.77756  1.0000
  H   H37       1.0  0.58762  0.82490  0.61813  1.0000
  H   H38       1.0  0.41238  0.67510  0.11812  1.0000
  H   H39       1.0  0.41239  0.17512  0.38188  1.0000
  H   H40       1.0  0.58760  0.32489  0.88188  1.0000
  C   C1        1.0  0.20956  0.58963  0.61261  1.0000
  C   C2        1.0  0.79045  0.91037  0.11260  1.0000
  C   C3        1.0  0.79044  0.41038  0.38739  1.0000
  C   C4        1.0  0.20953  0.08961  0.88740  1.0000
  C   C5        1.0  0.25169  0.42734  0.58627  1.0000
  C   C6        1.0  0.74832  0.07265  0.08627  1.0000
  C   C7        1.0  0.74833  0.57267  0.41373  1.0000
  C   C8        1.0  0.25165  0.92732  0.91373  1.0000
  C   C9        1.0  0.47380  0.39671  0.61712  1.0000
  C   C10       1.0  0.52621  0.10329  0.11711  1.0000
  C   C11       1.0  0.52620  0.60330  0.38289  1.0000
  C   C12       1.0  0.47379  0.89670  0.88289  1.0000
  C   C13       1.0  0.52894  0.24404  0.58240  1.0000
  C   C14       1.0  0.47107  0.25594  0.08240  1.0000
  C   C15       1.0  0.47106  0.75596  0.41760  1.0000
  C   C16       1.0  0.52893  0.74405  0.91760  1.0000
  C   C17       1.0  0.33769  0.08593  0.59177  1.0000
  C   C18       1.0  0.66231  0.41407  0.09177  1.0000
  C   C19       1.0  0.66232  0.91408  0.40823  1.0000
  C   C20       1.0  0.33768  0.58591  0.90823  1.0000
  N   N1        1.0  0.46081  0.38184  0.70159  1.0000
  N   N2        1.0  0.53920  0.11816  0.20158  1.0000
  N   N3        1.0  0.53919  0.61816  0.29842  1.0000
  N   N4        1.0  0.46080  0.88184  0.79842  1.0000
  Cl  Cl1       1.0  0.88383  0.73396  0.76074  1.0000
  Cl  Cl2       1.0  0.11617  0.76605  0.26074  1.0000
  Cl  Cl3       1.0  0.11618  0.26605  0.23926  1.0000
  Cl  Cl4       1.0  0.88383  0.23395  0.73926  1.0000
  O   O1        1.0  0.02464  0.62340  0.59040  1.0000
  O   O2        1.0  0.97539  0.87661  0.09040  1.0000
  O   O3        1.0  0.97538  0.37661  0.40960  1.0000
  O   O4        1.0  0.02459  0.12337  0.90960  1.0000
  O   O5        1.0  0.73753  0.90112  0.60261  1.0000
  O   O6        1.0  0.26247  0.59888  0.10260  1.0000
  O   O7        1.0  0.26248  0.09890  0.39740  1.0000
  O   O8        1.0  0.73752  0.40111  0.89739  1.0000
  O   O9        1.0  0.35686  0.68475  0.65528  1.0000
  O   O10       1.0  0.64316  0.81524  0.15526  1.0000
  O   O11       1.0  0.64316  0.31526  0.34473  1.0000
  O   O12       1.0  0.35682  0.18474  0.84474  1.0000
  O   O13       1.0  0.24487  0.00054  0.53575  1.0000
  O   O14       1.0  0.75514  0.49946  0.03574  1.0000
  O   O15       1.0  0.75516  0.99947  0.46426  1.0000
  O   O16       1.0  0.24486  0.50053  0.96425  1.0000
  O   O17       1.0  0.27171  0.04186  0.65974  1.0000
  O   O18       1.0  0.72830  0.45814  0.15973  1.0000
  O   O19       1.0  0.72830  0.95816  0.34027  1.0000
  O   O20       1.0  0.27171  0.54184  0.84026  1.0000
