data_image0
_chemical_formula_structural       Cu2H28C22N10Cl2O2
_chemical_formula_sum              "Cu2 H28 C22 N10 Cl2 O2"
_cell_length_a       6.68538
_cell_length_b       10.686
_cell_length_c       10.6859
_cell_angle_alpha    102.279
_cell_angle_beta     107.952
_cell_angle_gamma    107.951

_space_group_name_H-M_alt    "P 1"
_space_group_IT_number       1

loop_
  _space_group_symop_operation_xyz
  'x, y, z'

loop_
  _atom_site_type_symbol
  _atom_site_label
  _atom_site_symmetry_multiplicity
  _atom_site_fract_x
  _atom_site_fract_y
  _atom_site_fract_z
  _atom_site_occupancy
  Cu  Cu1       1.0  0.37971  0.86852  0.78608  1.0000
  Cu  Cu2       1.0  0.87971  0.78607  0.86851  1.0000
  H   H1        1.0  0.03922  0.85817  0.59998  1.0000
  H   H2        1.0  0.53922  0.59997  0.85816  1.0000
  H   H3        1.0  0.64105  0.83270  0.21138  1.0000
  H   H4        1.0  0.14105  0.21137  0.83269  1.0000
  H   H5        1.0  0.79887  0.02196  0.43705  1.0000
  H   H6        1.0  0.29887  0.43704  0.02195  1.0000
  H   H7        1.0  0.83338  0.32583  0.22729  1.0000
  H   H8        1.0  0.33337  0.22728  0.32582  1.0000
  H   H9        1.0  0.76519  0.26338  0.99310  1.0000
  H   H10       1.0  0.26519  0.99309  0.26338  1.0000
  H   H11       1.0  0.71017  0.09214  0.69346  1.0000
  H   H12       1.0  0.21017  0.69346  0.09214  1.0000
  H   H13       1.0  0.69558  0.24543  0.78492  1.0000
  H   H14       1.0  0.19556  0.78491  0.24542  1.0000
  H   H15       1.0  0.25438  0.12105  0.65764  1.0000
  H   H16       1.0  0.75437  0.65762  0.12104  1.0000
  H   H17       1.0  0.40820  0.16204  0.55358  1.0000
  H   H18       1.0  0.90820  0.55357  0.16203  1.0000
  H   H19       1.0  0.11716  0.93029  0.42535  1.0000
  H   H20       1.0  0.61716  0.42535  0.93028  1.0000
  H   H21       1.0  0.38772  0.91744  0.48490  1.0000
  H   H22       1.0  0.88773  0.48489  0.91743  1.0000
  H   H23       1.0  0.94787  0.68542  0.38781  1.0000
  H   H24       1.0  0.44788  0.38780  0.68541  1.0000
  H   H25       1.0  0.00654  0.62460  0.53226  1.0000
  H   H26       1.0  0.50655  0.53226  0.62459  1.0000
  H   H27       1.0  0.22013  0.67614  0.46492  1.0000
  H   H28       1.0  0.72014  0.46492  0.67613  1.0000
  C   C1        1.0  0.63713  0.96695  0.08562  1.0000
  C   C2        1.0  0.13712  0.08560  0.96694  1.0000
  C   C3        1.0  0.68272  0.94059  0.21437  1.0000
  C   C4        1.0  0.18272  0.21436  0.94059  1.0000
  C   C5        1.0  0.77235  0.04717  0.34118  1.0000
  C   C6        1.0  0.27234  0.34117  0.04716  1.0000
  C   C7        1.0  0.82438  0.18627  0.34556  1.0000
  C   C8        1.0  0.32438  0.34555  0.18627  1.0000
  C   C9        1.0  0.78910  0.21756  0.22352  1.0000
  C   C10       1.0  0.28909  0.22351  0.21755  1.0000
  C   C11       1.0  0.69506  0.11017  0.09290  1.0000
  C   C12       1.0  0.19505  0.09289  0.11017  1.0000
  C   C13       1.0  0.67681  0.15079  0.97153  1.0000
  C   C14       1.0  0.17681  0.97153  0.15079  1.0000
  C   C15       1.0  0.60148  0.13117  0.73585  1.0000
  C   C16       1.0  0.10147  0.73585  0.13117  1.0000
  C   C17       1.0  0.37376  0.09501  0.61622  1.0000
  C   C18       1.0  0.87377  0.61622  0.09500  1.0000
  C   C19       1.0  0.26233  0.94392  0.51932  1.0000
  C   C20       1.0  0.76234  0.51931  0.94391  1.0000
  C   C21       1.0  0.08217  0.69842  0.48621  1.0000
  C   C22       1.0  0.58218  0.48621  0.69841  1.0000
  N   N1        1.0  0.57441  0.06917  0.84188  1.0000
  N   N2        1.0  0.07440  0.84188  0.06916  1.0000
  N   N3        1.0  0.17590  0.84263  0.58479  1.0000
  N   N4        1.0  0.67590  0.58478  0.84263  1.0000
  N   N5        1.0  0.11371  0.70125  0.77258  1.0000
  N   N6        1.0  0.61370  0.77257  0.70125  1.0000
  N   N7        1.0  0.16177  0.61031  0.80525  1.0000
  N   N8        1.0  0.66175  0.80525  0.61030  1.0000
  N   N9        1.0  0.20508  0.51988  0.83676  1.0000
  N   N10       1.0  0.70506  0.83676  0.51987  1.0000
  Cl  Cl1       1.0  0.93498  0.31712  0.50714  1.0000
  Cl  Cl2       1.0  0.43497  0.50714  0.31711  1.0000
  O   O1        1.0  0.55157  0.86252  0.96894  1.0000
  O   O2        1.0  0.05155  0.96893  0.86251  1.0000
