data_image0
_chemical_formula_structural       Mn2H24C36N4O8
_chemical_formula_sum              "Mn2 H24 C36 N4 O8"
_cell_length_a       8.64535
_cell_length_b       9.96078
_cell_length_c       11.5818
_cell_angle_alpha    91.3795
_cell_angle_beta     112.607
_cell_angle_gamma    112.903

_space_group_name_H-M_alt    "P 1"
_space_group_IT_number       1

loop_
  _space_group_symop_operation_xyz
  'x, y, z'

loop_
  _atom_site_type_symbol
  _atom_site_label
  _atom_site_symmetry_multiplicity
  _atom_site_fract_x
  _atom_site_fract_y
  _atom_site_fract_z
  _atom_site_occupancy
  Mn  Mn1       1.0  0.49547  0.37872  0.35173  1.0000
  Mn  Mn2       1.0  0.50453  0.62127  0.64827  1.0000
  H   H1        1.0  0.48540  0.55190  0.14228  1.0000
  H   H2        1.0  0.51461  0.44808  0.85771  1.0000
  H   H3        1.0  0.29395  0.53812  0.91448  1.0000
  H   H4        1.0  0.70606  0.46187  0.08552  1.0000
  H   H5        1.0  0.83620  0.17654  0.94579  1.0000
  H   H6        1.0  0.16380  0.82350  0.05422  1.0000
  H   H7        1.0  0.05128  0.20530  0.17162  1.0000
  H   H8        1.0  0.94873  0.79473  0.82838  1.0000
  H   H9        1.0  0.11592  0.56314  0.76121  1.0000
  H   H10       1.0  0.88409  0.43687  0.23879  1.0000
  H   H11       1.0  0.90918  0.55022  0.54126  1.0000
  H   H12       1.0  0.09082  0.44977  0.45873  1.0000
  H   H13       1.0  0.51082  0.13772  0.52124  1.0000
  H   H14       1.0  0.48918  0.86231  0.47879  1.0000
  H   H15       1.0  0.70462  0.12505  0.73925  1.0000
  H   H16       1.0  0.29538  0.87498  0.26077  1.0000
  H   H17       1.0  0.43357  0.22016  0.95995  1.0000
  H   H18       1.0  0.56643  0.77980  0.04006  1.0000
  H   H19       1.0  0.57350  0.93620  0.21563  1.0000
  H   H20       1.0  0.42651  0.06378  0.78439  1.0000
  H   H21       1.0  0.86365  0.95092  0.65754  1.0000
  H   H22       1.0  0.13632  0.04907  0.34244  1.0000
  H   H23       1.0  0.89509  0.79425  0.32161  1.0000
  H   H24       1.0  0.10488  0.20574  0.67837  1.0000
  C   C1        1.0  0.34047  0.47039  0.09414  1.0000
  C   C2        1.0  0.65956  0.52961  0.90586  1.0000
  C   C3        1.0  0.23209  0.46219  0.96719  1.0000
  C   C4        1.0  0.76796  0.53783  0.03282  1.0000
  C   C5        1.0  0.04551  0.35561  0.90875  1.0000
  C   C6        1.0  0.95451  0.64441  0.09126  1.0000
  C   C7        1.0  0.97953  0.26103  0.98399  1.0000
  C   C8        1.0  0.02048  0.73899  0.01602  1.0000
  C   C9        1.0  0.09862  0.27679  0.11072  1.0000
  C   C10       1.0  0.90139  0.72322  0.88929  1.0000
  C   C11       1.0  0.92588  0.34811  0.77478  1.0000
  C   C12       1.0  0.07412  0.65191  0.22521  1.0000
  C   C13       1.0  0.98225  0.46624  0.71415  1.0000
  C   C14       1.0  0.01775  0.53378  0.28584  1.0000
  C   C15       1.0  0.86659  0.45993  0.58981  1.0000
  C   C16       1.0  0.13342  0.54008  0.41019  1.0000
  C   C17       1.0  0.64567  0.23017  0.57913  1.0000
  C   C18       1.0  0.35432  0.76984  0.42088  1.0000
  C   C19       1.0  0.75399  0.22570  0.70275  1.0000
  C   C20       1.0  0.24599  0.77431  0.29725  1.0000
  C   C21       1.0  0.46343  0.12382  0.97685  1.0000
  C   C22       1.0  0.53656  0.87616  0.02314  1.0000
  C   C23       1.0  0.50372  0.08766  0.09804  1.0000
  C   C24       1.0  0.49627  0.91233  0.90194  1.0000
  C   C25       1.0  0.54048  0.96326  0.12095  1.0000
  C   C26       1.0  0.45951  0.03673  0.87905  1.0000
  C   C27       1.0  0.50507  0.18208  0.20071  1.0000
  C   C28       1.0  0.49495  0.81790  0.79931  1.0000
  C   C29       1.0  0.92500  0.97357  0.58954  1.0000
  C   C30       1.0  0.07497  0.02643  0.41045  1.0000
  C   C31       1.0  0.86575  0.85821  0.48823  1.0000
  C   C32       1.0  0.13422  0.14179  0.51175  1.0000
  C   C33       1.0  0.94136  0.88547  0.39879  1.0000
  C   C34       1.0  0.05861  0.11452  0.60120  1.0000
  C   C35       1.0  0.72758  0.70582  0.47905  1.0000
  C   C36       1.0  0.27239  0.29416  0.52093  1.0000
  N   N1        1.0  0.27650  0.37978  0.16598  1.0000
  N   N2        1.0  0.72352  0.62023  0.83401  1.0000
  N   N3        1.0  0.69824  0.34600  0.52286  1.0000
  N   N4        1.0  0.30177  0.65401  0.47716  1.0000
  O   O1        1.0  0.41352  0.12263  0.26374  1.0000
  O   O2        1.0  0.58649  0.87735  0.73628  1.0000
  O   O3        1.0  0.59691  0.32360  0.21861  1.0000
  O   O4        1.0  0.40310  0.67638  0.78139  1.0000
  O   O5        1.0  0.65105  0.61011  0.37546  1.0000
  O   O6        1.0  0.34892  0.38988  0.62453  1.0000
  O   O7        1.0  0.69967  0.67842  0.57808  1.0000
  O   O8        1.0  0.30031  0.32157  0.42191  1.0000
