data_image0
_chemical_formula_structural       Mn2H32C36N4O12
_chemical_formula_sum              "Mn2 H32 C36 N4 O12"
_cell_length_a       7.45003
_cell_length_b       10.2344
_cell_length_c       11.5647
_cell_angle_alpha    90.0036
_cell_angle_beta     89.999
_cell_angle_gamma    91.4351

_space_group_name_H-M_alt    "P 1"
_space_group_IT_number       1

loop_
  _space_group_symop_operation_xyz
  'x, y, z'

loop_
  _atom_site_type_symbol
  _atom_site_label
  _atom_site_symmetry_multiplicity
  _atom_site_fract_x
  _atom_site_fract_y
  _atom_site_fract_z
  _atom_site_occupancy
  Mn  Mn1       1.0  0.75002  0.74998  0.71939  1.0000
  Mn  Mn2       1.0  0.24998  0.25001  0.28061  1.0000
  H   H1        1.0  0.05910  0.54883  0.93531  1.0000
  H   H2        1.0  0.44089  0.95115  0.93530  1.0000
  H   H3        1.0  0.94090  0.45118  0.06472  1.0000
  H   H4        1.0  0.55913  0.04886  0.06467  1.0000
  H   H5        1.0  0.15746  0.64559  0.12298  1.0000
  H   H6        1.0  0.34250  0.85444  0.12298  1.0000
  H   H7        1.0  0.84255  0.35447  0.87703  1.0000
  H   H8        1.0  0.65751  0.14560  0.87701  1.0000
  H   H9        1.0  0.61503  0.57166  0.92017  1.0000
  H   H10       1.0  0.88498  0.92832  0.92018  1.0000
  H   H11       1.0  0.38496  0.42833  0.07983  1.0000
  H   H12       1.0  0.11501  0.07167  0.07982  1.0000
  H   H13       1.0  0.60141  0.56659  0.13755  1.0000
  H   H14       1.0  0.89856  0.93341  0.13756  1.0000
  H   H15       1.0  0.39856  0.43340  0.86246  1.0000
  H   H16       1.0  0.10141  0.06659  0.86243  1.0000
  H   H17       1.0  0.03872  0.77098  0.29946  1.0000
  H   H18       1.0  0.46127  0.72902  0.29948  1.0000
  H   H19       1.0  0.96127  0.22902  0.70053  1.0000
  H   H20       1.0  0.53873  0.27098  0.70052  1.0000
  H   H21       1.0  0.02802  0.76533  0.51565  1.0000
  H   H22       1.0  0.47200  0.73464  0.51566  1.0000
  H   H23       1.0  0.97198  0.23466  0.48435  1.0000
  H   H24       1.0  0.52800  0.26536  0.48434  1.0000
  H   H25       1.0  0.05686  0.92116  0.68592  1.0000
  H   H26       1.0  0.44318  0.57879  0.68591  1.0000
  H   H27       1.0  0.94315  0.07881  0.31408  1.0000
  H   H28       1.0  0.55682  0.42121  0.31410  1.0000
  H   H29       1.0  0.86610  0.98647  0.65743  1.0000
  H   H30       1.0  0.63394  0.51350  0.65741  1.0000
  H   H31       1.0  0.13392  0.01353  0.34258  1.0000
  H   H32       1.0  0.36606  0.48649  0.34259  1.0000
  C   C1        1.0  0.13242  0.62855  0.72057  1.0000
  C   C2        1.0  0.36764  0.87140  0.72059  1.0000
  C   C3        1.0  0.86759  0.37145  0.27943  1.0000
  C   C4        1.0  0.63237  0.12859  0.27941  1.0000
  C   C5        1.0  0.19486  0.69326  0.83133  1.0000
  C   C6        1.0  0.30520  0.80668  0.83134  1.0000
  C   C7        1.0  0.80515  0.30674  0.16867  1.0000
  C   C8        1.0  0.69481  0.19332  0.16865  1.0000
  C   C9        1.0  0.14362  0.63704  0.93708  1.0000
  C   C10       1.0  0.35639  0.86294  0.93708  1.0000
  C   C11       1.0  0.85639  0.36298  0.06293  1.0000
  C   C12       1.0  0.64362  0.13708  0.06291  1.0000
  C   C13       1.0  0.19786  0.69225  0.04189  1.0000
  C   C14       1.0  0.30212  0.80776  0.04189  1.0000
  C   C15       1.0  0.80216  0.30779  0.95812  1.0000
  C   C16       1.0  0.69789  0.19226  0.95811  1.0000
  C   C17       1.0  0.67347  0.65057  0.97220  1.0000
  C   C18       1.0  0.82652  0.84942  0.97221  1.0000
  C   C19       1.0  0.32650  0.34942  0.02780  1.0000
  C   C20       1.0  0.17347  0.15057  0.02779  1.0000
  C   C21       1.0  0.66717  0.64791  0.09225  1.0000
  C   C22       1.0  0.83280  0.85209  0.09225  1.0000
  C   C23       1.0  0.33280  0.35209  0.90775  1.0000
  C   C24       1.0  0.16718  0.14791  0.90775  1.0000
  C   C25       1.0  0.74999  0.75000  0.15456  1.0000
  C   C26       1.0  0.25000  0.25000  0.84545  1.0000
  C   C27       1.0  0.75000  0.75000  0.28215  1.0000
  C   C28       1.0  0.25000  0.25000  0.71785  1.0000
  C   C29       1.0  0.91050  0.76222  0.34446  1.0000
  C   C30       1.0  0.58952  0.73777  0.34447  1.0000
  C   C31       1.0  0.08950  0.23778  0.65555  1.0000
  C   C32       1.0  0.41048  0.26223  0.65554  1.0000
  C   C33       1.0  0.90496  0.75968  0.46452  1.0000
  C   C34       1.0  0.59505  0.74030  0.46454  1.0000
  C   C35       1.0  0.09504  0.24032  0.53547  1.0000
  C   C36       1.0  0.40495  0.25970  0.53547  1.0000
  N   N1        1.0  0.75001  0.74998  0.52390  1.0000
  N   N2        1.0  0.24999  0.25001  0.47610  1.0000
  N   N3        1.0  0.75000  0.74999  0.91251  1.0000
  N   N4        1.0  0.24998  0.25000  0.08749  1.0000
  O   O1        1.0  0.96314  0.61383  0.70682  1.0000
  O   O2        1.0  0.53692  0.88614  0.70683  1.0000
  O   O3        1.0  0.03687  0.38616  0.29319  1.0000
  O   O4        1.0  0.46309  0.11385  0.29317  1.0000
  O   O5        1.0  0.24891  0.59041  0.64895  1.0000
  O   O6        1.0  0.25114  0.90953  0.64897  1.0000
  O   O7        1.0  0.75109  0.40958  0.35106  1.0000
  O   O8        1.0  0.74887  0.09045  0.35102  1.0000
  O   O9        1.0  0.92472  0.92963  0.71247  1.0000
  O   O10       1.0  0.57531  0.57033  0.71246  1.0000
  O   O11       1.0  0.07529  0.07035  0.28753  1.0000
  O   O12       1.0  0.42469  0.42966  0.28754  1.0000
