data_image0
_chemical_formula_structural       Cd2H28C24N4Cl4
_chemical_formula_sum              "Cd2 H28 C24 N4 Cl4"
_cell_length_a       3.89256
_cell_length_b       10.5388
_cell_length_c       16.5131
_cell_angle_alpha    79.8624
_cell_angle_beta     83.1248
_cell_angle_gamma    79.416

_space_group_name_H-M_alt    "P 1"
_space_group_IT_number       1

loop_
  _space_group_symop_operation_xyz
  'x, y, z'

loop_
  _atom_site_type_symbol
  _atom_site_label
  _atom_site_symmetry_multiplicity
  _atom_site_fract_x
  _atom_site_fract_y
  _atom_site_fract_z
  _atom_site_occupancy
  Cd  Cd1       1.0  0.93140  0.24963  0.74945  1.0000
  Cd  Cd2       1.0  0.06862  0.75037  0.25055  1.0000
  H   H1        1.0  0.35474  0.96708  0.72266  1.0000
  H   H2        1.0  0.04788  0.53160  0.77625  1.0000
  H   H3        1.0  0.64528  0.03291  0.27734  1.0000
  H   H4        1.0  0.95213  0.46841  0.22375  1.0000
  H   H5        1.0  0.49217  0.73715  0.79556  1.0000
  H   H6        1.0  0.02640  0.76209  0.70405  1.0000
  H   H7        1.0  0.50780  0.26285  0.20444  1.0000
  H   H8        1.0  0.97360  0.23792  0.29594  1.0000
  H   H9        1.0  0.80210  0.85325  0.00321  1.0000
  H   H10       1.0  0.65520  0.64755  0.49686  1.0000
  H   H11       1.0  0.19790  0.14675  0.99679  1.0000
  H   H12       1.0  0.34478  0.35245  0.50314  1.0000
  H   H13       1.0  0.68640  0.07922  0.92057  1.0000
  H   H14       1.0  0.68532  0.42087  0.57873  1.0000
  H   H15       1.0  0.31365  0.92078  0.07943  1.0000
  H   H16       1.0  0.31468  0.57913  0.42127  1.0000
  H   H17       1.0  0.05905  0.62284  0.00691  1.0000
  H   H18       1.0  0.68892  0.87747  0.49321  1.0000
  H   H19       1.0  0.94093  0.37716  0.99309  1.0000
  H   H20       1.0  0.31106  0.12252  0.50679  1.0000
  H   H21       1.0  0.27655  0.56565  0.91440  1.0000
  H   H22       1.0  0.75138  0.93443  0.58611  1.0000
  H   H23       1.0  0.72344  0.43435  0.08560  1.0000
  H   H24       1.0  0.24861  0.06557  0.41389  1.0000
  H   H25       1.0  0.50463  0.63225  0.97895  1.0000
  H   H26       1.0  0.11396  0.86921  0.52184  1.0000
  H   H27       1.0  0.49535  0.36775  0.02106  1.0000
  H   H28       1.0  0.88603  0.13079  0.47815  1.0000
  C   C1        1.0  0.23495  0.93696  0.78468  1.0000
  C   C2        1.0  0.95850  0.56218  0.71453  1.0000
  C   C3        1.0  0.76505  0.06303  0.21533  1.0000
  C   C4        1.0  0.04151  0.43783  0.28547  1.0000
  C   C5        1.0  0.31094  0.80978  0.82593  1.0000
  C   C6        1.0  0.94732  0.68966  0.67368  1.0000
  C   C7        1.0  0.68906  0.19021  0.17408  1.0000
  C   C8        1.0  0.05268  0.31034  0.32632  1.0000
  C   C9        1.0  0.15952  0.77586  0.90636  1.0000
  C   C10       1.0  0.84034  0.72423  0.59356  1.0000
  C   C11       1.0  0.84048  0.22414  0.09364  1.0000
  C   C12       1.0  0.15966  0.27577  0.40644  1.0000
  C   C13       1.0  0.92897  0.87472  0.94092  1.0000
  C   C14       1.0  0.74256  0.62561  0.55891  1.0000
  C   C15       1.0  0.07104  0.12529  0.05908  1.0000
  C   C16       1.0  0.25743  0.37439  0.44109  1.0000
  C   C17       1.0  0.86501  0.99986  0.89573  1.0000
  C   C18       1.0  0.76006  0.50006  0.60365  1.0000
  C   C19       1.0  0.13501  0.00015  0.10427  1.0000
  C   C20       1.0  0.23994  0.49994  0.39635  1.0000
  C   C21       1.0  0.25061  0.64150  0.95375  1.0000
  C   C22       1.0  0.84372  0.85894  0.54661  1.0000
  C   C23       1.0  0.74938  0.35849  0.04625  1.0000
  C   C24       1.0  0.15627  0.14106  0.45338  1.0000
  N   N1        1.0  0.01592  0.03155  0.81897  1.0000
  N   N2        1.0  0.86778  0.46780  0.68011  1.0000
  N   N3        1.0  0.98409  0.96845  0.18103  1.0000
  N   N4        1.0  0.13223  0.53220  0.31988  1.0000
  Cl  Cl1       1.0  0.35497  0.30870  0.85131  1.0000
  Cl  Cl2       1.0  0.51778  0.19034  0.64771  1.0000
  Cl  Cl3       1.0  0.64505  0.69130  0.14869  1.0000
  Cl  Cl4       1.0  0.48224  0.80966  0.35229  1.0000
