data_image0
_chemical_formula_structural       Cd2H28C24N4Cl4
_chemical_formula_sum              "Cd2 H28 C24 N4 Cl4"
_cell_length_a       3.88916
_cell_length_b       11.2724
_cell_length_c       14.683
_cell_angle_alpha    90.0001
_cell_angle_beta     90.0001
_cell_angle_gamma    88.1774

_space_group_name_H-M_alt    "P 1"
_space_group_IT_number       1

loop_
  _space_group_symop_operation_xyz
  'x, y, z'

loop_
  _atom_site_type_symbol
  _atom_site_label
  _atom_site_symmetry_multiplicity
  _atom_site_fract_x
  _atom_site_fract_y
  _atom_site_fract_z
  _atom_site_occupancy
  Cd  Cd1       1.0  1.00000  0.00000  1.00000  1.0000
  Cd  Cd2       1.0  0.00000  0.50000  0.50000  1.0000
  H   H1        1.0  0.74062  0.90811  0.80435  1.0000
  H   H2        1.0  0.25937  0.59189  0.30435  1.0000
  H   H3        1.0  0.25936  0.09190  0.19565  1.0000
  H   H4        1.0  0.74064  0.40811  0.69565  1.0000
  H   H5        1.0  0.02126  0.15104  0.59085  1.0000
  H   H6        1.0  0.97875  0.34896  0.09085  1.0000
  H   H7        1.0  0.97873  0.84896  0.40915  1.0000
  H   H8        1.0  0.02126  0.65104  0.90915  1.0000
  H   H9        1.0  0.27923  0.27569  0.70923  1.0000
  H   H10       1.0  0.72078  0.22430  0.20923  1.0000
  H   H11       1.0  0.72077  0.72430  0.29076  1.0000
  H   H12       1.0  0.27922  0.77570  0.79077  1.0000
  H   H13       1.0  0.25756  0.20874  0.87406  1.0000
  H   H14       1.0  0.74244  0.29126  0.37405  1.0000
  H   H15       1.0  0.74244  0.79126  0.12594  1.0000
  H   H16       1.0  0.25756  0.70874  0.62594  1.0000
  H   H17       1.0  0.91405  0.89495  0.57332  1.0000
  H   H18       1.0  0.08595  0.60505  0.07332  1.0000
  H   H19       1.0  0.08593  0.10505  0.42668  1.0000
  H   H20       1.0  0.91407  0.39495  0.92668  1.0000
  H   H21       1.0  0.53116  0.98429  0.57355  1.0000
  H   H22       1.0  0.46885  0.51571  0.07355  1.0000
  H   H23       1.0  0.46883  0.01571  0.42645  1.0000
  H   H24       1.0  0.53117  0.48429  0.92645  1.0000
  H   H25       1.0  0.57879  0.86255  0.64978  1.0000
  H   H26       1.0  0.42121  0.63745  0.14978  1.0000
  H   H27       1.0  0.42120  0.13745  0.35023  1.0000
  H   H28       1.0  0.57880  0.36255  0.85023  1.0000
  C   C1        1.0  0.86082  0.98819  0.77964  1.0000
  C   C2        1.0  0.13918  0.51181  0.27964  1.0000
  C   C3        1.0  0.13917  0.01181  0.22035  1.0000
  C   C4        1.0  0.86084  0.48820  0.72035  1.0000
  C   C5        1.0  0.86513  0.01612  0.68691  1.0000
  C   C6        1.0  0.13488  0.48388  0.18691  1.0000
  C   C7        1.0  0.13486  0.98388  0.31309  1.0000
  C   C8        1.0  0.86513  0.51612  0.81309  1.0000
  C   C9        1.0  0.01556  0.12254  0.66185  1.0000
  C   C10       1.0  0.98445  0.37745  0.16185  1.0000
  C   C11       1.0  0.98444  0.87746  0.33814  1.0000
  C   C12       1.0  0.01556  0.62254  0.83814  1.0000
  C   C13       1.0  0.15747  0.19379  0.72851  1.0000
  C   C14       1.0  0.84254  0.30621  0.22850  1.0000
  C   C15       1.0  0.84253  0.80621  0.27149  1.0000
  C   C16       1.0  0.15746  0.69379  0.77150  1.0000
  C   C17       1.0  0.14445  0.15803  0.81908  1.0000
  C   C18       1.0  0.85556  0.34197  0.31908  1.0000
  C   C19       1.0  0.85556  0.84197  0.18092  1.0000
  C   C20       1.0  0.14444  0.65802  0.68092  1.0000
  C   C21       1.0  0.71414  0.93522  0.61757  1.0000
  C   C22       1.0  0.28587  0.56478  0.11757  1.0000
  C   C23       1.0  0.28585  0.06478  0.38243  1.0000
  C   C24       1.0  0.71414  0.43522  0.88243  1.0000
  N   N1        1.0  0.99708  0.05695  0.84423  1.0000
  N   N2        1.0  0.00292  0.44305  0.34423  1.0000
  N   N3        1.0  0.00291  0.94305  0.15577  1.0000
  N   N4        1.0  0.99709  0.55695  0.65577  1.0000
  Cl  Cl1       1.0  0.48415  0.15936  0.03372  1.0000
  Cl  Cl2       1.0  0.51584  0.34064  0.53372  1.0000
  Cl  Cl3       1.0  0.51584  0.84064  0.96628  1.0000
  Cl  Cl4       1.0  0.48416  0.65937  0.46628  1.0000
