data_image0
_chemical_formula_structural       Zn4H36C24S4N8O28
_chemical_formula_sum              "Zn4 H36 C24 S4 N8 O28"
_cell_length_a       6.33315
_cell_length_b       7.70472
_cell_length_c       20.4665
_cell_angle_alpha    90
_cell_angle_beta     94.1466
_cell_angle_gamma    90

_space_group_name_H-M_alt    "P 1"
_space_group_IT_number       1

loop_
  _space_group_symop_operation_xyz
  'x, y, z'

loop_
  _atom_site_type_symbol
  _atom_site_label
  _atom_site_symmetry_multiplicity
  _atom_site_fract_x
  _atom_site_fract_y
  _atom_site_fract_z
  _atom_site_occupancy
  Zn  Zn1       1.0  0.21364  0.40675  0.28789  1.0000
  Zn  Zn2       1.0  0.78636  0.90675  0.21211  1.0000
  Zn  Zn3       1.0  0.78636  0.59324  0.71211  1.0000
  Zn  Zn4       1.0  0.21364  0.09324  0.78789  1.0000
  H   H1        1.0  0.08418  0.46929  0.42713  1.0000
  H   H2        1.0  0.91581  0.96929  0.07287  1.0000
  H   H3        1.0  0.91581  0.53071  0.57286  1.0000
  H   H4        1.0  0.08419  0.03070  0.92713  1.0000
  H   H5        1.0  0.22884  0.39340  0.54292  1.0000
  H   H6        1.0  0.77116  0.89340  0.95708  1.0000
  H   H7        1.0  0.77116  0.60661  0.45708  1.0000
  H   H8        1.0  0.22884  0.10660  0.04292  1.0000
  H   H9        1.0  0.55827  0.21963  0.55824  1.0000
  H   H10       1.0  0.44173  0.71963  0.94177  1.0000
  H   H11       1.0  0.44173  0.78038  0.44176  1.0000
  H   H12       1.0  0.55827  0.28037  0.05824  1.0000
  H   H13       1.0  0.56529  0.19447  0.34748  1.0000
  H   H14       1.0  0.43472  0.69447  0.15253  1.0000
  H   H15       1.0  0.43472  0.80553  0.65252  1.0000
  H   H16       1.0  0.56528  0.30553  0.84747  1.0000
  H   H17       1.0  0.83108  0.06513  0.41085  1.0000
  H   H18       1.0  0.16892  0.56512  0.08915  1.0000
  H   H19       1.0  0.16894  0.93488  0.58916  1.0000
  H   H20       1.0  0.83106  0.43488  0.91084  1.0000
  H   H21       1.0  0.99919  0.45182  0.16988  1.0000
  H   H22       1.0  0.00081  0.95183  0.33012  1.0000
  H   H23       1.0  0.00081  0.54816  0.83012  1.0000
  H   H24       1.0  0.99919  0.04816  0.66988  1.0000
  H   H25       1.0  0.37264  0.70364  0.31618  1.0000
  H   H26       1.0  0.62736  0.20364  0.18382  1.0000
  H   H27       1.0  0.62736  0.29635  0.68382  1.0000
  H   H28       1.0  0.37264  0.79635  0.81618  1.0000
  H   H29       1.0  0.20115  0.33166  0.16631  1.0000
  H   H30       1.0  0.79885  0.83166  0.33369  1.0000
  H   H31       1.0  0.79885  0.66833  0.83368  1.0000
  H   H32       1.0  0.20115  0.16833  0.66631  1.0000
  H   H33       1.0  0.17912  0.73423  0.26529  1.0000
  H   H34       1.0  0.82089  0.23423  0.23471  1.0000
  H   H35       1.0  0.82089  0.26577  0.73471  1.0000
  H   H36       1.0  0.17912  0.76577  0.76529  1.0000
  C   C1        1.0  0.22525  0.38984  0.43700  1.0000
  C   C2        1.0  0.77475  0.88984  0.06300  1.0000
  C   C3        1.0  0.77475  0.61017  0.56300  1.0000
  C   C4        1.0  0.22525  0.11016  0.93700  1.0000
  C   C5        1.0  0.30522  0.34785  0.50009  1.0000
  C   C6        1.0  0.69478  0.84785  0.99991  1.0000
  C   C7        1.0  0.69478  0.65216  0.49990  1.0000
  C   C8        1.0  0.30521  0.15215  0.00009  1.0000
  C   C9        1.0  0.49050  0.25058  0.50937  1.0000
  C   C10       1.0  0.50949  0.75057  0.99064  1.0000
  C   C11       1.0  0.50949  0.74944  0.49063  1.0000
  C   C12       1.0  0.49050  0.24942  0.00937  1.0000
  C   C13       1.0  0.58946  0.19516  0.45383  1.0000
  C   C14       1.0  0.41054  0.69516  0.04617  1.0000
  C   C15       1.0  0.41055  0.80484  0.54617  1.0000
  C   C16       1.0  0.58945  0.30484  0.95383  1.0000
  C   C17       1.0  0.49551  0.23844  0.39176  1.0000
  C   C18       1.0  0.50449  0.73843  0.10824  1.0000
  C   C19       1.0  0.50450  0.76155  0.60824  1.0000
  C   C20       1.0  0.49550  0.26155  0.89176  1.0000
  C   C21       1.0  0.90008  0.04890  0.50914  1.0000
  C   C22       1.0  0.09991  0.54890  0.99086  1.0000
  C   C23       1.0  0.09994  0.95114  0.49086  1.0000
  C   C24       1.0  0.90007  0.45112  0.00914  1.0000
  S   S1        1.0  0.27902  0.02549  0.21644  1.0000
  S   S2        1.0  0.72099  0.52549  0.28356  1.0000
  S   S3        1.0  0.72099  0.97450  0.78356  1.0000
  S   S4        1.0  0.27902  0.47450  0.71644  1.0000
  N   N1        1.0  0.32024  0.33512  0.38396  1.0000
  N   N2        1.0  0.67976  0.83512  0.11604  1.0000
  N   N3        1.0  0.67977  0.66487  0.61604  1.0000
  N   N4        1.0  0.32023  0.16487  0.88396  1.0000
  N   N5        1.0  0.77867  0.10132  0.45535  1.0000
  N   N6        1.0  0.22132  0.60132  0.04465  1.0000
  N   N7        1.0  0.22133  0.89870  0.54465  1.0000
  N   N8        1.0  0.77867  0.39870  0.95535  1.0000
  O   O1        1.0  0.86183  0.07376  0.56684  1.0000
  O   O2        1.0  0.13815  0.57377  0.93316  1.0000
  O   O3        1.0  0.13817  0.92628  0.43317  1.0000
  O   O4        1.0  0.86183  0.42626  0.06683  1.0000
  O   O5        1.0  0.19857  0.13389  0.26958  1.0000
  O   O6        1.0  0.80143  0.63389  0.23042  1.0000
  O   O7        1.0  0.80143  0.86611  0.73042  1.0000
  O   O8        1.0  0.19857  0.36611  0.76958  1.0000
  O   O9        1.0  0.11324  0.89073  0.19680  1.0000
  O   O10       1.0  0.88676  0.39073  0.30320  1.0000
  O   O11       1.0  0.88676  0.10926  0.80320  1.0000
  O   O12       1.0  0.11324  0.60926  0.69679  1.0000
  O   O13       1.0  0.47080  0.92946  0.24200  1.0000
  O   O14       1.0  0.52920  0.42946  0.25800  1.0000
  O   O15       1.0  0.52920  0.07054  0.75800  1.0000
  O   O16       1.0  0.47080  0.57054  0.74199  1.0000
  O   O17       1.0  0.32523  0.13527  0.15935  1.0000
  O   O18       1.0  0.67478  0.63527  0.34065  1.0000
  O   O19       1.0  0.67478  0.86472  0.84065  1.0000
  O   O20       1.0  0.32522  0.36472  0.65935  1.0000
  O   O21       1.0  0.22189  0.67441  0.30701  1.0000
  O   O22       1.0  0.77812  0.17442  0.19299  1.0000
  O   O23       1.0  0.77811  0.32558  0.69299  1.0000
  O   O24       1.0  0.22189  0.82558  0.80701  1.0000
  O   O25       1.0  0.15152  0.44654  0.18207  1.0000
  O   O26       1.0  0.84848  0.94655  0.31793  1.0000
  O   O27       1.0  0.84848  0.55344  0.81793  1.0000
  O   O28       1.0  0.15152  0.05344  0.68207  1.0000
