data_image0
_chemical_formula_structural       Cd4H36C24S4N8O28
_chemical_formula_sum              "Cd4 H36 C24 S4 N8 O28"
_cell_length_a       7.81029
_cell_length_b       9.87199
_cell_length_c       13.477
_cell_angle_alpha    92.1843
_cell_angle_beta     90
_cell_angle_gamma    90

_space_group_name_H-M_alt    "P 1"
_space_group_IT_number       1

loop_
  _space_group_symop_operation_xyz
  'x, y, z'

loop_
  _atom_site_type_symbol
  _atom_site_label
  _atom_site_symmetry_multiplicity
  _atom_site_fract_x
  _atom_site_fract_y
  _atom_site_fract_z
  _atom_site_occupancy
  Cd  Cd1       1.0  0.18233  0.10678  0.85813  1.0000
  Cd  Cd2       1.0  0.68233  0.89323  0.64188  1.0000
  Cd  Cd3       1.0  0.81767  0.89322  0.14188  1.0000
  Cd  Cd4       1.0  0.31767  0.10678  0.35812  1.0000
  H   H1        1.0  0.29506  0.38536  0.79781  1.0000
  H   H2        1.0  0.79507  0.61464  0.70219  1.0000
  H   H3        1.0  0.70494  0.61463  0.20219  1.0000
  H   H4        1.0  0.20494  0.38536  0.29781  1.0000
  H   H5        1.0  0.21312  0.63373  0.80288  1.0000
  H   H6        1.0  0.71312  0.36627  0.69712  1.0000
  H   H7        1.0  0.78689  0.36627  0.19712  1.0000
  H   H8        1.0  0.28689  0.63373  0.30288  1.0000
  H   H9        1.0  0.92958  0.69979  0.87468  1.0000
  H   H10       1.0  0.42958  0.30021  0.62531  1.0000
  H   H11       1.0  0.07042  0.30021  0.12531  1.0000
  H   H12       1.0  0.57042  0.69979  0.37469  1.0000
  H   H13       1.0  0.83013  0.27597  0.91991  1.0000
  H   H14       1.0  0.33013  0.72403  0.58010  1.0000
  H   H15       1.0  0.16987  0.72403  0.08010  1.0000
  H   H16       1.0  0.66987  0.27597  0.41991  1.0000
  H   H17       1.0  0.66551  0.63507  0.93494  1.0000
  H   H18       1.0  0.16551  0.36493  0.56506  1.0000
  H   H19       1.0  0.33449  0.36493  0.06506  1.0000
  H   H20       1.0  0.83449  0.63507  0.43494  1.0000
  H   H21       1.0  0.47705  0.13838  0.75773  1.0000
  H   H22       1.0  0.97705  0.86161  0.74227  1.0000
  H   H23       1.0  0.52295  0.86161  0.24227  1.0000
  H   H24       1.0  0.02295  0.13838  0.25773  1.0000
  H   H25       1.0  0.54332  0.16111  0.86810  1.0000
  H   H26       1.0  0.04332  0.83889  0.63190  1.0000
  H   H27       1.0  0.45668  0.83889  0.13190  1.0000
  H   H28       1.0  0.95668  0.16111  0.36810  1.0000
  H   H29       1.0  0.30289  0.87154  0.92998  1.0000
  H   H30       1.0  0.80289  0.12846  0.57002  1.0000
  H   H31       1.0  0.69711  0.12846  0.07002  1.0000
  H   H32       1.0  0.19711  0.87154  0.42998  1.0000
  H   H33       1.0  0.42789  0.89248  0.84148  1.0000
  H   H34       1.0  0.92790  0.10752  0.65851  1.0000
  H   H35       1.0  0.57210  0.10752  0.15851  1.0000
  H   H36       1.0  0.07210  0.89248  0.34149  1.0000
  C   C1        1.0  0.17084  0.42027  0.82512  1.0000
  C   C2        1.0  0.67084  0.57973  0.67487  1.0000
  C   C3        1.0  0.82915  0.57973  0.17487  1.0000
  C   C4        1.0  0.32916  0.42027  0.32512  1.0000
  C   C5        1.0  0.12544  0.55661  0.82843  1.0000
  C   C6        1.0  0.62544  0.44339  0.67157  1.0000
  C   C7        1.0  0.87456  0.44339  0.17157  1.0000
  C   C8        1.0  0.37456  0.55661  0.32843  1.0000
  C   C9        1.0  0.96722  0.59380  0.86750  1.0000
  C   C10       1.0  0.46722  0.40621  0.63250  1.0000
  C   C11       1.0  0.03278  0.40620  0.13250  1.0000
  C   C12       1.0  0.53278  0.59380  0.36750  1.0000
  C   C13       1.0  0.85623  0.49353  0.90078  1.0000
  C   C14       1.0  0.35623  0.50647  0.59922  1.0000
  C   C15       1.0  0.14377  0.50647  0.09922  1.0000
  C   C16       1.0  0.64377  0.49353  0.40078  1.0000
  C   C17       1.0  0.91045  0.35768  0.89470  1.0000
  C   C18       1.0  0.41045  0.64232  0.60530  1.0000
  C   C19       1.0  0.08955  0.64232  0.10530  1.0000
  C   C20       1.0  0.58955  0.35768  0.39470  1.0000
  C   C21       1.0  0.58006  0.45851  0.98620  1.0000
  C   C22       1.0  0.08006  0.54149  0.51380  1.0000
  C   C23       1.0  0.41994  0.54149  0.01380  1.0000
  C   C24       1.0  0.91994  0.45851  0.48620  1.0000
  S   S1        1.0  0.76633  0.95120  0.89522  1.0000
  S   S2        1.0  0.26633  0.04880  0.60478  1.0000
  S   S3        1.0  0.23367  0.04880  0.10478  1.0000
  S   S4        1.0  0.73367  0.95120  0.39522  1.0000
  N   N1        1.0  0.06542  0.32378  0.85797  1.0000
  N   N2        1.0  0.56542  0.67622  0.64204  1.0000
  N   N3        1.0  0.93458  0.67622  0.14203  1.0000
  N   N4        1.0  0.43458  0.32378  0.35797  1.0000
  N   N5        1.0  0.69651  0.53415  0.93793  1.0000
  N   N6        1.0  0.19651  0.46586  0.56207  1.0000
  N   N7        1.0  0.30349  0.46586  0.06207  1.0000
  N   N8        1.0  0.80349  0.53414  0.43793  1.0000
  O   O1        1.0  0.59394  0.33875  0.00810  1.0000
  O   O2        1.0  0.09394  0.66125  0.49190  1.0000
  O   O3        1.0  0.40606  0.66126  0.99190  1.0000
  O   O4        1.0  0.90606  0.33875  0.50810  1.0000
  O   O5        1.0  0.93966  0.96606  0.84927  1.0000
  O   O6        1.0  0.43966  0.03394  0.65073  1.0000
  O   O7        1.0  0.06034  0.03394  0.15073  1.0000
  O   O8        1.0  0.56034  0.96606  0.34927  1.0000
  O   O9        1.0  0.77478  0.84971  0.97427  1.0000
  O   O10       1.0  0.27478  0.15029  0.52573  1.0000
  O   O11       1.0  0.22522  0.15029  0.02573  1.0000
  O   O12       1.0  0.72522  0.84971  0.47427  1.0000
  O   O13       1.0  0.64679  0.89632  0.81637  1.0000
  O   O14       1.0  0.14679  0.10368  0.68363  1.0000
  O   O15       1.0  0.35321  0.10368  0.18363  1.0000
  O   O16       1.0  0.85321  0.89632  0.31637  1.0000
  O   O17       1.0  0.70500  0.08364  0.93609  1.0000
  O   O18       1.0  0.20500  0.91636  0.56391  1.0000
  O   O19       1.0  0.29500  0.91636  0.06391  1.0000
  O   O20       1.0  0.79500  0.08364  0.43609  1.0000
  O   O21       1.0  0.45538  0.19135  0.82047  1.0000
  O   O22       1.0  0.95538  0.80865  0.67953  1.0000
  O   O23       1.0  0.54462  0.80865  0.17953  1.0000
  O   O24       1.0  0.04462  0.19135  0.32047  1.0000
  O   O25       1.0  0.30412  0.89166  0.85866  1.0000
  O   O26       1.0  0.80413  0.10834  0.64134  1.0000
  O   O27       1.0  0.69587  0.10834  0.14134  1.0000
  O   O28       1.0  0.19587  0.89166  0.35866  1.0000
