data_image0
_chemical_formula_structural       Cd2H24C24N4O16
_chemical_formula_sum              "Cd2 H24 C24 N4 O16"
_cell_length_a       3.63831
_cell_length_b       10.3366
_cell_length_c       17.7382
_cell_angle_alpha    88.9651
_cell_angle_beta     84.1125
_cell_angle_gamma    79.8465

_space_group_name_H-M_alt    "P 1"
_space_group_IT_number       1

loop_
  _space_group_symop_operation_xyz
  'x, y, z'

loop_
  _atom_site_type_symbol
  _atom_site_label
  _atom_site_symmetry_multiplicity
  _atom_site_fract_x
  _atom_site_fract_y
  _atom_site_fract_z
  _atom_site_occupancy
  Cd  Cd1       1.0  0.03272  0.00011  0.99984  1.0000
  Cd  Cd2       1.0  0.28310  0.50008  0.50019  1.0000
  H   H1        1.0  0.27317  0.60117  0.26173  1.0000
  H   H2        1.0  0.13636  0.39906  0.73805  1.0000
  H   H3        1.0  0.78412  0.10086  0.23823  1.0000
  H   H4        1.0  0.12497  0.89900  0.76199  1.0000
  H   H5        1.0  0.34568  0.37186  0.24027  1.0000
  H   H6        1.0  0.95786  0.62838  0.75964  1.0000
  H   H7        1.0  0.83600  0.87149  0.25980  1.0000
  H   H8        1.0  0.96771  0.12828  0.74041  1.0000
  H   H9        1.0  0.99364  0.42768  0.02887  1.0000
  H   H10       1.0  0.44915  0.57199  0.97114  1.0000
  H   H11       1.0  0.27300  0.92788  0.47109  1.0000
  H   H12       1.0  0.67060  0.07209  0.52892  1.0000
  H   H13       1.0  0.89646  0.66854  0.05557  1.0000
  H   H14       1.0  0.61965  0.33122  0.94431  1.0000
  H   H15       1.0  0.20161  0.16872  0.44427  1.0000
  H   H16       1.0  0.81506  0.83132  0.55576  1.0000
  H   H17       1.0  0.51198  0.87791  0.11927  1.0000
  H   H18       1.0  0.50931  0.12234  0.88034  1.0000
  H   H19       1.0  0.88091  0.37781  0.38066  1.0000
  H   H20       1.0  0.64050  0.62228  0.61962  1.0000
  H   H21       1.0  0.50713  0.03702  0.11644  1.0000
  H   H22       1.0  0.66105  0.96323  0.88327  1.0000
  H   H23       1.0  0.87410  0.53687  0.38358  1.0000
  H   H24       1.0  0.79493  0.46312  0.61675  1.0000
  C   C1        1.0  0.47692  0.43192  0.19807  1.0000
  C   C2        1.0  0.10706  0.56821  0.80180  1.0000
  C   C3        1.0  0.92505  0.93168  0.30193  1.0000
  C   C4        1.0  0.15906  0.06816  0.69824  1.0000
  C   C5        1.0  0.67475  0.38081  0.13137  1.0000
  C   C6        1.0  0.18692  0.61917  0.86855  1.0000
  C   C7        1.0  0.05657  0.88074  0.36863  1.0000
  C   C8        1.0  0.30544  0.11914  0.63148  1.0000
  C   C9        1.0  0.56619  0.65322  0.16318  1.0000
  C   C10       1.0  0.38270  0.34683  0.83658  1.0000
  C   C11       1.0  0.97865  0.15310  0.33672  1.0000
  C   C12       1.0  0.46984  0.84682  0.66343  1.0000
  C   C13       1.0  0.83181  0.46853  0.08068  1.0000
  C   C14       1.0  0.38042  0.53130  0.91926  1.0000
  C   C15       1.0  0.16276  0.96860  0.41927  1.0000
  C   C16       1.0  0.55007  0.03134  0.58079  1.0000
  C   C17       1.0  0.78008  0.60072  0.09515  1.0000
  C   C18       1.0  0.47535  0.39911  0.90472  1.0000
  C   C19       1.0  0.12496  0.10076  0.40474  1.0000
  C   C20       1.0  0.63093  0.89917  0.59534  1.0000
  C   C21       1.0  0.71188  0.24019  0.11070  1.0000
  C   C22       1.0  0.06342  0.75984  0.88918  1.0000
  C   C23       1.0  0.07347  0.74015  0.38937  1.0000
  C   C24       1.0  0.20224  0.25976  0.61082  1.0000
  N   N1        1.0  0.43255  0.56193  0.21252  1.0000
  N   N2        1.0  0.20724  0.43824  0.78728  1.0000
  N   N3        1.0  0.89457  0.06167  0.28743  1.0000
  N   N4        1.0  0.24502  0.93820  0.71275  1.0000
  O   O1        1.0  0.49019  0.77345  0.18162  1.0000
  O   O2        1.0  0.44587  0.22664  0.81804  1.0000
  O   O3        1.0  0.92068  0.27331  0.31826  1.0000
  O   O4        1.0  0.51427  0.72661  0.68194  1.0000
  O   O5        1.0  0.50198  0.95737  0.08329  1.0000
  O   O6        1.0  0.54275  0.04289  0.91637  1.0000
  O   O7        1.0  0.83554  0.45721  0.41668  1.0000
  O   O8        1.0  0.71013  0.54282  0.58361  1.0000
  O   O9        1.0  0.87395  0.20760  0.04468  1.0000
  O   O10       1.0  0.12706  0.79247  0.95517  1.0000
  O   O11       1.0  0.16953  0.70765  0.45541  1.0000
  O   O12       1.0  0.33170  0.29240  0.54482  1.0000
  O   O13       1.0  0.57408  0.16193  0.15793  1.0000
  O   O14       1.0  0.89494  0.83816  0.84191  1.0000
  O   O15       1.0  0.98332  0.66178  0.34216  1.0000
  O   O16       1.0  0.98646  0.33807  0.65810  1.0000
