data_image0
_chemical_formula_structural       CuH12C12N2O8
_chemical_formula_sum              "Cu1 H12 C12 N2 O8"
_cell_length_a       3.67497
_cell_length_b       9.84003
_cell_length_c       10.0471
_cell_angle_alpha    64.5341
_cell_angle_beta     78.6029
_cell_angle_gamma    84.4192

_space_group_name_H-M_alt    "P 1"
_space_group_IT_number       1

loop_
  _space_group_symop_operation_xyz
  'x, y, z'

loop_
  _atom_site_type_symbol
  _atom_site_label
  _atom_site_symmetry_multiplicity
  _atom_site_fract_x
  _atom_site_fract_y
  _atom_site_fract_z
  _atom_site_occupancy
  Cu  Cu1       1.0  0.08278  0.00097  0.57784  1.0000
  H   H1        1.0  0.75373  0.78129  0.80677  1.0000
  H   H2        1.0  0.50612  0.93275  0.78906  1.0000
  H   H3        1.0  0.66017  0.06836  0.36697  1.0000
  H   H4        1.0  0.41579  0.22040  0.34944  1.0000
  H   H5        1.0  0.10398  0.36999  0.08583  1.0000
  H   H6        1.0  0.06851  0.63147  0.06963  1.0000
  H   H7        1.0  0.41035  0.60058  0.52474  1.0000
  H   H8        1.0  0.75864  0.40151  0.63109  1.0000
  H   H9        1.0  0.18023  0.15103  0.04093  1.0000
  H   H10       1.0  0.98979  0.85040  0.11456  1.0000
  H   H11       1.0  0.67174  0.62703  0.69179  1.0000
  H   H12       1.0  0.50056  0.37512  0.46393  1.0000
  C   C1        1.0  0.09137  0.86995  0.37076  1.0000
  C   C2        1.0  0.07549  0.13171  0.78494  1.0000
  C   C3        1.0  0.33930  0.60541  0.42281  1.0000
  C   C4        1.0  0.89048  0.51241  0.89680  1.0000
  C   C5        1.0  0.83066  0.39657  0.73291  1.0000
  C   C6        1.0  0.28194  0.48936  0.25882  1.0000
  C   C7        1.0  0.07129  0.25265  0.95871  1.0000
  C   C8        1.0  0.09903  0.74894  0.19684  1.0000
  C   C9        1.0  0.78217  0.51995  0.76529  1.0000
  C   C10       1.0  0.18399  0.74158  0.32776  1.0000
  C   C11       1.0  0.98506  0.26014  0.82794  1.0000
  C   C12       1.0  0.38934  0.48204  0.39039  1.0000
  N   N1        1.0  0.01991  0.37405  0.99032  1.0000
  N   N2        1.0  0.15209  0.62757  0.16519  1.0000
  O   O1        1.0  0.66982  0.88011  0.73038  1.0000
  O   O2        1.0  0.49757  0.12109  0.42585  1.0000
  O   O3        1.0  0.16417  0.84690  0.49924  1.0000
  O   O4        1.0  0.00207  0.15504  0.65648  1.0000
  O   O5        1.0  0.87553  0.62297  0.93222  1.0000
  O   O6        1.0  0.94087  0.98688  0.28383  1.0000
  O   O7        1.0  0.29767  0.37877  0.22339  1.0000
  O   O8        1.0  0.22487  0.01443  0.87185  1.0000
