data_image0
_chemical_formula_structural       Ag4H12C4N24
_chemical_formula_sum              "Ag4 H12 C4 N24"
_cell_length_a       3.64563
_cell_length_b       9.02662
_cell_length_c       14.4826
_cell_angle_alpha    92.1273
_cell_angle_beta     88.8284
_cell_angle_gamma    100.276

_space_group_name_H-M_alt    "P 1"
_space_group_IT_number       1

loop_
  _space_group_symop_operation_xyz
  'x, y, z'

loop_
  _atom_site_type_symbol
  _atom_site_label
  _atom_site_symmetry_multiplicity
  _atom_site_fract_x
  _atom_site_fract_y
  _atom_site_fract_z
  _atom_site_occupancy
  Ag  Ag1       1.0  0.79095  0.66808  0.66489  1.0000
  Ag  Ag2       1.0  0.07738  0.33483  0.83776  1.0000
  Ag  Ag3       1.0  0.20905  0.33191  0.33511  1.0000
  Ag  Ag4       1.0  0.92261  0.66517  0.16224  1.0000
  H   H1        1.0  0.32051  0.92704  0.66698  1.0000
  H   H2        1.0  0.38886  0.07776  0.82440  1.0000
  H   H3        1.0  0.67948  0.07296  0.33302  1.0000
  H   H4        1.0  0.61114  0.92225  0.17560  1.0000
  H   H5        1.0  0.94763  0.97675  0.62739  1.0000
  H   H6        1.0  0.97174  0.02075  0.86750  1.0000
  H   H7        1.0  0.05236  0.02325  0.37261  1.0000
  H   H8        1.0  0.02826  0.97925  0.13250  1.0000
  H   H9        1.0  0.20657  0.88284  0.55945  1.0000
  H   H10       1.0  0.30888  0.11448  0.93400  1.0000
  H   H11       1.0  0.79342  0.11715  0.44055  1.0000
  H   H12       1.0  0.69112  0.88552  0.06600  1.0000
  C   C1        1.0  0.61041  0.35566  0.56424  1.0000
  C   C2        1.0  0.26762  0.64438  0.93954  1.0000
  C   C3        1.0  0.38959  0.64434  0.43577  1.0000
  C   C4        1.0  0.73237  0.35562  0.06046  1.0000
  N   N1        1.0  0.75295  0.42073  0.64448  1.0000
  N   N2        1.0  0.33207  0.58248  0.85563  1.0000
  N   N3        1.0  0.24705  0.57927  0.35552  1.0000
  N   N4        1.0  0.66794  0.41752  0.14436  1.0000
  N   N5        1.0  0.81240  0.30657  0.69441  1.0000
  N   N6        1.0  0.51908  0.69624  0.80818  1.0000
  N   N7        1.0  0.18761  0.69343  0.30559  1.0000
  N   N8        1.0  0.48092  0.30377  0.19182  1.0000
  N   N9        1.0  0.71193  0.17667  0.64613  1.0000
  N   N10       1.0  0.56913  0.82245  0.86156  1.0000
  N   N11       1.0  0.28807  0.82333  0.35388  1.0000
  N   N12       1.0  0.43087  0.17755  0.13844  1.0000
  N   N13       1.0  0.58895  0.20491  0.56374  1.0000
  N   N14       1.0  0.41782  0.79227  0.94479  1.0000
  N   N15       1.0  0.41105  0.79509  0.43627  1.0000
  N   N16       1.0  0.58218  0.20774  0.05521  1.0000
  N   N17       1.0  0.51542  0.43128  0.48983  1.0000
  N   N18       1.0  0.09197  0.56549  0.01245  1.0000
  N   N19       1.0  0.48458  0.56871  0.51017  1.0000
  N   N20       1.0  0.90802  0.43451  0.98755  1.0000
  N   N21       1.0  0.09777  0.89047  0.62523  1.0000
  N   N22       1.0  0.19436  0.10874  0.86930  1.0000
  N   N23       1.0  0.90223  0.10953  0.37477  1.0000
  N   N24       1.0  0.80565  0.89126  0.13070  1.0000
