data_image0
_chemical_formula_structural       Hg3H8C6S4Cl6
_chemical_formula_sum              "Hg3 H8 C6 S4 Cl6"
_cell_length_a       6.61043
_cell_length_b       7.24694
_cell_length_c       9.91961
_cell_angle_alpha    101.245
_cell_angle_beta     91.8877
_cell_angle_gamma    91.3781

_space_group_name_H-M_alt    "P 1"
_space_group_IT_number       1

loop_
  _space_group_symop_operation_xyz
  'x, y, z'

loop_
  _atom_site_type_symbol
  _atom_site_label
  _atom_site_symmetry_multiplicity
  _atom_site_fract_x
  _atom_site_fract_y
  _atom_site_fract_z
  _atom_site_occupancy
  Hg  Hg1       1.0  0.00000  0.00001  0.00001  1.0000
  Hg  Hg2       1.0  0.50689  0.32099  0.14244  1.0000
  Hg  Hg3       1.0  0.49311  0.67903  0.85757  1.0000
  H   H1        1.0  0.98849  0.82979  0.52233  1.0000
  H   H2        1.0  0.01152  0.17021  0.47766  1.0000
  H   H3        1.0  0.23239  0.94543  0.56468  1.0000
  H   H4        1.0  0.76762  0.05458  0.43531  1.0000
  H   H5        1.0  0.10602  0.65288  0.30086  1.0000
  H   H6        1.0  0.89398  0.34707  0.69914  1.0000
  H   H7        1.0  0.19952  0.89007  0.31008  1.0000
  H   H8        1.0  0.80047  0.10989  0.68991  1.0000
  C   C1        1.0  0.43470  0.56633  0.48864  1.0000
  C   C2        1.0  0.56530  0.43367  0.51136  1.0000
  C   C3        1.0  0.15209  0.81654  0.50996  1.0000
  C   C4        1.0  0.84790  0.18346  0.49004  1.0000
  C   C5        1.0  0.20423  0.76703  0.35931  1.0000
  C   C6        1.0  0.79577  0.23294  0.64068  1.0000
  S   S1        1.0  0.46441  0.69094  0.35596  1.0000
  S   S2        1.0  0.53559  0.30907  0.64404  1.0000
  S   S3        1.0  0.22467  0.62096  0.58949  1.0000
  S   S4        1.0  0.77533  0.37904  0.41051  1.0000
  Cl  Cl1       1.0  0.73211  0.92075  0.13309  1.0000
  Cl  Cl2       1.0  0.26789  0.07927  0.86693  1.0000
  Cl  Cl3       1.0  0.77099  0.38301  0.99943  1.0000
  Cl  Cl4       1.0  0.22900  0.61701  0.00057  1.0000
  Cl  Cl5       1.0  0.21836  0.21715  0.25034  1.0000
  Cl  Cl6       1.0  0.78165  0.78284  0.74967  1.0000
