data_image0
_chemical_formula_structural       CuH8C12N4O2
_chemical_formula_sum              "Cu1 H8 C12 N4 O2"
_cell_length_a       5.11143
_cell_length_b       7.75139
_cell_length_c       8.2078
_cell_angle_alpha    121.559
_cell_angle_beta     90.3084
_cell_angle_gamma    98.3636

_space_group_name_H-M_alt    "P 1"
_space_group_IT_number       1

loop_
  _space_group_symop_operation_xyz
  'x, y, z'

loop_
  _atom_site_type_symbol
  _atom_site_label
  _atom_site_symmetry_multiplicity
  _atom_site_fract_x
  _atom_site_fract_y
  _atom_site_fract_z
  _atom_site_occupancy
  Cu  Cu1       1.0  0.50000  0.50000  0.50000  1.0000
  H   H1        1.0  0.21230  0.77628  0.04853  1.0000
  H   H2        1.0  0.78771  0.22372  0.95147  1.0000
  H   H3        1.0  0.42611  0.92290  0.82579  1.0000
  H   H4        1.0  0.57389  0.07710  0.17420  1.0000
  H   H5        1.0  0.02154  0.79654  0.54303  1.0000
  H   H6        1.0  0.97846  0.20345  0.45696  1.0000
  H   H7        1.0  0.15175  0.20125  0.78583  1.0000
  H   H8        1.0  0.84825  0.79875  0.21417  1.0000
  C   C1        1.0  0.48243  0.41024  0.79344  1.0000
  C   C2        1.0  0.51758  0.58977  0.20657  1.0000
  C   C3        1.0  0.68338  0.58089  0.92132  1.0000
  C   C4        1.0  0.31662  0.41911  0.07867  1.0000
  C   C5        1.0  0.02495  0.77668  0.66425  1.0000
  C   C6        1.0  0.97505  0.22332  0.33575  1.0000
  C   C7        1.0  0.22920  0.83895  0.80900  1.0000
  C   C8        1.0  0.77080  0.16105  0.19099  1.0000
  C   C9        1.0  0.12561  0.76743  0.92296  1.0000
  C   C10       1.0  0.87438  0.23256  0.07703  1.0000
  C   C11       1.0  0.30233  0.33447  0.88095  1.0000
  C   C12       1.0  0.69768  0.66554  0.11905  1.0000
  N   N1        1.0  0.87252  0.66745  0.84678  1.0000
  N   N2        1.0  0.12748  0.33255  0.15322  1.0000
  N   N3        1.0  0.80936  0.67370  0.68794  1.0000
  N   N4        1.0  0.19064  0.32630  0.31207  1.0000
  O   O1        1.0  0.46239  0.32200  0.60534  1.0000
  O   O2        1.0  0.53761  0.67801  0.39468  1.0000
