data_image0
_chemical_formula_structural       Sm2H24C24N18O12
_chemical_formula_sum              "Sm2 H24 C24 N18 O12"
_cell_length_a       8.74247
_cell_length_b       9.16239
_cell_length_c       13.8055
_cell_angle_alpha    72.2483
_cell_angle_beta     71.54
_cell_angle_gamma    61.5203

_space_group_name_H-M_alt    "P 1"
_space_group_IT_number       1

loop_
  _space_group_symop_operation_xyz
  'x, y, z'

loop_
  _atom_site_type_symbol
  _atom_site_label
  _atom_site_symmetry_multiplicity
  _atom_site_fract_x
  _atom_site_fract_y
  _atom_site_fract_z
  _atom_site_occupancy
  Sm  Sm1       1.0  0.65359  0.38699  0.85720  1.0000
  Sm  Sm2       1.0  0.10224  0.88712  0.35711  1.0000
  H   H1        1.0  0.28914  0.19040  0.94425  1.0000
  H   H2        1.0  0.57597  0.69082  0.44411  1.0000
  H   H3        1.0  0.34369  0.98845  0.92555  1.0000
  H   H4        1.0  0.74237  0.48902  0.42544  1.0000
  H   H5        1.0  0.33626  0.71648  0.05964  1.0000
  H   H6        1.0  0.88756  0.21650  0.55951  1.0000
  H   H7        1.0  0.14099  0.88069  0.04154  1.0000
  H   H8        1.0  0.93644  0.38085  0.54172  1.0000
  H   H9        1.0  0.61951  0.30725  0.52957  1.0000
  H   H10       1.0  0.54372  0.80678  0.02963  1.0000
  H   H11       1.0  0.61193  0.11777  0.53661  1.0000
  H   H12       1.0  0.73387  0.61748  0.03657  1.0000
  H   H13       1.0  0.92167  0.45397  0.91480  1.0000
  H   H14       1.0  0.70920  0.95408  0.41497  1.0000
  H   H15       1.0  0.88475  0.31463  0.01089  1.0000
  H   H16       1.0  0.78973  0.81484  0.51101  1.0000
  H   H17       1.0  0.58722  0.14172  0.07050  1.0000
  H   H18       1.0  0.20039  0.64177  0.57059  1.0000
  H   H19       1.0  0.48050  0.33800  0.08185  1.0000
  H   H20       1.0  0.09920  0.83813  0.58177  1.0000
  H   H21       1.0  0.46091  0.50222  0.67451  1.0000
  H   H22       1.0  0.36256  0.00236  0.17427  1.0000
  H   H23       1.0  0.50003  0.65785  0.67031  1.0000
  H   H24       1.0  0.17202  0.15799  0.17004  1.0000
  C   C1        1.0  0.51739  0.10117  0.83975  1.0000
  C   C2        1.0  0.54169  0.60131  0.33969  1.0000
  C   C3        1.0  0.64842  0.96318  0.78756  1.0000
  C   C4        1.0  0.60072  0.46331  0.28753  1.0000
  C   C5        1.0  0.64246  0.80925  0.80143  1.0000
  C   C6        1.0  0.74669  0.30944  0.30148  1.0000
  C   C7        1.0  0.79691  0.98336  0.71936  1.0000
  C   C8        1.0  0.50036  0.48363  0.21923  1.0000
  C   C9        1.0  0.25103  0.70905  0.94577  1.0000
  C   C10       1.0  0.09399  0.20927  0.44576  1.0000
  C   C11       1.0  0.09959  0.77641  0.89950  1.0000
  C   C12       1.0  0.22456  0.27641  0.39943  1.0000
  C   C13       1.0  0.97391  0.94257  0.89995  1.0000
  C   C14       1.0  0.18380  0.44256  0.39986  1.0000
  C   C15       1.0  0.06952  0.66288  0.86756  1.0000
  C   C16       1.0  0.40005  0.16284  0.36753  1.0000
  C   C17       1.0  0.38492  0.30283  0.61178  1.0000
  C   C18       1.0  0.70054  0.80280  0.11165  1.0000
  C   C19       1.0  0.28124  0.20329  0.64829  1.0000
  C   C20       1.0  0.86729  0.70356  0.14805  1.0000
  C   C21       1.0  0.10213  0.27859  0.69436  1.0000
  C   C22       1.0  0.92484  0.77890  0.19426  1.0000
  C   C23       1.0  0.35503  0.03550  0.63433  1.0000
  C   C24       1.0  0.97532  0.53572  0.13416  1.0000
  N   N1        1.0  0.37269  0.09046  0.90817  1.0000
  N   N2        1.0  0.62853  0.59073  0.40813  1.0000
  N   N3        1.0  0.64303  0.67740  0.81136  1.0000
  N   N4        1.0  0.86810  0.17771  0.31147  1.0000
  N   N5        1.0  0.92327  0.99804  0.66306  1.0000
  N   N6        1.0  0.41568  0.49848  0.16285  1.0000
  N   N7        1.0  0.26028  0.79970  0.00576  1.0000
  N   N8        1.0  0.93415  0.29989  0.50577  1.0000
  N   N9        1.0  0.87344  0.08433  0.90054  1.0000
  N   N10       1.0  0.14177  0.58435  0.40049  1.0000
  N   N11       1.0  0.04415  0.56167  0.84773  1.0000
  N   N12       1.0  0.54650  0.06179  0.34765  1.0000
  N   N13       1.0  0.55148  0.23446  0.55577  1.0000
  N   N14       1.0  0.65851  0.73429  0.05564  1.0000
  N   N15       1.0  0.94903  0.34011  0.72984  1.0000
  N   N16       1.0  0.98078  0.84045  0.22985  1.0000
  N   N17       1.0  0.42363  0.89534  0.62097  1.0000
  N   N18       1.0  0.06005  0.39550  0.12089  1.0000
  O   O1        1.0  0.54034  0.23503  0.82013  1.0000
  O   O2        1.0  0.40460  0.73522  0.32004  1.0000
  O   O3        1.0  0.37610  0.56671  0.93346  1.0000
  O   O4        1.0  0.12327  0.06699  0.43344  1.0000
  O   O5        1.0  0.32257  0.44938  0.63162  1.0000
  O   O6        1.0  0.59633  0.94929  0.13158  1.0000
  O   O7        1.0  0.82951  0.41028  0.95908  1.0000
  O   O8        1.0  0.80108  0.91037  0.45903  1.0000
  O   O9        1.0  0.56362  0.25988  0.03378  1.0000
  O   O10       1.0  0.14264  0.75987  0.53373  1.0000
  O   O11       1.0  0.54119  0.53388  0.69291  1.0000
  O   O12       1.0  0.23218  0.03405  0.19276  1.0000
