data_image0
_chemical_formula_structural       Cu4H20C16N8O4F8
_chemical_formula_sum              "Cu4 H20 C16 N8 O4 F8"
_cell_length_a       7.60205
_cell_length_b       8.04094
_cell_length_c       9.91636
_cell_angle_alpha    110.618
_cell_angle_beta     89.9995
_cell_angle_gamma    89.9998

_space_group_name_H-M_alt    "P 1"
_space_group_IT_number       1

loop_
  _space_group_symop_operation_xyz
  'x, y, z'

loop_
  _atom_site_type_symbol
  _atom_site_label
  _atom_site_symmetry_multiplicity
  _atom_site_fract_x
  _atom_site_fract_y
  _atom_site_fract_z
  _atom_site_occupancy
  Cu  Cu1       1.0  0.10062  0.20185  0.08697  1.0000
  Cu  Cu2       1.0  0.60061  0.29815  0.41303  1.0000
  Cu  Cu3       1.0  0.89939  0.79815  0.91303  1.0000
  Cu  Cu4       1.0  0.39938  0.70185  0.58697  1.0000
  H   H1        1.0  0.15513  0.02625  0.77281  1.0000
  H   H2        1.0  0.65514  0.47374  0.72719  1.0000
  H   H3        1.0  0.84487  0.97374  0.22719  1.0000
  H   H4        1.0  0.34487  0.52626  0.27281  1.0000
  H   H5        1.0  0.14008  0.12192  0.55478  1.0000
  H   H6        1.0  0.64009  0.37807  0.94521  1.0000
  H   H7        1.0  0.85992  0.87808  0.44522  1.0000
  H   H8        1.0  0.35992  0.62192  0.05479  1.0000
  H   H9        1.0  0.05379  0.44192  0.59976  1.0000
  H   H10       1.0  0.55378  0.05807  0.90024  1.0000
  H   H11       1.0  0.94622  0.55808  0.40024  1.0000
  H   H12       1.0  0.44621  0.94192  0.09976  1.0000
  H   H13       1.0  0.01483  0.20328  0.32840  1.0000
  H   H14       1.0  0.51483  0.29673  0.17161  1.0000
  H   H15       1.0  0.98517  0.79672  0.67160  1.0000
  H   H16       1.0  0.48516  0.70328  0.82840  1.0000
  H   H17       1.0  0.22264  0.25350  0.33265  1.0000
  H   H18       1.0  0.72264  0.24650  0.16735  1.0000
  H   H19       1.0  0.77736  0.74650  0.66735  1.0000
  H   H20       1.0  0.27736  0.75350  0.83265  1.0000
  C   C1        1.0  0.11602  0.15949  0.78076  1.0000
  C   C2        1.0  0.61602  0.34051  0.71924  1.0000
  C   C3        1.0  0.88398  0.84051  0.21924  1.0000
  C   C4        1.0  0.38398  0.65949  0.28076  1.0000
  C   C5        1.0  0.10882  0.21345  0.66222  1.0000
  C   C6        1.0  0.60882  0.28654  0.83778  1.0000
  C   C7        1.0  0.89119  0.78655  0.33778  1.0000
  C   C8        1.0  0.39119  0.71345  0.16222  1.0000
  C   C9        1.0  0.05922  0.38833  0.68626  1.0000
  C   C10       1.0  0.55921  0.11166  0.81374  1.0000
  C   C11       1.0  0.94079  0.61167  0.31374  1.0000
  C   C12       1.0  0.44079  0.88833  0.18626  1.0000
  C   C13       1.0  0.02407  0.43754  0.92699  1.0000
  C   C14       1.0  0.52407  0.06246  0.57301  1.0000
  C   C15       1.0  0.97593  0.56246  0.07301  1.0000
  C   C16       1.0  0.47593  0.93754  0.42699  1.0000
  N   N1        1.0  0.07440  0.27187  0.91332  1.0000
  N   N2        1.0  0.57439  0.22813  0.58668  1.0000
  N   N3        1.0  0.92561  0.72813  0.08668  1.0000
  N   N4        1.0  0.42560  0.77187  0.41332  1.0000
  N   N5        1.0  0.01494  0.49840  0.81829  1.0000
  N   N6        1.0  0.51493  0.00160  0.68170  1.0000
  N   N7        1.0  0.98507  0.50160  0.18171  1.0000
  N   N8        1.0  0.48506  0.99840  0.31829  1.0000
  O   O1        1.0  0.12961  0.16899  0.27318  1.0000
  O   O2        1.0  0.62961  0.33102  0.22682  1.0000
  O   O3        1.0  0.87038  0.83102  0.72682  1.0000
  O   O4        1.0  0.37039  0.66899  0.77319  1.0000
  F   F1        1.0  0.14332  0.88679  0.92949  1.0000
  F   F2        1.0  0.64332  0.61321  0.57051  1.0000
  F   F3        1.0  0.85668  0.11322  0.07051  1.0000
  F   F4        1.0  0.35668  0.38679  0.42949  1.0000
  F   F5        1.0  0.34972  0.25423  0.08263  1.0000
  F   F6        1.0  0.84972  0.24577  0.41737  1.0000
  F   F7        1.0  0.65027  0.74576  0.91737  1.0000
  F   F8        1.0  0.15027  0.75423  0.58263  1.0000
