data_image0
_chemical_formula_structural       K2V2H36C18N4O20
_chemical_formula_sum              "K2 V2 H36 C18 N4 O20"
_cell_length_a       6.55998
_cell_length_b       9.90198
_cell_length_c       13.1258
_cell_angle_alpha    71.6051
_cell_angle_beta     76.2879
_cell_angle_gamma    72.2035

_space_group_name_H-M_alt    "P 1"
_space_group_IT_number       1

loop_
  _space_group_symop_operation_xyz
  'x, y, z'

loop_
  _atom_site_type_symbol
  _atom_site_label
  _atom_site_symmetry_multiplicity
  _atom_site_fract_x
  _atom_site_fract_y
  _atom_site_fract_z
  _atom_site_occupancy
  K   K1        1.0  0.58040  0.82884  0.63118  1.0000
  K   K2        1.0  0.41961  0.17116  0.36882  1.0000
  V   V1        1.0  0.10445  0.19641  0.80408  1.0000
  V   V2        1.0  0.89555  0.80359  0.19592  1.0000
  H   H1        1.0  0.24530  0.28009  0.04758  1.0000
  H   H2        1.0  0.75469  0.71991  0.95242  1.0000
  H   H3        1.0  0.13182  0.12766  0.07618  1.0000
  H   H4        1.0  0.86818  0.87234  0.92382  1.0000
  H   H5        1.0  0.52256  0.97745  0.88581  1.0000
  H   H6        1.0  0.47745  0.02255  0.11419  1.0000
  H   H7        1.0  0.30098  0.95331  0.99239  1.0000
  H   H8        1.0  0.69902  0.04669  0.00761  1.0000
  H   H9        1.0  0.60307  0.19956  0.81304  1.0000
  H   H10       1.0  0.39693  0.80044  0.18696  1.0000
  H   H11       1.0  0.54831  0.27979  0.92256  1.0000
  H   H12       1.0  0.45169  0.72022  0.07744  1.0000
  H   H13       1.0  0.23887  0.47219  0.84316  1.0000
  H   H14       1.0  0.76112  0.52781  0.15684  1.0000
  H   H15       1.0  0.48811  0.47495  0.75483  1.0000
  H   H16       1.0  0.51189  0.52506  0.24518  1.0000
  H   H17       1.0  0.14677  0.59469  0.59724  1.0000
  H   H18       1.0  0.85323  0.40531  0.40276  1.0000
  H   H19       1.0  0.01425  0.57360  0.73193  1.0000
  H   H20       1.0  0.98575  0.42640  0.26807  1.0000
  H   H21       1.0  0.58613  0.36537  0.61695  1.0000
  H   H22       1.0  0.41387  0.63463  0.38305  1.0000
  H   H23       1.0  0.37382  0.40217  0.54308  1.0000
  H   H24       1.0  0.62618  0.59782  0.45692  1.0000
  H   H25       1.0  0.00007  0.78813  0.42670  1.0000
  H   H26       1.0  0.99993  0.21186  0.57330  1.0000
  H   H27       1.0  0.09712  0.86493  0.48263  1.0000
  H   H28       1.0  0.90289  0.13506  0.51737  1.0000
  H   H29       1.0  0.70317  0.53570  0.86624  1.0000
  H   H30       1.0  0.29683  0.46430  0.13376  1.0000
  H   H31       1.0  0.46858  0.62898  0.89095  1.0000
  H   H32       1.0  0.53142  0.37101  0.10905  1.0000
  H   H33       1.0  0.15375  0.74715  0.80506  1.0000
  H   H34       1.0  0.84625  0.25286  0.19494  1.0000
  H   H35       1.0  0.09956  0.91327  0.74858  1.0000
  H   H36       1.0  0.90044  0.08674  0.25141  1.0000
  C   C1        1.0  0.16867  0.22405  0.01227  1.0000
  C   C2        1.0  0.83133  0.77595  0.98773  1.0000
  C   C3        1.0  0.95184  0.32121  0.98454  1.0000
  C   C4        1.0  0.04817  0.67879  0.01546  1.0000
  C   C5        1.0  0.42754  0.01337  0.95775  1.0000
  C   C6        1.0  0.57246  0.98663  0.04225  1.0000
  C   C7        1.0  0.47351  0.26240  0.86272  1.0000
  C   C8        1.0  0.52649  0.73760  0.13729  1.0000
  C   C9        1.0  0.36734  0.41000  0.79293  1.0000
  C   C10       1.0  0.63266  0.59000  0.20707  1.0000
  C   C11       1.0  0.09273  0.51339  0.66979  1.0000
  C   C12       1.0  0.90726  0.48661  0.33021  1.0000
  C   C13       1.0  0.92135  0.45833  0.64531  1.0000
  C   C14       1.0  0.07865  0.54167  0.35469  1.0000
  C   C15       1.0  0.46996  0.17980  0.62869  1.0000
  C   C16       1.0  0.53004  0.82020  0.37131  1.0000
  C   C17       1.0  0.43103  0.34104  0.62111  1.0000
  C   C18       1.0  0.56898  0.65895  0.37889  1.0000
  N   N1        1.0  0.31367  0.17150  0.91901  1.0000
  N   N2        1.0  0.68633  0.82850  0.08099  1.0000
  N   N3        1.0  0.26940  0.38835  0.71090  1.0000
  N   N4        1.0  0.73060  0.61165  0.28910  1.0000
  O   O1        1.0  0.91261  0.34238  0.88724  1.0000
  O   O2        1.0  0.08739  0.65762  0.11276  1.0000
  O   O3        1.0  0.35839  0.10433  0.71009  1.0000
  O   O4        1.0  0.64161  0.89567  0.28991  1.0000
  O   O5        1.0  0.93952  0.31604  0.68201  1.0000
  O   O6        1.0  0.06048  0.68396  0.31799  1.0000
  O   O7        1.0  0.00232  0.05363  0.85459  1.0000
  O   O8        1.0  0.99769  0.94637  0.14541  1.0000
  O   O9        1.0  0.81655  0.37405  0.05555  1.0000
  O   O10       1.0  0.18344  0.62595  0.94445  1.0000
  O   O11       1.0  0.60235  0.12400  0.55842  1.0000
  O   O12       1.0  0.39766  0.87600  0.44158  1.0000
  O   O13       1.0  0.77256  0.54478  0.59635  1.0000
  O   O14       1.0  0.22744  0.45522  0.40365  1.0000
  O   O15       1.0  0.96253  0.84052  0.48329  1.0000
  O   O16       1.0  0.03748  0.15948  0.51671  1.0000
  O   O17       1.0  0.61319  0.63713  0.85036  1.0000
  O   O18       1.0  0.38681  0.36287  0.14964  1.0000
  O   O19       1.0  0.14966  0.81720  0.73270  1.0000
  O   O20       1.0  0.85034  0.18280  0.26730  1.0000
