data_image0
_chemical_formula_structural       Mn4H36C24O22
_chemical_formula_sum              "Mn4 H36 C24 O22"
_cell_length_a       8.08962
_cell_length_b       10.0456
_cell_length_c       10.5472
_cell_angle_alpha    97.1642
_cell_angle_beta     112.559
_cell_angle_gamma    90.0179

_space_group_name_H-M_alt    "P 1"
_space_group_IT_number       1

loop_
  _space_group_symop_operation_xyz
  'x, y, z'

loop_
  _atom_site_type_symbol
  _atom_site_label
  _atom_site_symmetry_multiplicity
  _atom_site_fract_x
  _atom_site_fract_y
  _atom_site_fract_z
  _atom_site_occupancy
  Mn  Mn1       1.0  0.21101  0.42979  0.04582  1.0000
  Mn  Mn2       1.0  0.83483  0.92972  0.04596  1.0000
  Mn  Mn3       1.0  0.78899  0.57021  0.95418  1.0000
  Mn  Mn4       1.0  0.16516  0.07029  0.95403  1.0000
  H   H1        1.0  0.36477  0.46406  0.85762  1.0000
  H   H2        1.0  0.49281  0.96409  0.85777  1.0000
  H   H3        1.0  0.63524  0.53594  0.14238  1.0000
  H   H4        1.0  0.50719  0.03591  0.14223  1.0000
  H   H5        1.0  0.24337  0.58264  0.84401  1.0000
  H   H6        1.0  0.60069  0.08263  0.84413  1.0000
  H   H7        1.0  0.75663  0.41736  0.15599  1.0000
  H   H8        1.0  0.39931  0.91737  0.15586  1.0000
  H   H9        1.0  0.47694  0.24904  0.08153  1.0000
  H   H10       1.0  0.60466  0.74888  0.08173  1.0000
  H   H11       1.0  0.52306  0.75096  0.91847  1.0000
  H   H12       1.0  0.39534  0.25112  0.91827  1.0000
  H   H13       1.0  0.36826  0.51743  0.38651  1.0000
  H   H14       1.0  0.01824  0.01746  0.38635  1.0000
  H   H15       1.0  0.63174  0.48258  0.61349  1.0000
  H   H16       1.0  0.98176  0.98254  0.61365  1.0000
  H   H17       1.0  0.18908  0.60567  0.41108  1.0000
  H   H18       1.0  0.22209  0.10560  0.41082  1.0000
  H   H19       1.0  0.81092  0.39433  0.58892  1.0000
  H   H20       1.0  0.77791  0.89440  0.58918  1.0000
  H   H21       1.0  0.58742  0.70251  0.54047  1.0000
  H   H22       1.0  0.95338  0.20259  0.54030  1.0000
  H   H23       1.0  0.41258  0.29749  0.45953  1.0000
  H   H24       1.0  0.04663  0.79741  0.45971  1.0000
  H   H25       1.0  0.42642  0.74563  0.61312  1.0000
  H   H26       1.0  0.18710  0.24563  0.61293  1.0000
  H   H27       1.0  0.57358  0.25437  0.38688  1.0000
  H   H28       1.0  0.81291  0.75437  0.38707  1.0000
  H   H29       1.0  0.27507  0.88734  0.42296  1.0000
  H   H30       1.0  0.14824  0.38741  0.42272  1.0000
  H   H31       1.0  0.72494  0.11267  0.57704  1.0000
  H   H32       1.0  0.85176  0.61259  0.57728  1.0000
  H   H33       1.0  0.48551  0.89683  0.40587  1.0000
  H   H34       1.0  0.92073  0.39684  0.40571  1.0000
  H   H35       1.0  0.51449  0.10317  0.59413  1.0000
  H   H36       1.0  0.07927  0.60315  0.59429  1.0000
  C   C1        1.0  0.30839  0.71114  0.29285  1.0000
  C   C2        1.0  0.98462  0.21115  0.29266  1.0000
  C   C3        1.0  0.69161  0.28886  0.70715  1.0000
  C   C4        1.0  0.01538  0.78884  0.70734  1.0000
  C   C5        1.0  0.31925  0.61695  0.40291  1.0000
  C   C6        1.0  0.08380  0.11694  0.40272  1.0000
  C   C7        1.0  0.68075  0.38306  0.59709  1.0000
  C   C8        1.0  0.91620  0.88306  0.59728  1.0000
  C   C9        1.0  0.44663  0.72485  0.51585  1.0000
  C   C10       1.0  0.06956  0.22485  0.51566  1.0000
  C   C11       1.0  0.55337  0.27515  0.48415  1.0000
  C   C12       1.0  0.93044  0.77514  0.48434  1.0000
  C   C13       1.0  0.38411  0.82870  0.41235  1.0000
  C   C14       1.0  0.02858  0.32875  0.41216  1.0000
  C   C15       1.0  0.61589  0.17130  0.58766  1.0000
  C   C16       1.0  0.97143  0.67125  0.58784  1.0000
  C   C17       1.0  0.43279  0.67401  0.21741  1.0000
  C   C18       1.0  0.78471  0.17405  0.21728  1.0000
  C   C19       1.0  0.56721  0.32599  0.78260  1.0000
  C   C20       1.0  0.21530  0.82595  0.78273  1.0000
  C   C21       1.0  0.12121  0.71777  0.18222  1.0000
  C   C22       1.0  0.06116  0.21774  0.18206  1.0000
  C   C23       1.0  0.87879  0.28223  0.81778  1.0000
  C   C24       1.0  0.93884  0.78226  0.81794  1.0000
  O   O1        1.0  0.25109  0.48994  0.86850  1.0000
  O   O2        1.0  0.61740  0.98996  0.86865  1.0000
  O   O3        1.0  0.74891  0.51006  0.13150  1.0000
  O   O4        1.0  0.38259  0.01004  0.13135  1.0000
  O   O5        1.0  0.35723  0.25011  0.99990  1.0000
  O   O6        1.0  0.64276  0.74989  0.00010  1.0000
  O   O7        1.0  0.44760  0.54964  0.18009  1.0000
  O   O8        1.0  0.73249  0.04968  0.18000  1.0000
  O   O9        1.0  0.55240  0.45036  0.81991  1.0000
  O   O10       1.0  0.26751  0.95032  0.82000  1.0000
  O   O11       1.0  0.51297  0.76891  0.19135  1.0000
  O   O12       1.0  0.67850  0.26894  0.19129  1.0000
  O   O13       1.0  0.48704  0.23109  0.80866  1.0000
  O   O14       1.0  0.32150  0.73106  0.80871  1.0000
  O   O15       1.0  0.06700  0.61543  0.08619  1.0000
  O   O16       1.0  0.01942  0.11536  0.08612  1.0000
  O   O17       1.0  0.93300  0.38457  0.91382  1.0000
  O   O18       1.0  0.98057  0.88464  0.91388  1.0000
  O   O19       1.0  0.02910  0.81701  0.18999  1.0000
  O   O20       1.0  0.16103  0.31704  0.18980  1.0000
  O   O21       1.0  0.97090  0.18298  0.81001  1.0000
  O   O22       1.0  0.83898  0.68296  0.81020  1.0000
