data_image0
_chemical_formula_structural       FeH8C10S2N12
_chemical_formula_sum              "Fe1 H8 C10 S2 N12"
_cell_length_a       6.6863
_cell_length_b       7.24048
_cell_length_c       10.912
_cell_angle_alpha    76.1493
_cell_angle_beta     72.0565
_cell_angle_gamma    62.527

_space_group_name_H-M_alt    "P 1"
_space_group_IT_number       1

loop_
  _space_group_symop_operation_xyz
  'x, y, z'

loop_
  _atom_site_type_symbol
  _atom_site_label
  _atom_site_symmetry_multiplicity
  _atom_site_fract_x
  _atom_site_fract_y
  _atom_site_fract_z
  _atom_site_occupancy
  Fe  Fe1       1.0  0.50000  0.50000  1.00000  1.0000
  H   H1        1.0  0.64017  0.54019  0.68095  1.0000
  H   H2        1.0  0.35983  0.45981  0.31905  1.0000
  H   H3        1.0  0.29642  0.19192  0.71540  1.0000
  H   H4        1.0  0.70360  0.80807  0.28460  1.0000
  H   H5        1.0  0.65976  0.82685  0.98243  1.0000
  H   H6        1.0  0.96851  0.17329  0.01746  1.0000
  H   H7        1.0  0.34023  0.17315  0.01757  1.0000
  H   H8        1.0  0.03148  0.82672  0.98254  1.0000
  C   C1        1.0  0.54568  0.68590  0.72403  1.0000
  C   C2        1.0  0.45432  0.31410  0.27597  1.0000
  C   C3        1.0  0.36708  0.02417  0.74213  1.0000
  C   C4        1.0  0.63293  0.97583  0.25787  1.0000
  C   C5        1.0  0.81163  0.68037  0.98980  1.0000
  C   C6        1.0  0.98150  0.31975  0.01010  1.0000
  C   C7        1.0  0.18836  0.31964  0.01020  1.0000
  C   C8        1.0  0.01850  0.68026  0.98990  1.0000
  C   C9        1.0  0.24272  0.80990  0.20431  1.0000
  C   C10       1.0  0.75728  0.19010  0.79570  1.0000
  S   S1        1.0  0.11424  0.94246  0.32809  1.0000
  S   S2        1.0  0.88577  0.05754  0.67191  1.0000
  N   N1        1.0  0.47022  0.71208  0.84837  1.0000
  N   N2        1.0  0.52977  0.28793  0.15164  1.0000
  N   N3        1.0  0.35739  0.92587  0.85977  1.0000
  N   N4        1.0  0.64261  0.07413  0.14023  1.0000
  N   N5        1.0  0.48395  0.87939  0.65365  1.0000
  N   N6        1.0  0.51606  0.12061  0.34635  1.0000
  N   N7        1.0  0.53770  0.90386  0.52141  1.0000
  N   N8        1.0  0.46230  0.09614  0.47859  1.0000
  N   N9        1.0  0.33778  0.70843  0.11564  1.0000
  N   N10       1.0  0.66222  0.29157  0.88436  1.0000
  N   N11       1.0  0.79076  0.50008  0.99993  1.0000
  N   N12       1.0  0.20924  0.49993  0.00007  1.0000
