data_image0
_chemical_formula_structural       Hg2H36C54Br4N4O2
_chemical_formula_sum              "Hg2 H36 C54 Br4 N4 O2"
_cell_length_a       7.17277
_cell_length_b       13.0872
_cell_length_c       14.3712
_cell_angle_alpha    104.717
_cell_angle_beta     105.187
_cell_angle_gamma    89.8067

_space_group_name_H-M_alt    "P 1"
_space_group_IT_number       1

loop_
  _space_group_symop_operation_xyz
  'x, y, z'

loop_
  _atom_site_type_symbol
  _atom_site_label
  _atom_site_symmetry_multiplicity
  _atom_site_fract_x
  _atom_site_fract_y
  _atom_site_fract_z
  _atom_site_occupancy
  Hg  Hg1       1.0  0.15441  0.99916  0.99772  1.0000
  Hg  Hg2       1.0  0.05121  0.49937  0.99939  1.0000
  H   H1        1.0  0.28254  0.00992  0.36643  1.0000
  H   H2        1.0  0.91736  0.99005  0.63488  1.0000
  H   H3        1.0  0.18363  0.83608  0.24295  1.0000
  H   H4        1.0  0.94063  0.16343  0.75848  1.0000
  H   H5        1.0  0.08581  0.68156  0.29521  1.0000
  H   H6        1.0  0.78917  0.31810  0.70506  1.0000
  H   H7        1.0  0.07901  0.70434  0.47136  1.0000
  H   H8        1.0  0.60599  0.29594  0.52775  1.0000
  H   H9        1.0  0.16682  0.87849  0.59367  1.0000
  H   H10       1.0  0.57299  0.12231  0.40512  1.0000
  H   H11       1.0  0.61093  0.93646  0.66495  1.0000
  H   H12       1.0  0.94782  0.06365  0.33718  1.0000
  H   H13       1.0  0.69103  0.83030  0.79060  1.0000
  H   H14       1.0  0.90048  0.16897  0.21128  1.0000
  H   H15       1.0  0.51203  0.85757  0.92304  1.0000
  H   H16       1.0  0.58585  0.14099  0.07608  1.0000
  H   H17       1.0  0.20110  0.09100  0.81905  1.0000
  H   H18       1.0  0.37973  0.90882  0.17896  1.0000
  H   H19       1.0  0.67089  0.19683  0.85090  1.0000
  H   H20       1.0  0.82089  0.80340  0.15152  1.0000
  H   H21       1.0  0.73324  0.29482  0.03005  1.0000
  H   H22       1.0  0.70146  0.70491  0.97216  1.0000
  H   H23       1.0  0.47987  0.41056  0.08471  1.0000
  H   H24       1.0  0.39220  0.58870  0.91525  1.0000
  H   H25       1.0  0.13147  0.34940  0.79466  1.0000
  H   H26       1.0  0.33739  0.65085  0.20351  1.0000
  H   H27       1.0  0.52355  0.42121  0.73804  1.0000
  H   H28       1.0  0.78546  0.57836  0.26373  1.0000
  H   H29       1.0  0.48986  0.60860  0.74153  1.0000
  H   H30       1.0  0.74749  0.39109  0.26027  1.0000
  H   H31       1.0  0.19912  0.66387  0.63023  1.0000
  H   H32       1.0  0.56899  0.33659  0.36972  1.0000
  H   H33       1.0  0.94908  0.52602  0.51088  1.0000
  H   H34       1.0  0.44028  0.47509  0.48757  1.0000
  H   H35       1.0  0.98558  0.33695  0.50576  1.0000
  H   H36       1.0  0.48258  0.66395  0.49272  1.0000
  C   C1        1.0  0.23212  0.16431  0.52926  1.0000
  C   C2        1.0  0.70322  0.83623  0.47063  1.0000
  C   C3        1.0  0.28070  0.06240  0.56045  1.0000
  C   C4        1.0  0.72095  0.93806  0.43973  1.0000
  C   C5        1.0  0.34614  0.09164  0.66239  1.0000
  C   C6        1.0  0.68465  0.90866  0.33799  1.0000
  C   C7        1.0  0.34199  0.20974  0.70049  1.0000
  C   C8        1.0  0.64292  0.79055  0.29981  1.0000
  C   C9        1.0  0.27417  0.25383  0.62263  1.0000
  C   C10       1.0  0.65276  0.74648  0.37736  1.0000
  C   C11       1.0  0.23479  0.95795  0.49000  1.0000
  C   C12       1.0  0.74527  0.04245  0.51011  1.0000
  C   C13       1.0  0.23775  0.94333  0.38973  1.0000
  C   C14       1.0  0.84866  0.05674  0.61111  1.0000
  C   C15       1.0  0.18298  0.84513  0.32049  1.0000
  C   C16       1.0  0.86253  0.15465  0.68040  1.0000
  C   C17       1.0  0.12751  0.75849  0.34934  1.0000
  C   C18       1.0  0.77730  0.24136  0.65092  1.0000
  C   C19       1.0  0.12503  0.77125  0.44854  1.0000
  C   C20       1.0  0.67565  0.22898  0.55103  1.0000
  C   C21       1.0  0.17613  0.86947  0.51761  1.0000
  C   C22       1.0  0.65849  0.13104  0.48181  1.0000
  C   C23       1.0  0.39895  0.02361  0.73098  1.0000
  C   C24       1.0  0.66795  0.97640  0.26927  1.0000
  C   C25       1.0  0.53738  0.94790  0.72387  1.0000
  C   C26       1.0  0.81397  0.05193  0.27734  1.0000
  C   C27       1.0  0.58104  0.88787  0.79325  1.0000
  C   C28       1.0  0.78736  0.11150  0.20764  1.0000
  C   C29       1.0  0.48296  0.90272  0.86711  1.0000
  C   C30       1.0  0.61396  0.09627  0.13235  1.0000
  C   C31       1.0  0.30921  0.03346  0.80848  1.0000
  C   C32       1.0  0.49916  0.96616  0.19040  1.0000
  C   C33       1.0  0.39447  0.26449  0.80689  1.0000
  C   C34       1.0  0.58859  0.73569  0.19342  1.0000
  C   C35       1.0  0.56455  0.24904  0.87554  1.0000
  C   C36       1.0  0.68943  0.75100  0.12590  1.0000
  C   C37       1.0  0.59913  0.30291  0.97613  1.0000
  C   C38       1.0  0.62197  0.69678  0.02522  1.0000
  C   C39       1.0  0.46100  0.36822  0.00656  1.0000
  C   C40       1.0  0.45277  0.63123  0.99353  1.0000
  C   C41       1.0  0.26548  0.33371  0.84455  1.0000
  C   C42       1.0  0.42121  0.66632  0.15454  1.0000
  C   C43       1.0  0.25499  0.36503  0.62286  1.0000
  C   C44       1.0  0.63327  0.63531  0.37716  1.0000
  C   C45       1.0  0.39592  0.44354  0.68886  1.0000
  C   C46       1.0  0.70740  0.55641  0.31216  1.0000
  C   C47       1.0  0.37658  0.54988  0.69086  1.0000
  C   C48       1.0  0.68562  0.45015  0.31017  1.0000
  C   C49       1.0  0.21520  0.58032  0.62755  1.0000
  C   C50       1.0  0.58799  0.42008  0.37246  1.0000
  C   C51       1.0  0.07546  0.50331  0.56072  1.0000
  C   C52       1.0  0.51618  0.49745  0.43838  1.0000
  C   C53       1.0  0.09552  0.39649  0.55760  1.0000
  C   C54       1.0  0.53981  0.60420  0.44154  1.0000
  Br  Br1       1.0  0.05129  0.18073  0.98803  1.0000
  Br  Br2       1.0  0.05748  0.81920  0.00872  1.0000
  Br  Br3       1.0  0.88931  0.52831  0.83131  1.0000
  Br  Br4       1.0  0.05747  0.47236  0.16723  1.0000
  N   N1        1.0  0.34802  0.97373  0.87338  1.0000
  N   N2        1.0  0.47246  0.02533  0.12513  1.0000
  N   N3        1.0  0.29719  0.38248  0.94126  1.0000
  N   N4        1.0  0.35503  0.61710  0.05780  1.0000
  O   O1        1.0  0.16807  0.17273  0.44378  1.0000
  O   O2        1.0  0.72349  0.82817  0.55589  1.0000
