data_image0
_chemical_formula_structural       Co3H26C40N4O10
_chemical_formula_sum              "Co3 H26 C40 N4 O10"
_cell_length_a       8.07333
_cell_length_b       10.3877
_cell_length_c       10.9877
_cell_angle_alpha    111.504
_cell_angle_beta     90.6703
_cell_angle_gamma    91.6367

_space_group_name_H-M_alt    "P 1"
_space_group_IT_number       1

loop_
  _space_group_symop_operation_xyz
  'x, y, z'

loop_
  _atom_site_type_symbol
  _atom_site_label
  _atom_site_symmetry_multiplicity
  _atom_site_fract_x
  _atom_site_fract_y
  _atom_site_fract_z
  _atom_site_occupancy
  Co  Co1       1.0  0.49916  0.99950  0.50000  1.0000
  Co  Co2       1.0  0.73533  0.75519  0.50572  1.0000
  Co  Co3       1.0  0.26439  0.24522  0.49479  1.0000
  H   H1        1.0  0.73408  0.89630  0.38224  1.0000
  H   H2        1.0  0.26540  0.10419  0.61837  1.0000
  H   H3        1.0  0.90562  0.04119  0.64102  1.0000
  H   H4        1.0  0.09424  0.95918  0.35925  1.0000
  H   H5        1.0  0.09912  0.13445  0.83552  1.0000
  H   H6        1.0  0.90127  0.86569  0.16440  1.0000
  H   H7        1.0  0.18591  0.97931  0.95303  1.0000
  H   H8        1.0  0.81458  0.02081  0.04681  1.0000
  H   H9        1.0  0.16771  0.73066  0.95966  1.0000
  H   H10       1.0  0.83228  0.26950  0.04041  1.0000
  H   H11       1.0  0.05985  0.48823  0.85805  1.0000
  H   H12       1.0  0.93979  0.51206  0.14217  1.0000
  H   H13       1.0  0.89531  0.30110  0.66838  1.0000
  H   H14       1.0  0.10414  0.69919  0.33181  1.0000
  H   H15       1.0  0.70422  0.25322  0.47266  1.0000
  H   H16       1.0  0.29566  0.74708  0.52728  1.0000
  H   H17       1.0  0.63680  0.44321  0.39579  1.0000
  H   H18       1.0  0.36353  0.55715  0.60403  1.0000
  H   H19       1.0  0.48990  0.17994  0.90139  1.0000
  H   H20       1.0  0.51081  0.81908  0.09824  1.0000
  H   H21       1.0  0.53418  0.75354  0.85556  1.0000
  H   H22       1.0  0.46686  0.24544  0.14403  1.0000
  H   H23       1.0  0.77137  0.62132  0.00488  1.0000
  H   H24       1.0  0.22877  0.37893  0.99530  1.0000
  H   H25       1.0  0.37613  0.51002  0.20905  1.0000
  H   H26       1.0  0.62410  0.49019  0.79111  1.0000
  C   C1        1.0  0.94838  0.97613  0.69257  1.0000
  C   C2        1.0  0.05159  0.02418  0.30761  1.0000
  C   C3        1.0  0.05494  0.02678  0.80308  1.0000
  C   C4        1.0  0.94536  0.97339  0.19685  1.0000
  C   C5        1.0  0.10421  0.94048  0.86677  1.0000
  C   C6        1.0  0.89615  0.05964  0.13315  1.0000
  C   C7        1.0  0.04768  0.80062  0.81762  1.0000
  C   C8        1.0  0.95246  0.19957  0.18239  1.0000
  C   C9        1.0  0.08757  0.69901  0.87227  1.0000
  C   C10       1.0  0.91245  0.30118  0.12778  1.0000
  C   C11       1.0  0.02818  0.56476  0.81621  1.0000
  C   C12       1.0  0.97162  0.43549  0.18391  1.0000
  C   C13       1.0  0.92568  0.51937  0.69954  1.0000
  C   C14       1.0  0.07419  0.48085  0.30053  1.0000
  C   C15       1.0  0.86321  0.38256  0.63292  1.0000
  C   C16       1.0  0.13651  0.61770  0.36716  1.0000
  C   C17       1.0  0.76017  0.35577  0.52399  1.0000
  C   C18       1.0  0.23974  0.64453  0.47597  1.0000
  C   C19       1.0  0.72015  0.46208  0.47955  1.0000
  C   C20       1.0  0.28002  0.53821  0.52033  1.0000
  C   C21       1.0  0.94234  0.75801  0.70542  1.0000
  C   C22       1.0  0.05763  0.24224  0.29470  1.0000
  C   C23       1.0  0.88192  0.61940  0.64718  1.0000
  C   C24       1.0  0.11807  0.38088  0.35289  1.0000
  C   C25       1.0  0.49513  0.10194  0.94562  1.0000
  C   C26       1.0  0.50593  0.89705  0.05400  1.0000
  C   C27       1.0  0.51398  0.96302  0.86440  1.0000
  C   C28       1.0  0.48701  0.03595  0.13518  1.0000
  C   C29       1.0  0.52004  0.86092  0.91972  1.0000
  C   C30       1.0  0.48115  0.13807  0.07989  1.0000
  C   C31       1.0  0.52341  0.92234  0.71994  1.0000
  C   C32       1.0  0.47594  0.07653  0.27964  1.0000
  C   C33       1.0  0.65280  0.56733  0.00194  1.0000
  C   C34       1.0  0.34742  0.43280  0.99821  1.0000
  C   C35       1.0  0.58256  0.57292  0.11995  1.0000
  C   C36       1.0  0.41767  0.42724  0.88021  1.0000
  C   C37       1.0  0.42933  0.50481  0.11696  1.0000
  C   C38       1.0  0.57090  0.49534  0.88320  1.0000
  C   C39       1.0  0.67067  0.65346  0.24682  1.0000
  C   C40       1.0  0.32946  0.34695  0.75332  1.0000
  N   N1        1.0  0.89173  0.84405  0.64425  1.0000
  N   N2        1.0  0.10803  0.15627  0.35600  1.0000
  N   N3        1.0  0.78130  0.59205  0.53865  1.0000
  N   N4        1.0  0.21890  0.40826  0.46130  1.0000
  O   O1        1.0  0.50109  0.02053  0.67658  1.0000
  O   O2        1.0  0.49676  0.97823  0.32305  1.0000
  O   O3        1.0  0.55058  0.79729  0.65046  1.0000
  O   O4        1.0  0.44836  0.20161  0.34870  1.0000
  O   O5        1.0  0.60281  0.65063  0.35201  1.0000
  O   O6        1.0  0.39743  0.34967  0.64814  1.0000
  O   O7        1.0  0.80456  0.71962  0.24734  1.0000
  O   O8        1.0  0.19525  0.28111  0.75263  1.0000
  O   O9        1.0  0.70570  0.92289  0.47481  1.0000
  O   O10       1.0  0.29331  0.07743  0.52572  1.0000
