data_image0
_chemical_formula_structural       Hg8H48C48N32
_chemical_formula_sum              "Hg8 H48 C48 N32"
_cell_length_a       9.74351
_cell_length_b       10.9368
_cell_length_c       14.5899
_cell_angle_alpha    90
_cell_angle_beta     90
_cell_angle_gamma    90

_space_group_name_H-M_alt    "P 1"
_space_group_IT_number       1

loop_
  _space_group_symop_operation_xyz
  'x, y, z'

loop_
  _atom_site_type_symbol
  _atom_site_label
  _atom_site_symmetry_multiplicity
  _atom_site_fract_x
  _atom_site_fract_y
  _atom_site_fract_z
  _atom_site_occupancy
  Hg  Hg1       1.0  0.67662  0.47094  0.89831  1.0000
  Hg  Hg2       1.0  0.17662  0.52906  0.60169  1.0000
  Hg  Hg3       1.0  0.32338  0.02906  0.39831  1.0000
  Hg  Hg4       1.0  0.82338  0.97094  0.10169  1.0000
  Hg  Hg5       1.0  0.32338  0.52906  0.10169  1.0000
  Hg  Hg6       1.0  0.82338  0.47094  0.39831  1.0000
  Hg  Hg7       1.0  0.67662  0.97094  0.60169  1.0000
  Hg  Hg8       1.0  0.17662  0.02906  0.89831  1.0000
  H   H1        1.0  0.66566  0.76282  0.96924  1.0000
  H   H2        1.0  0.16566  0.23718  0.53076  1.0000
  H   H3        1.0  0.33434  0.73718  0.46925  1.0000
  H   H4        1.0  0.83434  0.26282  0.03076  1.0000
  H   H5        1.0  0.33434  0.23718  0.03076  1.0000
  H   H6        1.0  0.83434  0.76282  0.46925  1.0000
  H   H7        1.0  0.66566  0.26282  0.53075  1.0000
  H   H8        1.0  0.16566  0.73718  0.96924  1.0000
  H   H9        1.0  0.94423  0.60254  0.76228  1.0000
  H   H10       1.0  0.44423  0.39746  0.73772  1.0000
  H   H11       1.0  0.05577  0.89746  0.26228  1.0000
  H   H12       1.0  0.55577  0.10254  0.23772  1.0000
  H   H13       1.0  0.05577  0.39746  0.23771  1.0000
  H   H14       1.0  0.55577  0.60253  0.26228  1.0000
  H   H15       1.0  0.94423  0.10254  0.73771  1.0000
  H   H16       1.0  0.44423  0.89746  0.76229  1.0000
  H   H17       1.0  0.98526  0.69569  0.15754  1.0000
  H   H18       1.0  0.48526  0.30431  0.34246  1.0000
  H   H19       1.0  0.01474  0.80431  0.65754  1.0000
  H   H20       1.0  0.51474  0.19569  0.84246  1.0000
  H   H21       1.0  0.01474  0.30431  0.84246  1.0000
  H   H22       1.0  0.51474  0.69569  0.65754  1.0000
  H   H23       1.0  0.98526  0.19569  0.34246  1.0000
  H   H24       1.0  0.48526  0.80431  0.15754  1.0000
  H   H25       1.0  0.95347  0.28237  0.60172  1.0000
  H   H26       1.0  0.45347  0.71763  0.89828  1.0000
  H   H27       1.0  0.04653  0.21763  0.10172  1.0000
  H   H28       1.0  0.54653  0.78237  0.39828  1.0000
  H   H29       1.0  0.04653  0.71763  0.39828  1.0000
  H   H30       1.0  0.54653  0.28237  0.10172  1.0000
  H   H31       1.0  0.95347  0.78237  0.89828  1.0000
  H   H32       1.0  0.45347  0.21763  0.60172  1.0000
  H   H33       1.0  0.91331  0.47831  0.07253  1.0000
  H   H34       1.0  0.41331  0.52169  0.42747  1.0000
  H   H35       1.0  0.08669  0.02169  0.57253  1.0000
  H   H36       1.0  0.58669  0.97831  0.92747  1.0000
  H   H37       1.0  0.08669  0.52169  0.92747  1.0000
  H   H38       1.0  0.58669  0.47831  0.57253  1.0000
  H   H39       1.0  0.91331  0.97831  0.42747  1.0000
  H   H40       1.0  0.41331  0.02169  0.07253  1.0000
  H   H41       1.0  0.74677  0.26203  0.73252  1.0000
  H   H42       1.0  0.24678  0.73797  0.76748  1.0000
  H   H43       1.0  0.25322  0.23797  0.23252  1.0000
  H   H44       1.0  0.75323  0.76203  0.26748  1.0000
  H   H45       1.0  0.25322  0.73797  0.26748  1.0000
  H   H46       1.0  0.75322  0.26202  0.23252  1.0000
  H   H47       1.0  0.74677  0.76203  0.76748  1.0000
  H   H48       1.0  0.24678  0.23797  0.73252  1.0000
  C   C1        1.0  0.74232  0.71463  0.00911  1.0000
  C   C2        1.0  0.24233  0.28537  0.49089  1.0000
  C   C3        1.0  0.25768  0.78537  0.50911  1.0000
  C   C4        1.0  0.75768  0.21463  0.99089  1.0000
  C   C5        1.0  0.25768  0.28537  0.99089  1.0000
  C   C6        1.0  0.75768  0.71463  0.50911  1.0000
  C   C7        1.0  0.74232  0.21463  0.49089  1.0000
  C   C8        1.0  0.24233  0.78537  0.00911  1.0000
  C   C9        1.0  0.91840  0.51220  0.73673  1.0000
  C   C10       1.0  0.41840  0.48780  0.76327  1.0000
  C   C11       1.0  0.08160  0.98780  0.23673  1.0000
  C   C12       1.0  0.58160  0.01220  0.26327  1.0000
  C   C13       1.0  0.08160  0.48780  0.26327  1.0000
  C   C14       1.0  0.58160  0.51220  0.23673  1.0000
  C   C15       1.0  0.91840  0.01220  0.76327  1.0000
  C   C16       1.0  0.41840  0.98780  0.73673  1.0000
  C   C17       1.0  0.90814  0.67776  0.10566  1.0000
  C   C18       1.0  0.40814  0.32224  0.39434  1.0000
  C   C19       1.0  0.09186  0.82224  0.60566  1.0000
  C   C20       1.0  0.59186  0.17776  0.89434  1.0000
  C   C21       1.0  0.09186  0.32224  0.89434  1.0000
  C   C22       1.0  0.59186  0.67776  0.60566  1.0000
  C   C23       1.0  0.90814  0.17776  0.39434  1.0000
  C   C24       1.0  0.40814  0.82224  0.10566  1.0000
  C   C25       1.0  0.92238  0.34525  0.65525  1.0000
  C   C26       1.0  0.42238  0.65475  0.84475  1.0000
  C   C27       1.0  0.07762  0.15475  0.15525  1.0000
  C   C28       1.0  0.57762  0.84525  0.34476  1.0000
  C   C29       1.0  0.07762  0.65475  0.34476  1.0000
  C   C30       1.0  0.57762  0.34525  0.15524  1.0000
  C   C31       1.0  0.92238  0.84525  0.84476  1.0000
  C   C32       1.0  0.42238  0.15475  0.65524  1.0000
  C   C33       1.0  0.87251  0.56956  0.06348  1.0000
  C   C34       1.0  0.37251  0.43044  0.43652  1.0000
  C   C35       1.0  0.12749  0.93044  0.56348  1.0000
  C   C36       1.0  0.62749  0.06956  0.93652  1.0000
  C   C37       1.0  0.12749  0.43044  0.93652  1.0000
  C   C38       1.0  0.62749  0.56956  0.56348  1.0000
  C   C39       1.0  0.87251  0.06956  0.43652  1.0000
  C   C40       1.0  0.37251  0.93044  0.06348  1.0000
  C   C41       1.0  0.81823  0.33608  0.71916  1.0000
  C   C42       1.0  0.31823  0.66391  0.78084  1.0000
  C   C43       1.0  0.18177  0.16392  0.21916  1.0000
  C   C44       1.0  0.68177  0.83609  0.28084  1.0000
  C   C45       1.0  0.18177  0.66392  0.28084  1.0000
  C   C46       1.0  0.68177  0.33608  0.21916  1.0000
  C   C47       1.0  0.81823  0.83609  0.78084  1.0000
  C   C48       1.0  0.31823  0.16392  0.71916  1.0000
  N   N1        1.0  0.76788  0.59391  0.00224  1.0000
  N   N2        1.0  0.26788  0.40609  0.49776  1.0000
  N   N3        1.0  0.23212  0.90609  0.50224  1.0000
  N   N4        1.0  0.73212  0.09391  0.99776  1.0000
  N   N5        1.0  0.23212  0.40609  0.99776  1.0000
  N   N6        1.0  0.73212  0.59391  0.50224  1.0000
  N   N7        1.0  0.76788  0.09391  0.49776  1.0000
  N   N8        1.0  0.26788  0.90609  0.00224  1.0000
  N   N9        1.0  0.81680  0.44222  0.77022  1.0000
  N   N10       1.0  0.31680  0.55778  0.72978  1.0000
  N   N11       1.0  0.18320  0.05778  0.27022  1.0000
  N   N12       1.0  0.68320  0.94222  0.22978  1.0000
  N   N13       1.0  0.18320  0.55778  0.22978  1.0000
  N   N14       1.0  0.68320  0.44221  0.27022  1.0000
  N   N15       1.0  0.81680  0.94222  0.72978  1.0000
  N   N16       1.0  0.31680  0.05778  0.77022  1.0000
  N   N17       1.0  0.82517  0.76883  0.07045  1.0000
  N   N18       1.0  0.32517  0.23117  0.42955  1.0000
  N   N19       1.0  0.17484  0.73117  0.57045  1.0000
  N   N20       1.0  0.67484  0.26883  0.92955  1.0000
  N   N21       1.0  0.17484  0.23117  0.92955  1.0000
  N   N22       1.0  0.67483  0.76883  0.57045  1.0000
  N   N23       1.0  0.82517  0.26883  0.42955  1.0000
  N   N24       1.0  0.32517  0.73117  0.07045  1.0000
  N   N25       1.0  0.98501  0.45723  0.66693  1.0000
  N   N26       1.0  0.48501  0.54277  0.83307  1.0000
  N   N27       1.0  0.01499  0.04277  0.16693  1.0000
  N   N28       1.0  0.51499  0.95723  0.33307  1.0000
  N   N29       1.0  0.01499  0.54277  0.33307  1.0000
  N   N30       1.0  0.51499  0.45722  0.16693  1.0000
  N   N31       1.0  0.98501  0.95723  0.83307  1.0000
  N   N32       1.0  0.48501  0.04277  0.66693  1.0000
