data_image0
_chemical_formula_structural       Cd8H48C48N32
_chemical_formula_sum              "Cd8 H48 C48 N32"
_cell_length_a       9.84007
_cell_length_b       10.8625
_cell_length_c       14.7195
_cell_angle_alpha    90
_cell_angle_beta     90
_cell_angle_gamma    90

_space_group_name_H-M_alt    "P 1"
_space_group_IT_number       1

loop_
  _space_group_symop_operation_xyz
  'x, y, z'

loop_
  _atom_site_type_symbol
  _atom_site_label
  _atom_site_symmetry_multiplicity
  _atom_site_fract_x
  _atom_site_fract_y
  _atom_site_fract_z
  _atom_site_occupancy
  Cd  Cd1       1.0  0.19834  0.96696  0.88997  1.0000
  Cd  Cd2       1.0  0.80166  0.53304  0.38997  1.0000
  Cd  Cd3       1.0  0.30166  0.46696  0.11003  1.0000
  Cd  Cd4       1.0  0.69834  0.03304  0.61003  1.0000
  Cd  Cd5       1.0  0.80166  0.03304  0.11003  1.0000
  Cd  Cd6       1.0  0.19834  0.46696  0.61003  1.0000
  Cd  Cd7       1.0  0.69834  0.53304  0.88997  1.0000
  Cd  Cd8       1.0  0.30166  0.96696  0.38997  1.0000
  H   H1        1.0  0.46743  0.10352  0.76937  1.0000
  H   H2        1.0  0.53257  0.39648  0.26937  1.0000
  H   H3        1.0  0.03257  0.60352  0.23063  1.0000
  H   H4        1.0  0.96743  0.89648  0.73063  1.0000
  H   H5        1.0  0.53257  0.89647  0.23063  1.0000
  H   H6        1.0  0.46743  0.60353  0.73063  1.0000
  H   H7        1.0  0.96743  0.39648  0.76937  1.0000
  H   H8        1.0  0.03257  0.10353  0.26937  1.0000
  H   H9        1.0  0.46566  0.79657  0.59443  1.0000
  H   H10       1.0  0.53434  0.70343  0.09443  1.0000
  H   H11       1.0  0.03434  0.29657  0.40557  1.0000
  H   H12       1.0  0.96566  0.20343  0.90557  1.0000
  H   H13       1.0  0.53433  0.20343  0.40557  1.0000
  H   H14       1.0  0.46566  0.29657  0.90557  1.0000
  H   H15       1.0  0.96566  0.70343  0.59443  1.0000
  H   H16       1.0  0.03434  0.79657  0.09443  1.0000
  H   H17       1.0  0.26055  0.77011  0.72264  1.0000
  H   H18       1.0  0.73945  0.72989  0.22264  1.0000
  H   H19       1.0  0.23945  0.27011  0.27736  1.0000
  H   H20       1.0  0.76055  0.22989  0.77736  1.0000
  H   H21       1.0  0.73945  0.22989  0.27736  1.0000
  H   H22       1.0  0.26055  0.27011  0.77736  1.0000
  H   H23       1.0  0.76055  0.72989  0.72264  1.0000
  H   H24       1.0  0.23945  0.77011  0.22264  1.0000
  H   H25       1.0  0.33161  0.76221  0.03879  1.0000
  H   H26       1.0  0.66839  0.73779  0.53879  1.0000
  H   H27       1.0  0.16839  0.26221  0.96121  1.0000
  H   H28       1.0  0.83161  0.23779  0.46121  1.0000
  H   H29       1.0  0.66838  0.23779  0.96121  1.0000
  H   H30       1.0  0.33161  0.26221  0.46121  1.0000
  H   H31       1.0  0.83161  0.73779  0.03879  1.0000
  H   H32       1.0  0.16839  0.76221  0.53879  1.0000
  H   H33       1.0  0.08274  0.48202  0.93150  1.0000
  H   H34       1.0  0.91726  0.01798  0.43150  1.0000
  H   H35       1.0  0.41726  0.98202  0.06850  1.0000
  H   H36       1.0  0.58274  0.51798  0.56850  1.0000
  H   H37       1.0  0.91726  0.51798  0.06850  1.0000
  H   H38       1.0  0.08274  0.98202  0.56850  1.0000
  H   H39       1.0  0.58274  0.01798  0.93150  1.0000
  H   H40       1.0  0.41726  0.48202  0.43150  1.0000
  H   H41       1.0  0.03177  0.69953  0.83963  1.0000
  H   H42       1.0  0.96823  0.80047  0.33962  1.0000
  H   H43       1.0  0.46823  0.19953  0.16037  1.0000
  H   H44       1.0  0.53177  0.30047  0.66038  1.0000
  H   H45       1.0  0.96823  0.30047  0.16037  1.0000
  H   H46       1.0  0.03177  0.19953  0.66038  1.0000
  H   H47       1.0  0.53177  0.80047  0.83963  1.0000
  H   H48       1.0  0.46823  0.69953  0.33962  1.0000
  C   C1        1.0  0.43941  0.01574  0.73940  1.0000
  C   C2        1.0  0.56059  0.48426  0.23940  1.0000
  C   C3        1.0  0.06059  0.51574  0.26060  1.0000
  C   C4        1.0  0.93941  0.98426  0.76060  1.0000
  C   C5        1.0  0.56059  0.98425  0.26060  1.0000
  C   C6        1.0  0.43941  0.51574  0.76060  1.0000
  C   C7        1.0  0.93941  0.48426  0.73940  1.0000
  C   C8        1.0  0.06059  0.01574  0.23940  1.0000
  C   C9        1.0  0.43754  0.85578  0.65068  1.0000
  C   C10       1.0  0.56247  0.64422  0.15068  1.0000
  C   C11       1.0  0.06246  0.35578  0.34932  1.0000
  C   C12       1.0  0.93753  0.14422  0.84932  1.0000
  C   C13       1.0  0.56246  0.14422  0.34932  1.0000
  C   C14       1.0  0.43753  0.35578  0.84932  1.0000
  C   C15       1.0  0.93754  0.64422  0.65068  1.0000
  C   C16       1.0  0.06247  0.85578  0.15068  1.0000
  C   C17       1.0  0.33409  0.84357  0.71340  1.0000
  C   C18       1.0  0.66591  0.65643  0.21340  1.0000
  C   C19       1.0  0.16592  0.34357  0.28660  1.0000
  C   C20       1.0  0.83409  0.15643  0.78660  1.0000
  C   C21       1.0  0.66591  0.15643  0.28660  1.0000
  C   C22       1.0  0.33409  0.34357  0.78660  1.0000
  C   C23       1.0  0.83409  0.65643  0.71340  1.0000
  C   C24       1.0  0.16591  0.84357  0.21340  1.0000
  C   C25       1.0  0.25763  0.71497  0.99672  1.0000
  C   C26       1.0  0.74237  0.78503  0.49672  1.0000
  C   C27       1.0  0.24237  0.21497  0.00328  1.0000
  C   C28       1.0  0.75763  0.28503  0.50328  1.0000
  C   C29       1.0  0.74237  0.28503  0.00328  1.0000
  C   C30       1.0  0.25763  0.21497  0.50328  1.0000
  C   C31       1.0  0.75763  0.78503  0.99672  1.0000
  C   C32       1.0  0.24237  0.71497  0.49672  1.0000
  C   C33       1.0  0.12737  0.57236  0.94040  1.0000
  C   C34       1.0  0.87263  0.92763  0.44040  1.0000
  C   C35       1.0  0.37263  0.07236  0.05960  1.0000
  C   C36       1.0  0.62737  0.42763  0.55960  1.0000
  C   C37       1.0  0.87263  0.42764  0.05960  1.0000
  C   C38       1.0  0.12737  0.07237  0.55960  1.0000
  C   C39       1.0  0.62737  0.92764  0.94040  1.0000
  C   C40       1.0  0.37263  0.57237  0.44040  1.0000
  C   C41       1.0  0.10232  0.68066  0.89457  1.0000
  C   C42       1.0  0.89768  0.81934  0.39457  1.0000
  C   C43       1.0  0.39768  0.18066  0.10543  1.0000
  C   C44       1.0  0.60232  0.31934  0.60543  1.0000
  C   C45       1.0  0.89768  0.31934  0.10543  1.0000
  C   C46       1.0  0.10232  0.18066  0.60543  1.0000
  C   C47       1.0  0.60232  0.81934  0.89457  1.0000
  C   C48       1.0  0.39768  0.68066  0.39456  1.0000
  N   N1        1.0  0.33605  0.94561  0.76937  1.0000
  N   N2        1.0  0.66395  0.55439  0.26937  1.0000
  N   N3        1.0  0.16395  0.44561  0.23063  1.0000
  N   N4        1.0  0.83605  0.05439  0.73063  1.0000
  N   N5        1.0  0.66395  0.05438  0.23063  1.0000
  N   N6        1.0  0.33605  0.44561  0.73063  1.0000
  N   N7        1.0  0.83605  0.55439  0.76937  1.0000
  N   N8        1.0  0.16395  0.94561  0.26937  1.0000
  N   N9        1.0  0.50399  0.96532  0.66769  1.0000
  N   N10       1.0  0.49601  0.53468  0.16769  1.0000
  N   N11       1.0  0.99600  0.46532  0.33231  1.0000
  N   N12       1.0  0.00399  0.03468  0.83231  1.0000
  N   N13       1.0  0.49600  0.03468  0.33231  1.0000
  N   N14       1.0  0.50399  0.46532  0.83231  1.0000
  N   N15       1.0  0.00399  0.53468  0.66769  1.0000
  N   N16       1.0  0.99601  0.96532  0.16769  1.0000
  N   N17       1.0  0.18538  0.77070  0.93099  1.0000
  N   N18       1.0  0.81463  0.72930  0.43099  1.0000
  N   N19       1.0  0.31462  0.27070  0.06901  1.0000
  N   N20       1.0  0.68538  0.22930  0.56901  1.0000
  N   N21       1.0  0.81463  0.22930  0.06901  1.0000
  N   N22       1.0  0.18538  0.27070  0.56901  1.0000
  N   N23       1.0  0.68538  0.72930  0.93099  1.0000
  N   N24       1.0  0.31462  0.77070  0.43099  1.0000
  N   N25       1.0  0.22565  0.59487  0.00550  1.0000
  N   N26       1.0  0.77435  0.90513  0.50550  1.0000
  N   N27       1.0  0.27435  0.09487  0.99450  1.0000
  N   N28       1.0  0.72565  0.40513  0.49450  1.0000
  N   N29       1.0  0.77435  0.40513  0.99450  1.0000
  N   N30       1.0  0.22565  0.09487  0.49450  1.0000
  N   N31       1.0  0.72565  0.90513  0.00550  1.0000
  N   N32       1.0  0.27435  0.59487  0.50550  1.0000
