data_image0
_chemical_formula_structural       CoH14C18N8O4
_chemical_formula_sum              "Co1 H14 C18 N8 O4"
_cell_length_a       8.02717
_cell_length_b       7.97061
_cell_length_c       9.26157
_cell_angle_alpha    81.8634
_cell_angle_beta     69.2591
_cell_angle_gamma    64.8082

_space_group_name_H-M_alt    "P 1"
_space_group_IT_number       1

loop_
  _space_group_symop_operation_xyz
  'x, y, z'

loop_
  _atom_site_type_symbol
  _atom_site_label
  _atom_site_symmetry_multiplicity
  _atom_site_fract_x
  _atom_site_fract_y
  _atom_site_fract_z
  _atom_site_occupancy
  Co  Co1       1.0  1.00000  1.00000  1.00000  1.0000
  H   H1        1.0  0.17382  0.93915  0.21603  1.0000
  H   H2        1.0  0.82618  0.06086  0.78396  1.0000
  H   H3        1.0  0.94644  0.02067  0.30714  1.0000
  H   H4        1.0  0.05356  0.97934  0.69286  1.0000
  H   H5        1.0  0.87686  0.65701  0.30429  1.0000
  H   H6        1.0  0.12314  0.34298  0.69571  1.0000
  H   H7        1.0  0.91153  0.47536  0.18740  1.0000
  H   H8        1.0  0.08847  0.52464  0.81260  1.0000
  H   H9        1.0  0.59246  0.57507  0.40088  1.0000
  H   H10       1.0  0.40754  0.42492  0.59913  1.0000
  H   H11       1.0  0.74348  0.33807  0.42173  1.0000
  H   H12       1.0  0.25652  0.66193  0.57828  1.0000
  H   H13       1.0  0.71370  0.51378  0.54015  1.0000
  H   H14       1.0  0.28630  0.48623  0.45986  1.0000
  C   C1        1.0  0.57931  0.08862  0.18745  1.0000
  C   C2        1.0  0.42070  0.91138  0.81255  1.0000
  C   C3        1.0  0.31194  0.07323  0.41005  1.0000
  C   C4        1.0  0.68806  0.92677  0.58996  1.0000
  C   C5        1.0  0.17873  0.59051  0.05347  1.0000
  C   C6        1.0  0.82128  0.40949  0.94652  1.0000
  C   C7        1.0  0.43980  0.30740  0.94738  1.0000
  C   C8        1.0  0.56020  0.69261  0.05263  1.0000
  C   C9        1.0  0.38047  0.15909  0.27143  1.0000
  C   C10       1.0  0.61953  0.84091  0.72857  1.0000
  C   C11       1.0  0.28360  0.40329  0.07747  1.0000
  C   C12       1.0  0.71640  0.59671  0.92254  1.0000
  C   C13       1.0  0.24358  0.32056  0.22568  1.0000
  C   C14       1.0  0.75642  0.67944  0.77432  1.0000
  C   C15       1.0  0.89420  0.51301  0.30296  1.0000
  C   C16       1.0  0.10580  0.48699  0.69705  1.0000
  C   C17       1.0  0.72706  0.48153  0.42427  1.0000
  C   C18       1.0  0.27294  0.51846  0.57574  1.0000
  N   N1        1.0  0.74453  0.03402  0.11383  1.0000
  N   N2        1.0  0.25546  0.96598  0.88617  1.0000
  N   N3        1.0  0.24906  0.00649  0.52560  1.0000
  N   N4        1.0  0.75095  0.99350  0.47439  1.0000
  N   N5        1.0  0.09351  0.74628  0.02945  1.0000
  N   N6        1.0  0.90650  0.25371  0.97055  1.0000
  N   N7        1.0  0.56628  0.23425  0.83500  1.0000
  N   N8        1.0  0.43373  0.76575  0.16499  1.0000
  O   O1        1.0  0.04770  0.03921  0.21534  1.0000
  O   O2        1.0  0.95229  0.96080  0.78465  1.0000
  O   O3        1.0  0.07302  0.39344  0.33741  1.0000
  O   O4        1.0  0.92699  0.60656  0.66259  1.0000
