data_image0
_chemical_formula_structural       Co2H28C40N4O8
_chemical_formula_sum              "Co2 H28 C40 N4 O8"
_cell_length_a       9.51627
_cell_length_b       10.0955
_cell_length_c       10.2579
_cell_angle_alpha    80.0056
_cell_angle_beta     86.8606
_cell_angle_gamma    68.0713

_space_group_name_H-M_alt    "P 1"
_space_group_IT_number       1

loop_
  _space_group_symop_operation_xyz
  'x, y, z'

loop_
  _atom_site_type_symbol
  _atom_site_label
  _atom_site_symmetry_multiplicity
  _atom_site_fract_x
  _atom_site_fract_y
  _atom_site_fract_z
  _atom_site_occupancy
  Co  Co1       1.0  0.45001  0.36596  0.87879  1.0000
  Co  Co2       1.0  0.54998  0.63405  0.12121  1.0000
  H   H1        1.0  0.40173  0.92502  0.91445  1.0000
  H   H2        1.0  0.59822  0.07501  0.08556  1.0000
  H   H3        1.0  0.32115  0.17760  0.52323  1.0000
  H   H4        1.0  0.67889  0.82238  0.47676  1.0000
  H   H5        1.0  0.28582  0.97362  0.43795  1.0000
  H   H6        1.0  0.71423  0.02637  0.56204  1.0000
  H   H7        1.0  0.30409  0.74940  0.59283  1.0000
  H   H8        1.0  0.69593  0.25060  0.40717  1.0000
  H   H9        1.0  0.76115  0.14594  0.83831  1.0000
  H   H10       1.0  0.23883  0.85406  0.16168  1.0000
  H   H11       1.0  0.97054  0.11051  0.67308  1.0000
  H   H12       1.0  0.02945  0.88949  0.32692  1.0000
  H   H13       1.0  0.70796  0.53745  0.46287  1.0000
  H   H14       1.0  0.29207  0.46258  0.53716  1.0000
  H   H15       1.0  0.51452  0.55245  0.63638  1.0000
  H   H16       1.0  0.48551  0.44759  0.36365  1.0000
  H   H17       1.0  0.18248  0.59919  0.98374  1.0000
  H   H18       1.0  0.81754  0.40078  0.01626  1.0000
  H   H19       1.0  0.00302  0.61995  0.17169  1.0000
  H   H20       1.0  0.99700  0.38003  0.82831  1.0000
  H   H21       1.0  0.17901  0.15227  0.25991  1.0000
  H   H22       1.0  0.82097  0.84771  0.74007  1.0000
  H   H23       1.0  0.34796  0.15123  0.06830  1.0000
  H   H24       1.0  0.65201  0.84875  0.93167  1.0000
  H   H25       1.0  0.05921  0.19063  0.45702  1.0000
  H   H26       1.0  0.94081  0.80937  0.54300  1.0000
  H   H27       1.0  0.88759  0.51280  0.34211  1.0000
  H   H28       1.0  0.11240  0.48720  0.65787  1.0000
  C   C1        1.0  0.35326  0.82294  0.76349  1.0000
  C   C2        1.0  0.64671  0.17707  0.23651  1.0000
  C   C3        1.0  0.37480  0.93615  0.81030  1.0000
  C   C4        1.0  0.62517  0.06387  0.18970  1.0000
  C   C5        1.0  0.36377  0.06321  0.72392  1.0000
  C   C6        1.0  0.63623  0.93681  0.27609  1.0000
  C   C7        1.0  0.32904  0.07829  0.58983  1.0000
  C   C8        1.0  0.67099  0.92171  0.41017  1.0000
  C   C9        1.0  0.30853  0.96484  0.54282  1.0000
  C   C10       1.0  0.69150  0.03515  0.45718  1.0000
  C   C11       1.0  0.32004  0.83805  0.62888  1.0000
  C   C12       1.0  0.67997  0.16196  0.37112  1.0000
  C   C13       1.0  0.37459  0.68459  0.85548  1.0000
  C   C14       1.0  0.62538  0.31542  0.14454  1.0000
  C   C15       1.0  0.39485  0.17821  0.77656  1.0000
  C   C16       1.0  0.60516  0.82178  0.22345  1.0000
  C   C17       1.0  0.75570  0.22970  0.75364  1.0000
  C   C18       1.0  0.24430  0.77031  0.24635  1.0000
  C   C19       1.0  0.87116  0.21101  0.66126  1.0000
  C   C20       1.0  0.12882  0.78900  0.33874  1.0000
  C   C21       1.0  0.85877  0.32095  0.55191  1.0000
  C   C22       1.0  0.14124  0.67906  0.44810  1.0000
  C   C23       1.0  0.72779  0.44791  0.54506  1.0000
  C   C24       1.0  0.27222  0.55212  0.45496  1.0000
  C   C25       1.0  0.61812  0.45700  0.64097  1.0000
  C   C26       1.0  0.38191  0.54302  0.35905  1.0000
  C   C27       1.0  0.17900  0.50299  0.04818  1.0000
  C   C28       1.0  0.82100  0.49699  0.95182  1.0000
  C   C29       1.0  0.07991  0.51376  0.15349  1.0000
  C   C30       1.0  0.92010  0.48621  0.84650  1.0000
  C   C31       1.0  0.07795  0.38804  0.23667  1.0000
  C   C32       1.0  0.92205  0.61194  0.76332  1.0000
  C   C33       1.0  0.17671  0.25501  0.20344  1.0000
  C   C34       1.0  0.82328  0.74496  0.79655  1.0000
  C   C35       1.0  0.27151  0.25335  0.09555  1.0000
  C   C36       1.0  0.72846  0.74663  0.90443  1.0000
  C   C37       1.0  0.97233  0.29932  0.44861  1.0000
  C   C38       1.0  0.02767  0.70068  0.55140  1.0000
  C   C39       1.0  0.97316  0.40379  0.34645  1.0000
  C   C40       1.0  0.02684  0.59619  0.65354  1.0000
  N   N1        1.0  0.62893  0.35009  0.74388  1.0000
  N   N2        1.0  0.37108  0.64992  0.25613  1.0000
  N   N3        1.0  0.27581  0.37524  0.01880  1.0000
  N   N4        1.0  0.72418  0.62473  0.98119  1.0000
  O   O1        1.0  0.35965  0.58162  0.80829  1.0000
  O   O2        1.0  0.64034  0.41839  0.19171  1.0000
  O   O3        1.0  0.40454  0.67656  0.97683  1.0000
  O   O4        1.0  0.59542  0.32348  0.02319  1.0000
  O   O5        1.0  0.32524  0.31171  0.73022  1.0000
  O   O6        1.0  0.67476  0.68829  0.26979  1.0000
  O   O7        1.0  0.49253  0.14058  0.87020  1.0000
  O   O8        1.0  0.50747  0.85941  0.12980  1.0000
