data_image0
_chemical_formula_structural       Cu4H20C28Br4N4
_chemical_formula_sum              "Cu4 H20 C28 Br4 N4"
_cell_length_a       3.90785
_cell_length_b       10.8898
_cell_length_c       17.2434
_cell_angle_alpha    89.9993
_cell_angle_beta     90.0005
_cell_angle_gamma    99.0681

_space_group_name_H-M_alt    "P 1"
_space_group_IT_number       1

loop_
  _space_group_symop_operation_xyz
  'x, y, z'

loop_
  _atom_site_type_symbol
  _atom_site_label
  _atom_site_symmetry_multiplicity
  _atom_site_fract_x
  _atom_site_fract_y
  _atom_site_fract_z
  _atom_site_occupancy
  Cu  Cu1       1.0  0.67046  0.91089  0.95652  1.0000
  Cu  Cu2       1.0  0.82954  0.58910  0.45652  1.0000
  Cu  Cu3       1.0  0.32951  0.08911  0.04348  1.0000
  Cu  Cu4       1.0  0.17048  0.41089  0.54348  1.0000
  H   H1        1.0  0.67645  0.43299  0.97257  1.0000
  H   H2        1.0  0.82356  0.06700  0.47259  1.0000
  H   H3        1.0  0.32353  0.56701  0.02742  1.0000
  H   H4        1.0  0.17646  0.93299  0.52742  1.0000
  H   H5        1.0  0.85495  0.24033  0.92072  1.0000
  H   H6        1.0  0.64510  0.25967  0.42073  1.0000
  H   H7        1.0  0.14510  0.75968  0.07927  1.0000
  H   H8        1.0  0.35488  0.74031  0.57927  1.0000
  H   H9        1.0  0.15146  0.24305  0.79366  1.0000
  H   H10       1.0  0.34858  0.25696  0.29368  1.0000
  H   H11       1.0  0.84859  0.75698  0.20633  1.0000
  H   H12       1.0  0.65139  0.74302  0.70633  1.0000
  H   H13       1.0  0.26649  0.43924  0.71615  1.0000
  H   H14       1.0  0.23351  0.06078  0.21616  1.0000
  H   H15       1.0  0.73351  0.56079  0.28384  1.0000
  H   H16       1.0  0.76650  0.93921  0.78384  1.0000
  H   H17       1.0  0.09272  0.63303  0.76786  1.0000
  H   H18       1.0  0.40728  0.86698  0.26787  1.0000
  H   H19       1.0  0.90726  0.36699  0.23214  1.0000
  H   H20       1.0  0.59275  0.13301  0.73213  1.0000
  C   C1        1.0  0.87546  0.54536  0.87366  1.0000
  C   C2        1.0  0.62455  0.95464  0.37367  1.0000
  C   C3        1.0  0.12453  0.45465  0.12634  1.0000
  C   C4        1.0  0.37546  0.04534  0.62633  1.0000
  C   C5        1.0  0.80732  0.43425  0.91684  1.0000
  C   C6        1.0  0.69270  0.06575  0.41685  1.0000
  C   C7        1.0  0.19268  0.56576  0.08316  1.0000
  C   C8        1.0  0.30730  0.93423  0.58315  1.0000
  C   C9        1.0  0.90606  0.32631  0.88744  1.0000
  C   C10       1.0  0.59397  0.17369  0.38746  1.0000
  C   C11       1.0  0.09397  0.67370  0.11255  1.0000
  C   C12       1.0  0.40600  0.82629  0.61255  1.0000
  C   C13       1.0  0.07068  0.32803  0.81536  1.0000
  C   C14       1.0  0.42935  0.17198  0.31538  1.0000
  C   C15       1.0  0.92935  0.67199  0.18463  1.0000
  C   C16       1.0  0.57062  0.82800  0.68463  1.0000
  C   C17       1.0  0.13698  0.43775  0.77218  1.0000
  C   C18       1.0  0.36303  0.06226  0.27220  1.0000
  C   C19       1.0  0.86304  0.56227  0.22781  1.0000
  C   C20       1.0  0.63696  0.93773  0.72781  1.0000
  C   C21       1.0  0.04080  0.54677  0.80092  1.0000
  C   C22       1.0  0.45920  0.95324  0.30093  1.0000
  C   C23       1.0  0.95920  0.45325  0.19908  1.0000
  C   C24       1.0  0.54080  0.04675  0.69907  1.0000
  C   C25       1.0  0.77516  0.65601  0.90273  1.0000
  C   C26       1.0  0.72483  0.84399  0.40274  1.0000
  C   C27       1.0  0.22480  0.34400  0.09727  1.0000
  C   C28       1.0  0.27519  0.15599  0.59726  1.0000
  Br  Br1       1.0  0.24842  0.03284  0.90378  1.0000
  Br  Br2       1.0  0.25160  0.46717  0.40378  1.0000
  Br  Br3       1.0  0.75157  0.96718  0.09623  1.0000
  Br  Br4       1.0  0.74842  0.53282  0.59623  1.0000
  N   N1        1.0  0.69303  0.74816  0.92597  1.0000
  N   N2        1.0  0.80695  0.75183  0.42598  1.0000
  N   N3        1.0  0.30692  0.25185  0.07403  1.0000
  N   N4        1.0  0.19307  0.24815  0.57402  1.0000
