data_image0
_chemical_formula_structural       Cu2H24C44N4O16
_chemical_formula_sum              "Cu2 H24 C44 N4 O16"
_cell_length_a       8.90614
_cell_length_b       8.90613
_cell_length_c       12.2028
_cell_angle_alpha    96.2128
_cell_angle_beta     96.2127
_cell_angle_gamma    107.184

_space_group_name_H-M_alt    "P 1"
_space_group_IT_number       1

loop_
  _space_group_symop_operation_xyz
  'x, y, z'

loop_
  _atom_site_type_symbol
  _atom_site_label
  _atom_site_symmetry_multiplicity
  _atom_site_fract_x
  _atom_site_fract_y
  _atom_site_fract_z
  _atom_site_occupancy
  Cu  Cu1       1.0  0.54210  0.45790  0.75000  1.0000
  Cu  Cu2       1.0  0.45789  0.54210  0.25000  1.0000
  H   H1        1.0  0.46288  0.91457  0.79694  1.0000
  H   H2        1.0  0.91457  0.46288  0.29695  1.0000
  H   H3        1.0  0.53712  0.08543  0.20305  1.0000
  H   H4        1.0  0.08543  0.53712  0.70306  1.0000
  H   H5        1.0  0.48059  0.33108  0.49252  1.0000
  H   H6        1.0  0.33108  0.48059  0.99252  1.0000
  H   H7        1.0  0.51941  0.66892  0.50748  1.0000
  H   H8        1.0  0.66892  0.51941  0.00748  1.0000
  H   H9        1.0  0.59792  0.16257  0.37523  1.0000
  H   H10       1.0  0.16257  0.59792  0.87523  1.0000
  H   H11       1.0  0.40208  0.83744  0.62477  1.0000
  H   H12       1.0  0.83743  0.40208  0.12477  1.0000
  H   H13       1.0  0.78550  0.03463  0.46630  1.0000
  H   H14       1.0  0.03463  0.78549  0.96630  1.0000
  H   H15       1.0  0.21450  0.96537  0.53370  1.0000
  H   H16       1.0  0.96537  0.21450  0.03369  1.0000
  H   H17       1.0  0.93525  0.99909  0.64685  1.0000
  H   H18       1.0  0.99909  0.93525  0.14685  1.0000
  H   H19       1.0  0.06475  0.00091  0.35315  1.0000
  H   H20       1.0  0.00091  0.06475  0.85315  1.0000
  H   H21       1.0  0.73137  0.85262  0.31006  1.0000
  H   H22       1.0  0.85261  0.73137  0.81007  1.0000
  H   H23       1.0  0.26863  0.14739  0.68993  1.0000
  H   H24       1.0  0.14738  0.26863  0.18994  1.0000
  C   C1        1.0  0.62666  0.75857  0.90102  1.0000
  C   C2        1.0  0.75857  0.62665  0.40102  1.0000
  C   C3        1.0  0.37334  0.24143  0.09898  1.0000
  C   C4        1.0  0.24143  0.37334  0.59898  1.0000
  C   C5        1.0  0.56171  0.88048  0.95714  1.0000
  C   C6        1.0  0.88048  0.56171  0.45714  1.0000
  C   C7        1.0  0.43829  0.11952  0.04286  1.0000
  C   C8        1.0  0.11952  0.43829  0.54286  1.0000
  C   C9        1.0  0.47882  0.95149  0.88649  1.0000
  C   C10       1.0  0.95149  0.47882  0.38649  1.0000
  C   C11       1.0  0.52118  0.04851  0.11351  1.0000
  C   C12       1.0  0.04851  0.52118  0.61351  1.0000
  C   C13       1.0  0.58259  0.92935  0.07289  1.0000
  C   C14       1.0  0.92935  0.58259  0.57289  1.0000
  C   C15       1.0  0.41741  0.07065  0.92711  1.0000
  C   C16       1.0  0.07065  0.41741  0.42711  1.0000
  C   C17       1.0  0.65594  0.84687  0.15303  1.0000
  C   C18       1.0  0.84687  0.65593  0.65304  1.0000
  C   C19       1.0  0.34406  0.15313  0.84696  1.0000
  C   C20       1.0  0.15313  0.34406  0.34697  1.0000
  C   C21       1.0  0.56494  0.27834  0.53068  1.0000
  C   C22       1.0  0.27834  0.56493  0.03068  1.0000
  C   C23       1.0  0.43507  0.72166  0.46932  1.0000
  C   C24       1.0  0.72166  0.43506  0.96932  1.0000
  C   C25       1.0  0.63093  0.18144  0.46524  1.0000
  C   C26       1.0  0.18144  0.63093  0.96524  1.0000
  C   C27       1.0  0.36907  0.81857  0.53476  1.0000
  C   C28       1.0  0.81856  0.36907  0.03476  1.0000
  C   C29       1.0  0.73534  0.11236  0.51509  1.0000
  C   C30       1.0  0.11236  0.73533  0.01509  1.0000
  C   C31       1.0  0.26466  0.88764  0.48491  1.0000
  C   C32       1.0  0.88764  0.26466  0.98491  1.0000
  C   C33       1.0  0.77747  0.14273  0.63216  1.0000
  C   C34       1.0  0.14273  0.77747  0.13216  1.0000
  C   C35       1.0  0.22253  0.85727  0.36784  1.0000
  C   C36       1.0  0.85728  0.22253  0.86784  1.0000
  C   C37       1.0  0.71025  0.24595  0.69127  1.0000
  C   C38       1.0  0.24595  0.71025  0.19127  1.0000
  C   C39       1.0  0.28975  0.75405  0.30873  1.0000
  C   C40       1.0  0.75405  0.28975  0.80873  1.0000
  C   C41       1.0  0.88433  0.07844  0.69330  1.0000
  C   C42       1.0  0.07844  0.88433  0.19330  1.0000
  C   C43       1.0  0.11567  0.92156  0.30670  1.0000
  C   C44       1.0  0.92156  0.11567  0.80670  1.0000
  N   N1        1.0  0.60406  0.30929  0.64107  1.0000
  N   N2        1.0  0.30929  0.60406  0.14107  1.0000
  N   N3        1.0  0.39594  0.69071  0.35893  1.0000
  N   N4        1.0  0.69071  0.39594  0.85893  1.0000
  O   O1        1.0  0.51814  0.63277  0.85190  1.0000
  O   O2        1.0  0.63277  0.51814  0.35190  1.0000
  O   O3        1.0  0.48186  0.36723  0.14810  1.0000
  O   O4        1.0  0.36723  0.48186  0.64810  1.0000
  O   O5        1.0  0.77443  0.79444  0.90043  1.0000
  O   O6        1.0  0.79444  0.77443  0.40043  1.0000
  O   O7        1.0  0.22557  0.20556  0.09957  1.0000
  O   O8        1.0  0.20556  0.22557  0.59957  1.0000
  O   O9        1.0  0.69684  0.92428  0.25658  1.0000
  O   O10       1.0  0.92427  0.69684  0.75658  1.0000
  O   O11       1.0  0.30316  0.07573  0.74342  1.0000
  O   O12       1.0  0.07572  0.30316  0.24342  1.0000
  O   O13       1.0  0.66929  0.71407  0.12603  1.0000
  O   O14       1.0  0.71406  0.66929  0.62604  1.0000
  O   O15       1.0  0.33071  0.28594  0.87396  1.0000
  O   O16       1.0  0.28593  0.33071  0.37397  1.0000
