data_image0
_chemical_formula_structural       Mg2H44Pt2C36N8Cl4O14
_chemical_formula_sum              "Mg2 H44 Pt2 C36 N8 Cl4 O14"
_cell_length_a       9.15176
_cell_length_b       11.9349
_cell_length_c       13.673
_cell_angle_alpha    68.9357
_cell_angle_beta     80.2842
_cell_angle_gamma    68.9059

_space_group_name_H-M_alt    "P 1"
_space_group_IT_number       1

loop_
  _space_group_symop_operation_xyz
  'x, y, z'

loop_
  _atom_site_type_symbol
  _atom_site_label
  _atom_site_symmetry_multiplicity
  _atom_site_fract_x
  _atom_site_fract_y
  _atom_site_fract_z
  _atom_site_occupancy
  Mg  Mg1       1.0  0.75472  0.01707  0.05949  1.0000
  Mg  Mg2       1.0  0.24528  0.98293  0.94051  1.0000
  H   H1        1.0  0.59706  0.88994  0.00884  1.0000
  H   H2        1.0  0.40295  0.11005  0.99116  1.0000
  H   H3        1.0  0.63077  0.99593  0.90903  1.0000
  H   H4        1.0  0.36923  0.00407  0.09097  1.0000
  H   H5        1.0  0.49093  0.45993  0.68222  1.0000
  H   H6        1.0  0.50907  0.54008  0.31778  1.0000
  H   H7        1.0  0.62325  0.25847  0.82404  1.0000
  H   H8        1.0  0.37675  0.74153  0.17597  1.0000
  H   H9        1.0  0.03987  0.36621  0.75369  1.0000
  H   H10       1.0  0.96014  0.63379  0.24631  1.0000
  H   H11       1.0  0.40628  0.61990  0.55254  1.0000
  H   H12       1.0  0.59372  0.38010  0.44746  1.0000
  H   H13       1.0  0.34897  0.78430  0.37712  1.0000
  H   H14       1.0  0.65103  0.21570  0.62288  1.0000
  H   H15       1.0  0.81063  0.81162  0.36070  1.0000
  H   H16       1.0  0.18938  0.18838  0.63929  1.0000
  H   H17       1.0  0.92137  0.99050  0.25828  1.0000
  H   H18       1.0  0.07862  0.00951  0.74171  1.0000
  H   H19       1.0  0.94349  0.28787  0.07454  1.0000
  H   H20       1.0  0.05653  0.71213  0.92545  1.0000
  H   H21       1.0  0.14061  0.24253  0.10963  1.0000
  H   H22       1.0  0.85940  0.75747  0.89036  1.0000
  H   H23       1.0  0.98303  0.33195  0.17827  1.0000
  H   H24       1.0  0.01698  0.66805  0.82172  1.0000
  H   H25       1.0  0.22456  0.05932  0.28078  1.0000
  H   H26       1.0  0.77544  0.94068  0.71921  1.0000
  H   H27       1.0  0.07578  0.99744  0.35795  1.0000
  H   H28       1.0  0.92422  0.00256  0.64204  1.0000
  H   H29       1.0  0.07241  0.15112  0.35011  1.0000
  H   H30       1.0  0.92759  0.84888  0.64988  1.0000
  H   H31       1.0  0.54119  0.26584  0.12312  1.0000
  H   H32       1.0  0.45881  0.73415  0.87689  1.0000
  H   H33       1.0  0.35434  0.32255  0.88855  1.0000
  H   H34       1.0  0.64566  0.67745  0.11145  1.0000
  H   H35       1.0  0.28627  0.48981  0.86626  1.0000
  H   H36       1.0  0.71373  0.51019  0.13374  1.0000
  H   H37       1.0  0.16944  0.39485  0.94402  1.0000
  H   H38       1.0  0.83056  0.60515  0.05598  1.0000
  H   H39       1.0  0.18449  0.47662  0.09942  1.0000
  H   H40       1.0  0.81550  0.52337  0.90058  1.0000
  H   H41       1.0  0.30490  0.56384  0.01400  1.0000
  H   H42       1.0  0.69509  0.43616  0.98601  1.0000
  H   H43       1.0  0.37766  0.44502  0.13489  1.0000
  H   H44       1.0  0.62232  0.55497  0.86512  1.0000
  Pt  Pt1       1.0  0.95339  0.61634  0.56860  1.0000
  Pt  Pt2       1.0  0.04661  0.38366  0.43140  1.0000
  C   C1        1.0  0.69743  0.51690  0.64179  1.0000
  C   C2        1.0  0.30257  0.48311  0.35821  1.0000
  C   C3        1.0  0.61137  0.43742  0.70120  1.0000
  C   C4        1.0  0.38863  0.56258  0.29881  1.0000
  C   C5        1.0  0.68301  0.32689  0.78014  1.0000
  C   C6        1.0  0.31700  0.67312  0.21986  1.0000
  C   C7        1.0  0.83976  0.29883  0.79897  1.0000
  C   C8        1.0  0.16025  0.70117  0.20103  1.0000
  C   C9        1.0  0.91816  0.38428  0.74074  1.0000
  C   C10       1.0  0.08185  0.61573  0.25925  1.0000
  C   C11       1.0  0.92742  0.17297  0.87516  1.0000
  C   C12       1.0  0.07257  0.82703  0.12484  1.0000
  C   C13       1.0  0.64222  0.62406  0.54790  1.0000
  C   C14       1.0  0.35778  0.37594  0.45211  1.0000
  C   C15       1.0  0.49459  0.66284  0.50836  1.0000
  C   C16       1.0  0.50542  0.33716  0.49164  1.0000
  C   C17       1.0  0.46186  0.75508  0.41071  1.0000
  C   C18       1.0  0.53814  0.24491  0.58930  1.0000
  C   C19       1.0  0.57670  0.80817  0.35450  1.0000
  C   C20       1.0  0.42329  0.19183  0.64550  1.0000
  C   C21       1.0  0.71906  0.77084  0.40028  1.0000
  C   C22       1.0  0.28094  0.22915  0.59972  1.0000
  C   C23       1.0  0.55087  0.89927  0.24386  1.0000
  C   C24       1.0  0.44913  0.10073  0.75614  1.0000
  C   C25       1.0  0.91582  0.08246  0.19732  1.0000
  C   C26       1.0  0.08418  0.91755  0.80267  1.0000
  C   C27       1.0  0.01816  0.25886  0.13985  1.0000
  C   C28       1.0  0.98185  0.74114  0.86014  1.0000
  C   C29       1.0  0.09982  0.08406  0.30639  1.0000
  C   C30       1.0  0.90018  0.91595  0.69360  1.0000
  C   C31       1.0  0.49038  0.27021  0.05357  1.0000
  C   C32       1.0  0.50961  0.72979  0.94643  1.0000
  C   C33       1.0  0.29016  0.39674  0.92362  1.0000
  C   C34       1.0  0.70983  0.60327  0.07638  1.0000
  C   C35       1.0  0.30546  0.47011  0.06901  1.0000
  C   C36       1.0  0.69452  0.52989  0.93100  1.0000
  N   N1        1.0  0.84904  0.49131  0.66403  1.0000
  N   N2        1.0  0.15096  0.50869  0.33597  1.0000
  N   N3        1.0  0.75163  0.68114  0.49482  1.0000
  N   N4        1.0  0.24837  0.31886  0.50518  1.0000
  N   N5        1.0  0.00389  0.14069  0.21514  1.0000
  N   N6        1.0  0.99612  0.85932  0.78485  1.0000
  N   N7        1.0  0.36771  0.37470  0.01673  1.0000
  N   N8        1.0  0.63228  0.62530  0.98328  1.0000
  Cl  Cl1       1.0  0.17394  0.53404  0.66591  1.0000
  Cl  Cl2       1.0  0.82606  0.46597  0.33409  1.0000
  Cl  Cl3       1.0  0.05675  0.76631  0.45192  1.0000
  Cl  Cl4       1.0  0.94325  0.23370  0.54809  1.0000
  O   O1        1.0  0.85207  0.09636  0.91954  1.0000
  O   O2        1.0  0.14793  0.90364  0.08046  1.0000
  O   O3        1.0  0.07093  0.15275  0.88405  1.0000
  O   O4        1.0  0.92908  0.84725  0.11596  1.0000
  O   O5        1.0  0.64541  0.96144  0.20469  1.0000
  O   O6        1.0  0.35458  0.03856  0.79531  1.0000
  O   O7        1.0  0.43696  0.90317  0.19993  1.0000
  O   O8        1.0  0.56304  0.09683  0.80007  1.0000
  O   O9        1.0  0.83206  0.12640  0.11956  1.0000
  O   O10       1.0  0.16794  0.87361  0.88044  1.0000
  O   O11       1.0  0.54678  0.18355  0.01364  1.0000
  O   O12       1.0  0.45323  0.81645  0.98636  1.0000
  O   O13       1.0  0.67360  0.93471  0.97944  1.0000
  O   O14       1.0  0.32641  0.06529  0.02056  1.0000
