data_image0
_chemical_formula_structural       Cd2H56C40N16Cl4
_chemical_formula_sum              "Cd2 H56 C40 N16 Cl4"
_cell_length_a       7.68614
_cell_length_b       8.60286
_cell_length_c       18.708
_cell_angle_alpha    90
_cell_angle_beta     90
_cell_angle_gamma    112.729

_space_group_name_H-M_alt    "P 1"
_space_group_IT_number       1

loop_
  _space_group_symop_operation_xyz
  'x, y, z'

loop_
  _atom_site_type_symbol
  _atom_site_label
  _atom_site_symmetry_multiplicity
  _atom_site_fract_x
  _atom_site_fract_y
  _atom_site_fract_z
  _atom_site_occupancy
  Cd  Cd1       1.0  0.00000  0.50000  0.00000  1.0000
  Cd  Cd2       1.0  0.50000  0.00000  0.50000  1.0000
  H   H1        1.0  0.46771  0.65067  0.95103  1.0000
  H   H2        1.0  0.03229  0.84933  0.45103  1.0000
  H   H3        1.0  0.53229  0.34933  0.04897  1.0000
  H   H4        1.0  0.96771  0.15067  0.54897  1.0000
  H   H5        1.0  0.98255  0.07359  0.77699  1.0000
  H   H6        1.0  0.51745  0.42641  0.27699  1.0000
  H   H7        1.0  0.01745  0.92641  0.22301  1.0000
  H   H8        1.0  0.48255  0.57359  0.72301  1.0000
  H   H9        1.0  0.02481  0.92346  0.83106  1.0000
  H   H10       1.0  0.47518  0.57654  0.33106  1.0000
  H   H11       1.0  0.97519  0.07654  0.16894  1.0000
  H   H12       1.0  0.52481  0.42346  0.66894  1.0000
  H   H13       1.0  0.46909  0.13003  0.89940  1.0000
  H   H14       1.0  0.03091  0.36997  0.39940  1.0000
  H   H15       1.0  0.53091  0.86997  0.10060  1.0000
  H   H16       1.0  0.96909  0.63003  0.60060  1.0000
  H   H17       1.0  0.06564  0.94864  0.58742  1.0000
  H   H18       1.0  0.43436  0.55136  0.08742  1.0000
  H   H19       1.0  0.93436  0.05135  0.41258  1.0000
  H   H20       1.0  0.56565  0.44864  0.91258  1.0000
  H   H21       1.0  0.63927  0.91773  0.78482  1.0000
  H   H22       1.0  0.86073  0.58227  0.28482  1.0000
  H   H23       1.0  0.36073  0.08227  0.21518  1.0000
  H   H24       1.0  0.13927  0.41773  0.71518  1.0000
  H   H25       1.0  0.66825  0.74486  0.82660  1.0000
  H   H26       1.0  0.83175  0.75515  0.32660  1.0000
  H   H27       1.0  0.33175  0.25515  0.17340  1.0000
  H   H28       1.0  0.16825  0.24485  0.67340  1.0000
  H   H29       1.0  0.87196  0.69933  0.73892  1.0000
  H   H30       1.0  0.62804  0.80067  0.23892  1.0000
  H   H31       1.0  0.12804  0.30067  0.26108  1.0000
  H   H32       1.0  0.37196  0.19933  0.76108  1.0000
  H   H33       1.0  0.83731  0.84959  0.68190  1.0000
  H   H34       1.0  0.66269  0.65041  0.18190  1.0000
  H   H35       1.0  0.16269  0.15040  0.31810  1.0000
  H   H36       1.0  0.33732  0.34959  0.81810  1.0000
  H   H37       1.0  0.26469  0.82077  0.78076  1.0000
  H   H38       1.0  0.23531  0.67923  0.28076  1.0000
  H   H39       1.0  0.73531  0.17923  0.21924  1.0000
  H   H40       1.0  0.76469  0.32077  0.71924  1.0000
  H   H41       1.0  0.55108  0.91181  0.67666  1.0000
  H   H42       1.0  0.94892  0.58819  0.17666  1.0000
  H   H43       1.0  0.44892  0.08819  0.32334  1.0000
  H   H44       1.0  0.05108  0.41181  0.82334  1.0000
  H   H45       1.0  0.79381  0.91212  0.93562  1.0000
  H   H46       1.0  0.70619  0.58788  0.43562  1.0000
  H   H47       1.0  0.20619  0.08788  0.06438  1.0000
  H   H48       1.0  0.29381  0.41212  0.56438  1.0000
  H   H49       1.0  0.78594  0.09586  0.89496  1.0000
  H   H50       1.0  0.71406  0.40414  0.39496  1.0000
  H   H51       1.0  0.21406  0.90414  0.10504  1.0000
  H   H52       1.0  0.28594  0.59586  0.60504  1.0000
  H   H53       1.0  0.11222  0.92035  0.94693  1.0000
  H   H54       1.0  0.38777  0.57964  0.44693  1.0000
  H   H55       1.0  0.88777  0.07965  0.05307  1.0000
  H   H56       1.0  0.61223  0.42035  0.55307  1.0000
  C   C1        1.0  0.41553  0.74937  0.94182  1.0000
  C   C2        1.0  0.08447  0.75063  0.44182  1.0000
  C   C3        1.0  0.58447  0.25063  0.05818  1.0000
  C   C4        1.0  0.91553  0.24937  0.55818  1.0000
  C   C5        1.0  0.92829  0.93884  0.79085  1.0000
  C   C6        1.0  0.57171  0.56117  0.29085  1.0000
  C   C7        1.0  0.07171  0.06116  0.20915  1.0000
  C   C8        1.0  0.42829  0.43884  0.70915  1.0000
  C   C9        1.0  0.41309  0.99862  0.91473  1.0000
  C   C10       1.0  0.08691  0.50139  0.41473  1.0000
  C   C11       1.0  0.58691  0.00139  0.08527  1.0000
  C   C12       1.0  0.91309  0.49862  0.58527  1.0000
  C   C13       1.0  0.16449  0.93242  0.62538  1.0000
  C   C14       1.0  0.33551  0.56758  0.12538  1.0000
  C   C15       1.0  0.83551  0.06758  0.37462  1.0000
  C   C16       1.0  0.66449  0.43242  0.87462  1.0000
  C   C17       1.0  0.72985  0.88327  0.82174  1.0000
  C   C18       1.0  0.77015  0.61673  0.32174  1.0000
  C   C19       1.0  0.27015  0.11673  0.17826  1.0000
  C   C20       1.0  0.22986  0.38327  0.67826  1.0000
  C   C21       1.0  0.92723  0.83400  0.72483  1.0000
  C   C22       1.0  0.57277  0.66600  0.22483  1.0000
  C   C23       1.0  0.07277  0.16599  0.27518  1.0000
  C   C24       1.0  0.42723  0.33400  0.77517  1.0000
  C   C25       1.0  0.26898  0.86180  0.72573  1.0000
  C   C26       1.0  0.23102  0.63821  0.22573  1.0000
  C   C27       1.0  0.73102  0.13820  0.27427  1.0000
  C   C28       1.0  0.76899  0.36179  0.77427  1.0000
  C   C29       1.0  0.40899  0.90916  0.67458  1.0000
  C   C30       1.0  0.09101  0.59084  0.17458  1.0000
  C   C31       1.0  0.59101  0.09084  0.32542  1.0000
  C   C32       1.0  0.90899  0.40916  0.82542  1.0000
  C   C33       1.0  0.72114  0.95770  0.89512  1.0000
  C   C34       1.0  0.77886  0.54230  0.39512  1.0000
  C   C35       1.0  0.27886  0.04230  0.10488  1.0000
  C   C36       1.0  0.22114  0.45770  0.60488  1.0000
  C   C37       1.0  0.23717  0.89341  0.93818  1.0000
  C   C38       1.0  0.26282  0.60659  0.43818  1.0000
  C   C39       1.0  0.76282  0.10659  0.06182  1.0000
  C   C40       1.0  0.73717  0.39341  0.56182  1.0000
  N   N1        1.0  0.24085  0.73837  0.95460  1.0000
  N   N2        1.0  0.25915  0.76163  0.45460  1.0000
  N   N3        1.0  0.75915  0.26163  0.04540  1.0000
  N   N4        1.0  0.74085  0.23837  0.54540  1.0000
  N   N5        1.0  0.52464  0.90562  0.91768  1.0000
  N   N6        1.0  0.97536  0.59438  0.41768  1.0000
  N   N7        1.0  0.47536  0.09438  0.08232  1.0000
  N   N8        1.0  0.02464  0.40562  0.58232  1.0000
  N   N9        1.0  0.11442  0.87734  0.69353  1.0000
  N   N10       1.0  0.38558  0.62266  0.19353  1.0000
  N   N11       1.0  0.88558  0.12265  0.30647  1.0000
  N   N12       1.0  0.61442  0.37734  0.80647  1.0000
  N   N13       1.0  0.34206  0.95252  0.61261  1.0000
  N   N14       1.0  0.15794  0.54748  0.11261  1.0000
  N   N15       1.0  0.65794  0.04748  0.38739  1.0000
  N   N16       1.0  0.84206  0.45252  0.88739  1.0000
  Cl  Cl1       1.0  0.20123  0.31817  0.95775  1.0000
  Cl  Cl2       1.0  0.29877  0.18182  0.45775  1.0000
  Cl  Cl3       1.0  0.79877  0.68182  0.04225  1.0000
  Cl  Cl4       1.0  0.70123  0.81817  0.54225  1.0000
