data_image0
_chemical_formula_structural       Cd2H16C18N6Cl2O6
_chemical_formula_sum              "Cd2 H16 C18 N6 Cl2 O6"
_cell_length_a       6.70732
_cell_length_b       9.85536
_cell_length_c       9.83054
_cell_angle_alpha    118.498
_cell_angle_beta     102.195
_cell_angle_gamma    96.9607

_space_group_name_H-M_alt    "P 1"
_space_group_IT_number       1

loop_
  _space_group_symop_operation_xyz
  'x, y, z'

loop_
  _atom_site_type_symbol
  _atom_site_label
  _atom_site_symmetry_multiplicity
  _atom_site_fract_x
  _atom_site_fract_y
  _atom_site_fract_z
  _atom_site_occupancy
  Cd  Cd1       1.0  0.80637  0.99244  0.81536  1.0000
  Cd  Cd2       1.0  0.19363  0.00756  0.18464  1.0000
  H   H1        1.0  0.37506  0.83357  0.59210  1.0000
  H   H2        1.0  0.62494  0.16643  0.40790  1.0000
  H   H3        1.0  0.35316  0.95211  0.77226  1.0000
  H   H4        1.0  0.64684  0.04790  0.22774  1.0000
  H   H5        1.0  0.74052  0.60338  0.69194  1.0000
  H   H6        1.0  0.25948  0.39662  0.30806  1.0000
  H   H7        1.0  0.68657  0.36671  0.37651  1.0000
  H   H8        1.0  0.31343  0.63328  0.62349  1.0000
  H   H9        1.0  0.89262  0.82400  0.43693  1.0000
  H   H10       1.0  0.10738  0.17600  0.56307  1.0000
  H   H11       1.0  0.75201  0.69548  0.15789  1.0000
  H   H12       1.0  0.24799  0.30452  0.84211  1.0000
  H   H13       1.0  0.72342  0.54027  0.86569  1.0000
  H   H14       1.0  0.27658  0.45973  0.13431  1.0000
  H   H15       1.0  0.79799  0.26770  0.17394  1.0000
  H   H16       1.0  0.20200  0.73230  0.82606  1.0000
  C   C1        1.0  0.76770  0.61403  0.59255  1.0000
  C   C2        1.0  0.23229  0.38597  0.40745  1.0000
  C   C3        1.0  0.74175  0.49550  0.43736  1.0000
  C   C4        1.0  0.25825  0.50450  0.56264  1.0000
  C   C5        1.0  0.84278  0.73387  0.46487  1.0000
  C   C6        1.0  0.15722  0.26613  0.53513  1.0000
  C   C7        1.0  0.77815  0.49427  0.19080  1.0000
  C   C8        1.0  0.22185  0.50573  0.80921  1.0000
  C   C9        1.0  0.75792  0.57096  0.10208  1.0000
  C   C10       1.0  0.24208  0.42904  0.89793  1.0000
  C   C11       1.0  0.74106  0.48415  0.93796  1.0000
  C   C12       1.0  0.25894  0.51586  0.06204  1.0000
  C   C13       1.0  0.74811  0.32451  0.86586  1.0000
  C   C14       1.0  0.25190  0.67550  0.13414  1.0000
  C   C15       1.0  0.74106  0.22690  0.68881  1.0000
  C   C16       1.0  0.25894  0.77310  0.31119  1.0000
  C   C17       1.0  0.78262  0.33334  0.11069  1.0000
  C   C18       1.0  0.21738  0.66666  0.88931  1.0000
  N   N1        1.0  0.83134  0.76112  0.60839  1.0000
  N   N2        1.0  0.16866  0.23887  0.39161  1.0000
  N   N3        1.0  0.78882  0.57236  0.35618  1.0000
  N   N4        1.0  0.21118  0.42764  0.64382  1.0000
  N   N5        1.0  0.76957  0.25302  0.95358  1.0000
  N   N6        1.0  0.23043  0.74698  0.04643  1.0000
  Cl  Cl1       1.0  0.77771  0.89917  0.02743  1.0000
  Cl  Cl2       1.0  0.22229  0.10084  0.97257  1.0000
  O   O1        1.0  0.68571  0.28639  0.60240  1.0000
  O   O2        1.0  0.31429  0.71361  0.39760  1.0000
  O   O3        1.0  0.79623  0.09668  0.64210  1.0000
  O   O4        1.0  0.20377  0.90332  0.35791  1.0000
  O   O5        1.0  0.43663  0.88253  0.71404  1.0000
  O   O6        1.0  0.56337  0.11747  0.28596  1.0000
