data_image0
_chemical_formula_structural       Co2H32C40N8O10
_chemical_formula_sum              "Co2 H32 C40 N8 O10"
_cell_length_a       8.62812
_cell_length_b       9.72676
_cell_length_c       12.3503
_cell_angle_alpha    70.7779
_cell_angle_beta     87.8168
_cell_angle_gamma    78.6244

_space_group_name_H-M_alt    "P 1"
_space_group_IT_number       1

loop_
  _space_group_symop_operation_xyz
  'x, y, z'

loop_
  _atom_site_type_symbol
  _atom_site_label
  _atom_site_symmetry_multiplicity
  _atom_site_fract_x
  _atom_site_fract_y
  _atom_site_fract_z
  _atom_site_occupancy
  Co  Co1       1.0  0.93923  0.61941  0.27303  1.0000
  Co  Co2       1.0  0.06077  0.38059  0.72697  1.0000
  H   H1        1.0  0.25174  0.75810  0.22514  1.0000
  H   H2        1.0  0.74826  0.24190  0.77485  1.0000
  H   H3        1.0  0.91600  0.75686  0.98855  1.0000
  H   H4        1.0  0.08399  0.24314  0.01145  1.0000
  H   H5        1.0  0.13839  0.91901  0.86770  1.0000
  H   H6        1.0  0.86161  0.08100  0.13230  1.0000
  H   H7        1.0  0.48233  0.80502  0.18681  1.0000
  H   H8        1.0  0.51767  0.19499  0.81318  1.0000
  H   H9        1.0  0.29339  0.07038  0.84616  1.0000
  H   H10       1.0  0.70661  0.92962  0.15384  1.0000
  H   H11       1.0  0.22672  0.38629  0.43512  1.0000
  H   H12       1.0  0.77328  0.61371  0.56489  1.0000
  H   H13       1.0  0.98206  0.36009  0.15583  1.0000
  H   H14       1.0  0.01794  0.63991  0.84418  1.0000
  H   H15       1.0  0.21625  0.10683  0.23482  1.0000
  H   H16       1.0  0.78375  0.89317  0.76518  1.0000
  H   H17       1.0  0.37298  0.21995  0.55404  1.0000
  H   H18       1.0  0.62703  0.78005  0.44596  1.0000
  H   H19       1.0  0.42655  0.97060  0.31791  1.0000
  H   H20       1.0  0.57345  0.02940  0.68210  1.0000
  H   H21       1.0  0.18854  0.75822  0.54331  1.0000
  H   H22       1.0  0.81146  0.24178  0.45669  1.0000
  H   H23       1.0  0.79295  0.07386  0.34606  1.0000
  H   H24       1.0  0.20705  0.92614  0.65394  1.0000
  H   H25       1.0  0.40766  0.40445  0.19879  1.0000
  H   H26       1.0  0.59234  0.59556  0.80122  1.0000
  H   H27       1.0  0.73260  0.62207  0.96531  1.0000
  H   H28       1.0  0.26740  0.37793  0.03469  1.0000
  H   H29       1.0  0.71192  0.50908  0.37724  1.0000
  H   H30       1.0  0.28808  0.49092  0.62276  1.0000
  H   H31       1.0  0.84728  0.45119  0.47925  1.0000
  H   H32       1.0  0.15272  0.54881  0.52075  1.0000
  C   C1        1.0  0.19093  0.77857  0.14461  1.0000
  C   C2        1.0  0.80908  0.22143  0.85539  1.0000
  C   C3        1.0  0.02073  0.78088  0.01848  1.0000
  C   C4        1.0  0.97927  0.21912  0.98152  1.0000
  C   C5        1.0  0.12954  0.86032  0.95835  1.0000
  C   C6        1.0  0.87046  0.13969  0.04165  1.0000
  C   C7        1.0  0.37050  0.92913  0.01925  1.0000
  C   C8        1.0  0.62949  0.07087  0.98075  1.0000
  C   C9        1.0  0.48709  0.89248  0.10532  1.0000
  C   C10       1.0  0.51290  0.10752  0.89468  1.0000
  C   C11       1.0  0.38413  0.03707  0.91357  1.0000
  C   C12       1.0  0.61587  0.96293  0.08642  1.0000
  C   C13       1.0  0.19189  0.34666  0.36895  1.0000
  C   C14       1.0  0.80811  0.65333  0.63105  1.0000
  C   C15       1.0  0.06922  0.32745  0.22509  1.0000
  C   C16       1.0  0.93078  0.67255  0.77492  1.0000
  C   C17       1.0  0.18506  0.20253  0.26302  1.0000
  C   C18       1.0  0.81494  0.79747  0.73698  1.0000
  C   C19       1.0  0.38523  0.10867  0.42650  1.0000
  C   C20       1.0  0.61477  0.89133  0.57351  1.0000
  C   C21       1.0  0.42928  0.12524  0.52867  1.0000
  C   C22       1.0  0.57073  0.87476  0.47133  1.0000
  C   C23       1.0  0.45706  0.98365  0.39815  1.0000
  C   C24       1.0  0.54294  0.01635  0.60185  1.0000
  C   C25       1.0  0.97174  0.80541  0.37199  1.0000
  C   C26       1.0  0.02826  0.19459  0.62801  1.0000
  C   C27       1.0  0.98894  0.90573  0.43723  1.0000
  C   C28       1.0  0.01106  0.09427  0.56277  1.0000
  C   C29       1.0  0.10593  0.86388  0.52419  1.0000
  C   C30       1.0  0.89407  0.13612  0.47581  1.0000
  C   C31       1.0  0.88375  0.04270  0.41331  1.0000
  C   C32       1.0  0.11625  0.95730  0.58668  1.0000
  C   C33       1.0  0.65963  0.53114  0.19118  1.0000
  C   C34       1.0  0.34038  0.46886  0.80882  1.0000
  C   C35       1.0  0.57840  0.51457  0.09209  1.0000
  C   C36       1.0  0.42160  0.48543  0.90791  1.0000
  C   C37       1.0  0.44693  0.44564  0.11128  1.0000
  C   C38       1.0  0.55308  0.55436  0.88872  1.0000
  C   C39       1.0  0.63062  0.56872  0.97998  1.0000
  C   C40       1.0  0.36938  0.43128  0.02002  1.0000
  N   N1        1.0  0.05997  0.73133  0.13421  1.0000
  N   N2        1.0  0.94004  0.26867  0.86579  1.0000
  N   N3        1.0  0.23820  0.85805  0.03947  1.0000
  N   N4        1.0  0.76180  0.14196  0.96053  1.0000
  N   N5        1.0  0.07471  0.41581  0.29196  1.0000
  N   N6        1.0  0.92529  0.58418  0.70804  1.0000
  N   N7        1.0  0.26290  0.21534  0.35467  1.0000
  N   N8        1.0  0.73710  0.78466  0.64534  1.0000
  O   O1        1.0  0.06734  0.67890  0.39313  1.0000
  O   O2        1.0  0.93266  0.32109  0.60686  1.0000
  O   O3        1.0  0.86198  0.84305  0.29608  1.0000
  O   O4        1.0  0.13803  0.15695  0.70392  1.0000
  O   O5        1.0  0.77573  0.60060  0.16713  1.0000
  O   O6        1.0  0.22427  0.39940  0.83287  1.0000
  O   O7        1.0  0.60766  0.47891  0.29080  1.0000
  O   O8        1.0  0.39234  0.52108  0.70920  1.0000
  O   O9        1.0  0.79314  0.54086  0.41764  1.0000
  O   O10       1.0  0.20686  0.45914  0.58236  1.0000
