data_image0
_chemical_formula_structural       Cu4H20C20N24O4
_chemical_formula_sum              "Cu4 H20 C20 N24 O4"
_cell_length_a       5.3457
_cell_length_b       5.41566
_cell_length_c       25.6937
_cell_angle_alpha    92.343
_cell_angle_beta     90.0006
_cell_angle_gamma    89.9994

_space_group_name_H-M_alt    "P 1"
_space_group_IT_number       1

loop_
  _space_group_symop_operation_xyz
  'x, y, z'

loop_
  _atom_site_type_symbol
  _atom_site_label
  _atom_site_symmetry_multiplicity
  _atom_site_fract_x
  _atom_site_fract_y
  _atom_site_fract_z
  _atom_site_occupancy
  Cu  Cu1       1.0  0.80246  0.14391  0.71045  1.0000
  Cu  Cu2       1.0  0.69754  0.64393  0.21045  1.0000
  Cu  Cu3       1.0  0.19754  0.85606  0.28955  1.0000
  Cu  Cu4       1.0  0.30246  0.35605  0.78955  1.0000
  H   H1        1.0  0.79111  0.55049  0.62704  1.0000
  H   H2        1.0  0.70888  0.05050  0.12704  1.0000
  H   H3        1.0  0.20889  0.44950  0.37296  1.0000
  H   H4        1.0  0.29112  0.94951  0.87296  1.0000
  H   H5        1.0  0.27535  0.98452  0.66773  1.0000
  H   H6        1.0  0.22467  0.48453  0.16773  1.0000
  H   H7        1.0  0.72465  0.01546  0.33227  1.0000
  H   H8        1.0  0.77536  0.51547  0.83227  1.0000
  H   H9        1.0  0.55745  0.08602  0.59448  1.0000
  H   H10       1.0  0.94256  0.58602  0.09448  1.0000
  H   H11       1.0  0.44256  0.91398  0.40552  1.0000
  H   H12       1.0  0.05746  0.41399  0.90552  1.0000
  H   H13       1.0  0.20511  0.92293  0.48824  1.0000
  H   H14       1.0  0.29488  0.42294  0.98824  1.0000
  H   H15       1.0  0.79489  0.07706  0.51176  1.0000
  H   H16       1.0  0.70512  0.57707  0.01176  1.0000
  H   H17       1.0  0.39836  0.68042  0.51009  1.0000
  H   H18       1.0  0.10162  0.18043  0.01009  1.0000
  H   H19       1.0  0.60165  0.31958  0.48991  1.0000
  H   H20       1.0  0.89837  0.81958  0.98991  1.0000
  C   C1        1.0  0.12595  0.50702  0.58087  1.0000
  C   C2        1.0  0.37403  0.00703  0.08087  1.0000
  C   C3        1.0  0.87405  0.49298  0.41913  1.0000
  C   C4        1.0  0.62596  0.99299  0.91913  1.0000
  C   C5        1.0  0.96292  0.44605  0.62074  1.0000
  C   C6        1.0  0.53707  0.94608  0.12075  1.0000
  C   C7        1.0  0.03707  0.55394  0.37925  1.0000
  C   C8        1.0  0.46293  0.05395  0.87926  1.0000
  C   C9        1.0  0.22882  0.13385  0.64233  1.0000
  C   C10       1.0  0.27118  0.63387  0.14233  1.0000
  C   C11       1.0  0.77117  0.86614  0.35767  1.0000
  C   C12       1.0  0.72884  0.36614  0.85767  1.0000
  C   C13       1.0  0.38801  0.19439  0.60185  1.0000
  C   C14       1.0  0.11199  0.69438  0.10185  1.0000
  C   C15       1.0  0.61199  0.80562  0.39815  1.0000
  C   C16       1.0  0.88802  0.30563  0.89815  1.0000
  C   C17       1.0  0.06281  0.71951  0.54746  1.0000
  C   C18       1.0  0.43717  0.21951  0.04746  1.0000
  C   C19       1.0  0.93718  0.28050  0.45254  1.0000
  C   C20       1.0  0.56283  0.78050  0.95254  1.0000
  N   N1        1.0  0.57181  0.42305  0.73368  1.0000
  N   N2        1.0  0.92820  0.92307  0.23369  1.0000
  N   N3        1.0  0.42820  0.57692  0.26631  1.0000
  N   N4        1.0  0.07181  0.07692  0.76631  1.0000
  N   N5        1.0  0.60391  0.62907  0.71946  1.0000
  N   N6        1.0  0.89609  0.12910  0.21947  1.0000
  N   N7        1.0  0.39607  0.37090  0.28053  1.0000
  N   N8        1.0  0.10393  0.87090  0.78054  1.0000
  N   N9        1.0  0.62654  0.82977  0.70394  1.0000
  N   N10       1.0  0.87347  0.32979  0.20394  1.0000
  N   N11       1.0  0.37345  0.17020  0.29606  1.0000
  N   N12       1.0  0.12655  0.67020  0.79607  1.0000
  N   N13       1.0  0.33854  0.38090  0.57073  1.0000
  N   N14       1.0  0.16143  0.88091  0.07073  1.0000
  N   N15       1.0  0.66145  0.61911  0.42927  1.0000
  N   N16       1.0  0.83856  0.11911  0.92927  1.0000
  N   N17       1.0  0.01295  0.25688  0.65175  1.0000
  N   N18       1.0  0.48704  0.75691  0.15175  1.0000
  N   N19       1.0  0.98704  0.74311  0.34825  1.0000
  N   N20       1.0  0.51296  0.24311  0.84824  1.0000
  N   N21       1.0  0.23562  0.77771  0.51258  1.0000
  N   N22       1.0  0.26435  0.27773  0.01258  1.0000
  N   N23       1.0  0.76437  0.22228  0.48742  1.0000
  N   N24       1.0  0.73564  0.72229  0.98742  1.0000
  O   O1        1.0  0.85783  0.83064  0.55357  1.0000
  O   O2        1.0  0.64212  0.33066  0.05357  1.0000
  O   O3        1.0  0.14215  0.16935  0.44643  1.0000
  O   O4        1.0  0.35786  0.66938  0.94643  1.0000
