data_image0
_chemical_formula_structural       Fe2H20C29N18O
_chemical_formula_sum              "Fe2 H20 C29 N18 O1"
_cell_length_a       8.48038
_cell_length_b       9.50548
_cell_length_c       9.80881
_cell_angle_alpha    84.9178
_cell_angle_beta     67.5752
_cell_angle_gamma    82.278

_space_group_name_H-M_alt    "P 1"
_space_group_IT_number       1

loop_
  _space_group_symop_operation_xyz
  'x, y, z'

loop_
  _atom_site_type_symbol
  _atom_site_label
  _atom_site_symmetry_multiplicity
  _atom_site_fract_x
  _atom_site_fract_y
  _atom_site_fract_z
  _atom_site_occupancy
  Fe  Fe1       1.0  0.00191  0.99996  0.99953  1.0000
  Fe  Fe2       1.0  0.95968  0.00280  0.51403  1.0000
  H   H1        1.0  0.54790  0.31594  0.69371  1.0000
  H   H2        1.0  0.45283  0.69371  0.31263  1.0000
  H   H3        1.0  0.75445  0.49679  0.57118  1.0000
  H   H4        1.0  0.24182  0.51520  0.42832  1.0000
  H   H5        1.0  0.63608  0.75041  0.55041  1.0000
  H   H6        1.0  0.35393  0.25651  0.43718  1.0000
  H   H7        1.0  0.31705  0.81429  0.65543  1.0000
  H   H8        1.0  0.67167  0.18919  0.33078  1.0000
  H   H9        1.0  0.02260  0.59721  0.76574  1.0000
  H   H10       1.0  0.94046  0.49456  0.68653  1.0000
  H   H11       1.0  0.97531  0.40231  0.23110  1.0000
  H   H12       1.0  0.05892  0.50305  0.31106  1.0000
  H   H13       1.0  0.61678  0.96072  0.15362  1.0000
  H   H14       1.0  0.38174  0.04467  0.86174  1.0000
  H   H15       1.0  0.34739  0.10674  0.16376  1.0000
  H   H16       1.0  0.65524  0.89560  0.84928  1.0000
  H   H17       1.0  0.36124  0.34633  0.03390  1.0000
  H   H18       1.0  0.64113  0.65083  0.96331  1.0000
  H   H19       1.0  0.65398  0.43377  0.90158  1.0000
  H   H20       1.0  0.34858  0.56219  0.09156  1.0000
  C   C1        1.0  0.20110  0.37138  0.80726  1.0000
  C   C2        1.0  0.79899  0.63092  0.19106  1.0000
  C   C3        1.0  0.95717  0.27931  0.89972  1.0000
  C   C4        1.0  0.04509  0.71964  0.09753  1.0000
  C   C5        1.0  0.32656  0.47267  0.73892  1.0000
  C   C6        1.0  0.67077  0.53199  0.25973  1.0000
  C   C7        1.0  0.50296  0.42773  0.68457  1.0000
  C   C8        1.0  0.49520  0.58047  0.31659  1.0000
  C   C9        1.0  0.61656  0.52859  0.61699  1.0000
  C   C10       1.0  0.37906  0.48076  0.38154  1.0000
  C   C11       1.0  0.55060  0.66975  0.60562  1.0000
  C   C12       1.0  0.44091  0.33763  0.38804  1.0000
  C   C13       1.0  0.37319  0.70536  0.66346  1.0000
  C   C14       1.0  0.61792  0.29980  0.32937  1.0000
  C   C15       1.0  0.78366  0.24359  0.96089  1.0000
  C   C16       1.0  0.21884  0.75474  0.03685  1.0000
  C   C17       1.0  0.62010  0.06596  0.09955  1.0000
  C   C18       1.0  0.38184  0.93598  0.90754  1.0000
  C   C19       1.0  0.46955  0.14850  0.10360  1.0000
  C   C20       1.0  0.53233  0.85272  0.90199  1.0000
  C   C21       1.0  0.47823  0.28183  0.03191  1.0000
  C   C22       1.0  0.52409  0.71626  0.96696  1.0000
  C   C23       1.0  0.63845  0.33050  0.95913  1.0000
  C   C24       1.0  0.36412  0.66672  0.03680  1.0000
  C   C25       1.0  0.98827  0.03107  0.31076  1.0000
  C   C26       1.0  0.20583  0.97654  0.44307  1.0000
  C   C27       1.0  0.98592  0.19830  0.52719  1.0000
  C   C28       1.0  0.98383  0.96977  0.70021  1.0000
  C   C29       1.0  0.98442  0.80247  0.48495  1.0000
  N   N1        1.0  0.08105  0.18355  0.91481  1.0000
  N   N2        1.0  0.92227  0.81698  0.08309  1.0000
  N   N3        1.0  0.23242  0.24014  0.85901  1.0000
  N   N4        1.0  0.76991  0.76241  0.13889  1.0000
  N   N5        1.0  0.02876  0.39882  0.83136  1.0000
  N   N6        1.0  0.97140  0.60106  0.16634  1.0000
  N   N7        1.0  0.26242  0.60969  0.72982  1.0000
  N   N8        1.0  0.73179  0.39365  0.26582  1.0000
  N   N9        1.0  0.94153  0.51874  0.78683  1.0000
  N   N10       1.0  0.05700  0.48002  0.21078  1.0000
  N   N11       1.0  0.77561  0.11100  0.02890  1.0000
  N   N12       1.0  0.22675  0.88888  0.97257  1.0000
  N   N13       1.0  0.99223  0.03732  0.18979  1.0000
  N   N14       1.0  0.35567  0.95826  0.40506  1.0000
  N   N15       1.0  0.99795  0.31771  0.53919  1.0000
  N   N16       1.0  0.00542  0.96287  0.81184  1.0000
  N   N17       1.0  0.99798  0.68148  0.46213  1.0000
  N   N18       1.0  0.74754  0.02889  0.56738  1.0000
  O   O1        1.0  0.60128  0.05258  0.59204  1.0000
