data_image0
_chemical_formula_structural       Ag2H32C20S2N4Cl2O14
_chemical_formula_sum              "Ag2 H32 C20 S2 N4 Cl2 O14"
_cell_length_a       8.12213
_cell_length_b       9.61494
_cell_length_c       11.3438
_cell_angle_alpha    93.1861
_cell_angle_beta     109.981
_cell_angle_gamma    112.86

_space_group_name_H-M_alt    "P 1"
_space_group_IT_number       1

loop_
  _space_group_symop_operation_xyz
  'x, y, z'

loop_
  _atom_site_type_symbol
  _atom_site_label
  _atom_site_symmetry_multiplicity
  _atom_site_fract_x
  _atom_site_fract_y
  _atom_site_fract_z
  _atom_site_occupancy
  Ag  Ag1       1.0  0.61945  0.46143  0.37480  1.0000
  Ag  Ag2       1.0  0.16037  0.45800  0.46799  1.0000
  H   H1        1.0  0.43513  0.08239  0.57069  1.0000
  H   H2        1.0  0.57679  0.42772  0.92181  1.0000
  H   H3        1.0  0.38883  0.02597  0.89961  1.0000
  H   H4        1.0  0.30045  0.03468  0.73730  1.0000
  H   H5        1.0  0.57332  0.53805  0.67498  1.0000
  H   H6        1.0  0.06452  0.00440  0.90418  1.0000
  H   H7        1.0  0.97260  0.97838  0.73598  1.0000
  H   H8        1.0  0.12095  0.82608  0.24933  1.0000
  H   H9        1.0  0.89246  0.73613  0.82884  1.0000
  H   H10       1.0  0.13905  0.77320  0.88314  1.0000
  H   H11       1.0  0.75458  0.36963  0.16961  1.0000
  H   H12       1.0  0.31695  0.45587  0.91356  1.0000
  H   H13       1.0  0.11013  0.75610  0.64960  1.0000
  H   H14       1.0  0.85936  0.70541  0.60145  1.0000
  H   H15       1.0  0.08238  0.53068  0.74550  1.0000
  H   H16       1.0  0.82983  0.47591  0.82288  1.0000
  H   H17       1.0  0.77382  0.21522  0.76257  1.0000
  H   H18       1.0  0.73344  0.14101  0.50994  1.0000
  H   H19       1.0  0.96385  0.23656  0.64324  1.0000
  H   H20       1.0  0.49753  0.85036  0.02431  1.0000
  H   H21       1.0  0.56889  0.85871  0.89344  1.0000
  H   H22       1.0  0.82817  0.92256  0.17756  1.0000
  H   H23       1.0  0.90635  0.89360  0.05464  1.0000
  H   H24       1.0  0.73802  0.12776  0.05221  1.0000
  H   H25       1.0  0.89782  0.11944  0.98201  1.0000
  H   H26       1.0  0.98484  0.21720  0.26680  1.0000
  H   H27       1.0  0.14525  0.16806  0.22114  1.0000
  H   H28       1.0  0.20383  0.37253  0.10184  1.0000
  H   H29       1.0  0.92102  0.41737  0.01987  1.0000
  H   H30       1.0  0.15593  0.67975  0.06590  1.0000
  H   H31       1.0  0.42685  0.77578  0.32061  1.0000
  H   H32       1.0  0.44950  0.67698  0.19315  1.0000
  C   C1        1.0  0.35118  0.22645  0.86621  1.0000
  C   C2        1.0  0.28391  0.05575  0.82817  1.0000
  C   C3        1.0  0.07748  0.96082  0.81781  1.0000
  C   C4        1.0  0.02294  0.78823  0.80728  1.0000
  C   C5        1.0  0.98542  0.70122  0.67629  1.0000
  C   C6        1.0  0.94908  0.53432  0.67966  1.0000
  C   C7        1.0  0.78192  0.43907  0.71852  1.0000
  C   C8        1.0  0.72770  0.26369  0.67880  1.0000
  C   C9        1.0  0.82642  0.24209  0.58962  1.0000
  C   C10       1.0  0.44571  0.30224  0.60042  1.0000
  C   C11       1.0  0.53942  0.65942  0.96151  1.0000
  C   C12       1.0  0.59740  0.82928  0.98882  1.0000
  C   C13       1.0  0.80853  0.93274  0.07802  1.0000
  C   C14       1.0  0.86375  0.10204  0.06770  1.0000
  C   C15       1.0  0.03567  0.21295  0.18869  1.0000
  C   C16       1.0  0.13398  0.37498  0.16929  1.0000
  C   C17       1.0  0.00975  0.46343  0.12351  1.0000
  C   C18       1.0  0.14925  0.63981  0.15352  1.0000
  C   C19       1.0  0.35614  0.67121  0.24498  1.0000
  C   C20       1.0  0.90801  0.60729  0.23219  1.0000
  S   S1        1.0  0.88603  0.41595  0.52451  1.0000
  S   S2        1.0  0.32982  0.50518  0.31921  1.0000
  N   N1        1.0  0.51763  0.19577  0.61631  1.0000
  N   N2        1.0  0.59942  0.44737  0.65001  1.0000
  N   N3        1.0  0.05898  0.71090  0.21092  1.0000
  N   N4        1.0  0.88712  0.46055  0.19266  1.0000
  Cl  Cl1       1.0  0.50909  0.81839  0.62043  1.0000
  Cl  Cl2       1.0  0.46492  0.08744  0.21863  1.0000
  O   O1        1.0  0.54038  0.31017  0.90151  1.0000
  O   O2        1.0  0.23781  0.28525  0.86471  1.0000
  O   O3        1.0  0.26925  0.27250  0.54999  1.0000
  O   O4        1.0  0.35651  0.57280  0.94481  1.0000
  O   O5        1.0  0.64929  0.60255  0.95039  1.0000
  O   O6        1.0  0.80575  0.63936  0.27978  1.0000
  O   O7        1.0  0.43347  0.67342  0.66539  1.0000
  O   O8        1.0  0.63307  0.94540  0.73213  1.0000
  O   O9        1.0  0.34397  0.84423  0.53950  1.0000
  O   O10       1.0  0.61890  0.80305  0.54663  1.0000
  O   O11       1.0  0.48737  0.23565  0.17774  1.0000
  O   O12       1.0  0.37205  0.06910  0.31055  1.0000
  O   O13       1.0  0.34227  0.96155  0.10567  1.0000
  O   O14       1.0  0.65607  0.09014  0.27844  1.0000
