data_image0
_chemical_formula_structural       Zn4H16C32O16
_chemical_formula_sum              "Zn4 H16 C32 O16"
_cell_length_a       5.22842
_cell_length_b       10.5571
_cell_length_c       14.0395
_cell_angle_alpha    108.811
_cell_angle_beta     90.0002
_cell_angle_gamma    90.0006

_space_group_name_H-M_alt    "P 1"
_space_group_IT_number       1

loop_
  _space_group_symop_operation_xyz
  'x, y, z'

loop_
  _atom_site_type_symbol
  _atom_site_label
  _atom_site_symmetry_multiplicity
  _atom_site_fract_x
  _atom_site_fract_y
  _atom_site_fract_z
  _atom_site_occupancy
  Zn  Zn1       1.0  0.46609  0.44145  0.11660  1.0000
  Zn  Zn2       1.0  0.96607  0.55856  0.38341  1.0000
  Zn  Zn3       1.0  0.53393  0.55856  0.88341  1.0000
  Zn  Zn4       1.0  0.03394  0.44144  0.61658  1.0000
  H   H1        1.0  0.54187  0.17702  0.52319  1.0000
  H   H2        1.0  0.04187  0.82298  0.97682  1.0000
  H   H3        1.0  0.45815  0.82297  0.47680  1.0000
  H   H4        1.0  0.95811  0.17704  0.02319  1.0000
  H   H5        1.0  0.20090  0.00198  0.47501  1.0000
  H   H6        1.0  0.70090  0.99801  0.02501  1.0000
  H   H7        1.0  0.79910  0.99801  0.52499  1.0000
  H   H8        1.0  0.29907  0.00200  0.97500  1.0000
  H   H9        1.0  0.91257  0.98925  0.33105  1.0000
  H   H10       1.0  0.41256  0.01075  0.16897  1.0000
  H   H11       1.0  0.08741  0.01077  0.66896  1.0000
  H   H12       1.0  0.58741  0.98925  0.83104  1.0000
  H   H13       1.0  0.96687  0.14809  0.23553  1.0000
  H   H14       1.0  0.46687  0.85189  0.26448  1.0000
  H   H15       1.0  0.03312  0.85191  0.76447  1.0000
  H   H16       1.0  0.53313  0.14810  0.73553  1.0000
  C   C1        1.0  0.28937  0.24944  0.32351  1.0000
  C   C2        1.0  0.78938  0.75056  0.17649  1.0000
  C   C3        1.0  0.71060  0.75056  0.67649  1.0000
  C   C4        1.0  0.21061  0.24945  0.82351  1.0000
  C   C5        1.0  0.45148  0.25804  0.40561  1.0000
  C   C6        1.0  0.95149  0.74195  0.09439  1.0000
  C   C7        1.0  0.54851  0.74194  0.59438  1.0000
  C   C8        1.0  0.04849  0.25806  0.90561  1.0000
  C   C9        1.0  0.41562  0.16848  0.45976  1.0000
  C   C10       1.0  0.91560  0.83152  0.04024  1.0000
  C   C11       1.0  0.58441  0.83152  0.54023  1.0000
  C   C12       1.0  0.08438  0.16850  0.95977  1.0000
  C   C13       1.0  0.22505  0.07157  0.43291  1.0000
  C   C14       1.0  0.72506  0.92842  0.06710  1.0000
  C   C15       1.0  0.77493  0.92843  0.56709  1.0000
  C   C16       1.0  0.27494  0.07158  0.93291  1.0000
  C   C17       1.0  0.06325  0.06431  0.35225  1.0000
  C   C18       1.0  0.56323  0.93568  0.14777  1.0000
  C   C19       1.0  0.93675  0.93569  0.64776  1.0000
  C   C20       1.0  0.43673  0.06432  0.85224  1.0000
  C   C21       1.0  0.09450  0.15319  0.29816  1.0000
  C   C22       1.0  0.59448  0.84680  0.20185  1.0000
  C   C23       1.0  0.90550  0.84681  0.70184  1.0000
  C   C24       1.0  0.40550  0.15320  0.79816  1.0000
  C   C25       1.0  0.31498  0.33612  0.25798  1.0000
  C   C26       1.0  0.81496  0.66387  0.24203  1.0000
  C   C27       1.0  0.68505  0.66387  0.74202  1.0000
  C   C28       1.0  0.18503  0.33612  0.75797  1.0000
  C   C29       1.0  0.66361  0.35816  0.43746  1.0000
  C   C30       1.0  0.16360  0.64184  0.06254  1.0000
  C   C31       1.0  0.33642  0.64183  0.56253  1.0000
  C   C32       1.0  0.83638  0.35817  0.93745  1.0000
  O   O1        1.0  0.44477  0.29157  0.17706  1.0000
  O   O2        1.0  0.94477  0.70843  0.32294  1.0000
  O   O3        1.0  0.55530  0.70844  0.82294  1.0000
  O   O4        1.0  0.05529  0.29156  0.67705  1.0000
  O   O5        1.0  0.19415  0.44581  0.27812  1.0000
  O   O6        1.0  0.69418  0.55418  0.22189  1.0000
  O   O7        1.0  0.80583  0.55418  0.72187  1.0000
  O   O8        1.0  0.30583  0.44583  0.77812  1.0000
  O   O9        1.0  0.67349  0.44953  0.39597  1.0000
  O   O10       1.0  0.17351  0.55047  0.10404  1.0000
  O   O11       1.0  0.32652  0.55046  0.60403  1.0000
  O   O12       1.0  0.82648  0.44954  0.89596  1.0000
  O   O13       1.0  0.81851  0.34343  0.50253  1.0000
  O   O14       1.0  0.31854  0.65655  0.99745  1.0000
  O   O15       1.0  0.18149  0.65655  0.49745  1.0000
  O   O16       1.0  0.68148  0.34346  0.00254  1.0000
