data_image0
_chemical_formula_structural       Zn2P4H20C8O12
_chemical_formula_sum              "Zn2 P4 H20 C8 O12"
_cell_length_a       7.95604
_cell_length_b       7.88421
_cell_length_c       8.94528
_cell_angle_alpha    116.138
_cell_angle_beta     111.71
_cell_angle_gamma    90.0105

_space_group_name_H-M_alt    "P 1"
_space_group_IT_number       1

loop_
  _space_group_symop_operation_xyz
  'x, y, z'

loop_
  _atom_site_type_symbol
  _atom_site_label
  _atom_site_symmetry_multiplicity
  _atom_site_fract_x
  _atom_site_fract_y
  _atom_site_fract_z
  _atom_site_occupancy
  Zn  Zn1       1.0  0.74997  0.04427  0.00007  1.0000
  Zn  Zn2       1.0  0.25002  0.95572  0.99993  1.0000
  P   P1        1.0  0.03683  0.88899  0.21009  1.0000
  P   P2        1.0  0.46315  0.67888  0.78995  1.0000
  P   P3        1.0  0.96317  0.11102  0.78993  1.0000
  P   P4        1.0  0.53686  0.32111  0.21005  1.0000
  H   H1        1.0  0.02146  0.59242  0.17278  1.0000
  H   H2        1.0  0.47847  0.41957  0.82723  1.0000
  H   H3        1.0  0.97854  0.40758  0.82722  1.0000
  H   H4        1.0  0.52152  0.58042  0.17276  1.0000
  H   H5        1.0  0.26669  0.16556  0.42467  1.0000
  H   H6        1.0  0.23333  0.74087  0.57526  1.0000
  H   H7        1.0  0.73331  0.83445  0.57534  1.0000
  H   H8        1.0  0.76668  0.25913  0.42473  1.0000
  H   H9        1.0  0.21106  0.04548  0.53334  1.0000
  H   H10       1.0  0.28892  0.51211  0.46672  1.0000
  H   H11       1.0  0.78894  0.95454  0.46667  1.0000
  H   H12       1.0  0.71108  0.48789  0.53327  1.0000
  H   H13       1.0  0.39486  0.79733  0.42426  1.0000
  H   H14       1.0  0.10508  0.37318  0.57589  1.0000
  H   H15       1.0  0.60514  0.20267  0.57574  1.0000
  H   H16       1.0  0.89492  0.62682  0.42411  1.0000
  H   H17       1.0  0.42796  0.89454  0.29187  1.0000
  H   H18       1.0  0.07189  0.60273  0.70811  1.0000
  H   H19       1.0  0.57203  0.10546  0.70813  1.0000
  H   H20       1.0  0.92811  0.39727  0.29188  1.0000
  C   C1        1.0  0.24229  0.02387  0.41670  1.0000
  C   C2        1.0  0.25768  0.60719  0.58332  1.0000
  C   C3        1.0  0.75771  0.97614  0.58331  1.0000
  C   C4        1.0  0.74232  0.39281  0.41667  1.0000
  C   C5        1.0  0.41222  0.93253  0.41934  1.0000
  C   C6        1.0  0.08773  0.51326  0.58071  1.0000
  C   C7        1.0  0.58778  0.06747  0.58067  1.0000
  C   C8        1.0  0.91228  0.48674  0.41928  1.0000
  O   O1        1.0  0.88624  0.00856  0.21461  1.0000
  O   O2        1.0  0.61380  0.79399  0.78549  1.0000
  O   O3        1.0  0.11375  0.99143  0.78539  1.0000
  O   O4        1.0  0.38621  0.20600  0.21451  1.0000
  O   O5        1.0  0.07982  0.81845  0.04156  1.0000
  O   O6        1.0  0.42031  0.77692  0.95857  1.0000
  O   O7        1.0  0.92018  0.18155  0.95845  1.0000
  O   O8        1.0  0.57970  0.22310  0.04142  1.0000
  O   O9        1.0  0.96153  0.70157  0.21339  1.0000
  O   O10       1.0  0.53828  0.48804  0.78646  1.0000
  O   O11       1.0  0.03847  0.29843  0.78662  1.0000
  O   O12       1.0  0.46172  0.51195  0.21354  1.0000
