data_image0
_chemical_formula_structural       Zn2P4H20C8O12
_chemical_formula_sum              "Zn2 P4 H20 C8 O12"
_cell_length_a       9.27624
_cell_length_b       5.27971
_cell_length_c       10.0748
_cell_angle_alpha    105.174
_cell_angle_beta     114.13
_cell_angle_gamma    90.0108

_space_group_name_H-M_alt    "P 1"
_space_group_IT_number       1

loop_
  _space_group_symop_operation_xyz
  'x, y, z'

loop_
  _atom_site_type_symbol
  _atom_site_label
  _atom_site_symmetry_multiplicity
  _atom_site_fract_x
  _atom_site_fract_y
  _atom_site_fract_z
  _atom_site_occupancy
  Zn  Zn1       1.0  0.25004  0.01481  0.00000  1.0000
  Zn  Zn2       1.0  0.74996  0.98520  0.00001  1.0000
  P   P1        1.0  0.40539  0.19402  0.80893  1.0000
  P   P2        1.0  0.09456  0.38485  0.19103  1.0000
  P   P3        1.0  0.59464  0.80598  0.19109  1.0000
  P   P4        1.0  0.90543  0.61515  0.80897  1.0000
  H   H1        1.0  0.40869  0.61836  0.89354  1.0000
  H   H2        1.0  0.09145  0.72476  0.10663  1.0000
  H   H3        1.0  0.59130  0.38164  0.10646  1.0000
  H   H4        1.0  0.90855  0.27522  0.89336  1.0000
  H   H5        1.0  0.47288  0.28933  0.55188  1.0000
  H   H6        1.0  0.02698  0.73682  0.44751  1.0000
  H   H7        1.0  0.52713  0.71067  0.44813  1.0000
  H   H8        1.0  0.97301  0.26319  0.55247  1.0000
  H   H9        1.0  0.62836  0.13640  0.65988  1.0000
  H   H10       1.0  0.87155  0.47573  0.34002  1.0000
  H   H11       1.0  0.37164  0.86360  0.34013  1.0000
  H   H12       1.0  0.12845  0.52426  0.65996  1.0000
  H   H13       1.0  0.42287  0.79971  0.64844  1.0000
  H   H14       1.0  0.07691  0.15060  0.35141  1.0000
  H   H15       1.0  0.57711  0.20029  0.35155  1.0000
  H   H16       1.0  0.92309  0.84941  0.64859  1.0000
  H   H17       1.0  0.26989  0.96895  0.54830  1.0000
  H   H18       1.0  0.23002  0.41983  0.45159  1.0000
  H   H19       1.0  0.73011  0.03106  0.45170  1.0000
  H   H20       1.0  0.76998  0.58018  0.54842  1.0000
  C   C1        1.0  0.50505  0.09800  0.57293  1.0000
  C   C2        1.0  0.99489  0.52467  0.42693  1.0000
  C   C3        1.0  0.49495  0.90200  0.42708  1.0000
  C   C4        1.0  0.00510  0.47533  0.57306  1.0000
  C   C5        1.0  0.39515  0.99462  0.63080  1.0000
  C   C6        1.0  0.10473  0.36316  0.36909  1.0000
  C   C7        1.0  0.60484  0.00539  0.36919  1.0000
  C   C8        1.0  0.89527  0.63684  0.63090  1.0000
  O   O1        1.0  0.26200  0.10052  0.82984  1.0000
  O   O2        1.0  0.23793  0.27056  0.17005  1.0000
  O   O3        1.0  0.73799  0.89945  0.17017  1.0000
  O   O4        1.0  0.76211  0.72945  0.82996  1.0000
  O   O5        1.0  0.56669  0.19271  0.94112  1.0000
  O   O6        1.0  0.93322  0.25165  0.05880  1.0000
  O   O7        1.0  0.43330  0.80729  0.05886  1.0000
  O   O8        1.0  0.06682  0.74832  0.94120  1.0000
  O   O9        1.0  0.39552  0.48678  0.79451  1.0000
  O   O10       1.0  0.10459  0.69206  0.20560  1.0000
  O   O11       1.0  0.60447  0.51322  0.20550  1.0000
  O   O12       1.0  0.89540  0.30794  0.79438  1.0000
