data_image0
_chemical_formula_structural       U2H16C12O12
_chemical_formula_sum              "U2 H16 C12 O12"
_cell_length_a       5.52293
_cell_length_b       8.46872
_cell_length_c       10.466
_cell_angle_alpha    95.7991
_cell_angle_beta     81.3562
_cell_angle_gamma    79.8603

_space_group_name_H-M_alt    "P 1"
_space_group_IT_number       1

loop_
  _space_group_symop_operation_xyz
  'x, y, z'

loop_
  _atom_site_type_symbol
  _atom_site_label
  _atom_site_symmetry_multiplicity
  _atom_site_fract_x
  _atom_site_fract_y
  _atom_site_fract_z
  _atom_site_occupancy
  U   U1        1.0  0.49147  0.97967  0.74418  1.0000
  U   U2        1.0  0.50854  0.02034  0.25580  1.0000
  H   H1        1.0  0.15797  0.66439  0.34302  1.0000
  H   H2        1.0  0.84201  0.33563  0.65697  1.0000
  H   H3        1.0  0.91170  0.76819  0.46104  1.0000
  H   H4        1.0  0.08827  0.23182  0.53896  1.0000
  H   H5        1.0  0.28441  0.46509  0.49322  1.0000
  H   H6        1.0  0.71564  0.53492  0.50675  1.0000
  H   H7        1.0  0.06531  0.58317  0.62449  1.0000
  H   H8        1.0  0.93474  0.41683  0.37551  1.0000
  H   H9        1.0  0.99260  0.32426  0.94576  1.0000
  H   H10       1.0  0.00738  0.67574  0.05427  1.0000
  H   H11       1.0  0.82690  0.37317  0.10841  1.0000
  H   H12       1.0  0.17308  0.62681  0.89161  1.0000
  H   H13       1.0  0.71296  0.59237  0.96776  1.0000
  H   H14       1.0  0.28703  0.40764  0.03225  1.0000
  H   H15       1.0  0.62580  0.45112  0.85681  1.0000
  H   H16       1.0  0.37417  0.54886  0.14323  1.0000
  C   C1        1.0  0.25622  0.81327  0.49364  1.0000
  C   C2        1.0  0.74379  0.18673  0.50635  1.0000
  C   C3        1.0  0.10188  0.69541  0.44930  1.0000
  C   C4        1.0  0.89811  0.30461  0.55070  1.0000
  C   C5        1.0  0.10005  0.54593  0.51866  1.0000
  C   C6        1.0  0.89995  0.45409  0.48133  1.0000
  C   C7        1.0  0.71677  0.18839  0.98924  1.0000
  C   C8        1.0  0.28322  0.81160  0.01076  1.0000
  C   C9        1.0  0.80563  0.34607  0.00621  1.0000
  C   C10       1.0  0.19435  0.65393  0.99381  1.0000
  C   C11       1.0  0.63225  0.48279  0.96066  1.0000
  C   C12       1.0  0.36776  0.51720  0.03936  1.0000
  O   O1        1.0  0.22855  0.14052  0.74370  1.0000
  O   O2        1.0  0.77145  0.85948  0.25625  1.0000
  O   O3        1.0  0.75048  0.81841  0.74974  1.0000
  O   O4        1.0  0.24953  0.18158  0.25025  1.0000
  O   O5        1.0  0.28776  0.92672  0.42367  1.0000
  O   O6        1.0  0.71228  0.07326  0.57631  1.0000
  O   O7        1.0  0.34589  0.80327  0.59818  1.0000
  O   O8        1.0  0.65410  0.19674  0.40181  1.0000
  O   O9        1.0  0.63277  0.15335  0.88572  1.0000
  O   O10       1.0  0.36713  0.84667  0.11431  1.0000
  O   O11       1.0  0.72751  0.09527  0.07769  1.0000
  O   O12       1.0  0.27259  0.90469  0.92231  1.0000
