data_image0
_chemical_formula_structural       U4H32C48N8O32
_chemical_formula_sum              "U4 H32 C48 N8 O32"
_cell_length_a       6.99473
_cell_length_b       13.4201
_cell_length_c       14.9176
_cell_angle_alpha    90
_cell_angle_beta     90
_cell_angle_gamma    90

_space_group_name_H-M_alt    "P 1"
_space_group_IT_number       1

loop_
  _space_group_symop_operation_xyz
  'x, y, z'

loop_
  _atom_site_type_symbol
  _atom_site_label
  _atom_site_symmetry_multiplicity
  _atom_site_fract_x
  _atom_site_fract_y
  _atom_site_fract_z
  _atom_site_occupancy
  U   U1        1.0  0.94425  0.48893  0.49922  1.0000
  U   U2        1.0  0.55573  0.51107  0.99921  1.0000
  U   U3        1.0  0.05573  0.98893  0.00079  1.0000
  U   U4        1.0  0.44427  0.01106  0.50079  1.0000
  H   H1        1.0  0.74166  0.57023  0.23606  1.0000
  H   H2        1.0  0.75834  0.42976  0.73606  1.0000
  H   H3        1.0  0.25834  0.07024  0.26394  1.0000
  H   H4        1.0  0.24166  0.92977  0.76394  1.0000
  H   H5        1.0  0.79447  0.73405  0.47034  1.0000
  H   H6        1.0  0.70553  0.26595  0.97034  1.0000
  H   H7        1.0  0.20553  0.23405  0.02966  1.0000
  H   H8        1.0  0.29447  0.76595  0.52966  1.0000
  H   H9        1.0  0.84728  0.71512  0.14132  1.0000
  H   H10       1.0  0.65272  0.28488  0.64132  1.0000
  H   H11       1.0  0.15272  0.21512  0.35868  1.0000
  H   H12       1.0  0.34728  0.78488  0.85868  1.0000
  H   H13       1.0  0.89393  0.88899  0.38408  1.0000
  H   H14       1.0  0.60607  0.11101  0.88409  1.0000
  H   H15       1.0  0.10607  0.38899  0.11591  1.0000
  H   H16       1.0  0.39393  0.61101  0.61591  1.0000
  H   H17       1.0  0.00064  0.58194  0.83107  1.0000
  H   H18       1.0  0.49936  0.41806  0.33107  1.0000
  H   H19       1.0  0.99936  0.08194  0.66893  1.0000
  H   H20       1.0  0.50065  0.91807  0.16893  1.0000
  H   H21       1.0  0.97003  0.70713  0.95723  1.0000
  H   H22       1.0  0.52997  0.29287  0.45723  1.0000
  H   H23       1.0  0.02996  0.20713  0.54277  1.0000
  H   H24       1.0  0.47004  0.79287  0.04277  1.0000
  H   H25       1.0  0.73553  0.91958  0.78703  1.0000
  H   H26       1.0  0.76448  0.08042  0.28703  1.0000
  H   H27       1.0  0.26447  0.41958  0.71297  1.0000
  H   H28       1.0  0.23553  0.58042  0.21297  1.0000
  H   H29       1.0  0.76205  0.80493  0.65367  1.0000
  H   H30       1.0  0.73796  0.19507  0.15367  1.0000
  H   H31       1.0  0.23795  0.30493  0.84633  1.0000
  H   H32       1.0  0.26205  0.69507  0.34633  1.0000
  C   C1        1.0  0.89483  0.61333  0.65572  1.0000
  C   C2        1.0  0.60517  0.38666  0.15571  1.0000
  C   C3        1.0  0.10516  0.11334  0.84429  1.0000
  C   C4        1.0  0.39484  0.88666  0.34428  1.0000
  C   C5        1.0  0.77912  0.64224  0.26379  1.0000
  C   C6        1.0  0.72088  0.35776  0.76379  1.0000
  C   C7        1.0  0.22088  0.14224  0.23621  1.0000
  C   C8        1.0  0.27912  0.85776  0.73621  1.0000
  C   C9        1.0  0.80879  0.73664  0.39784  1.0000
  C   C10       1.0  0.69121  0.26336  0.89784  1.0000
  C   C11       1.0  0.19121  0.23664  0.10216  1.0000
  C   C12       1.0  0.30880  0.76336  0.60216  1.0000
  C   C13       1.0  0.83687  0.72343  0.21371  1.0000
  C   C14       1.0  0.66314  0.27656  0.71371  1.0000
  C   C15       1.0  0.16314  0.22344  0.28629  1.0000
  C   C16       1.0  0.33687  0.77657  0.78629  1.0000
  C   C17       1.0  0.86349  0.81952  0.34931  1.0000
  C   C18       1.0  0.63651  0.18047  0.84931  1.0000
  C   C19       1.0  0.13651  0.31953  0.15069  1.0000
  C   C20       1.0  0.36349  0.68048  0.65069  1.0000
  C   C21       1.0  0.88241  0.81318  0.25617  1.0000
  C   C22       1.0  0.61759  0.18682  0.75618  1.0000
  C   C23       1.0  0.11759  0.31318  0.24383  1.0000
  C   C24       1.0  0.38241  0.68682  0.74383  1.0000
  C   C25       1.0  0.94395  0.65617  0.81835  1.0000
  C   C26       1.0  0.55605  0.34384  0.31834  1.0000
  C   C27       1.0  0.05604  0.15617  0.68166  1.0000
  C   C28       1.0  0.44396  0.84384  0.18165  1.0000
  C   C29       1.0  0.88333  0.68400  0.73249  1.0000
  C   C30       1.0  0.61667  0.31600  0.23249  1.0000
  C   C31       1.0  0.11666  0.18400  0.76751  1.0000
  C   C32       1.0  0.38333  0.81601  0.26751  1.0000
  C   C33       1.0  0.95117  0.90210  0.20426  1.0000
  C   C34       1.0  0.54883  0.09790  0.70425  1.0000
  C   C35       1.0  0.04883  0.40210  0.29575  1.0000
  C   C36       1.0  0.45116  0.59790  0.79574  1.0000
  C   C37       1.0  0.92886  0.72294  0.88851  1.0000
  C   C38       1.0  0.57114  0.27706  0.38851  1.0000
  C   C39       1.0  0.07114  0.22294  0.61149  1.0000
  C   C40       1.0  0.42886  0.77706  0.11149  1.0000
  C   C41       1.0  0.79599  0.84493  0.79098  1.0000
  C   C42       1.0  0.70400  0.15507  0.29097  1.0000
  C   C43       1.0  0.20400  0.34493  0.70903  1.0000
  C   C44       1.0  0.29599  0.65507  0.20903  1.0000
  C   C45       1.0  0.81046  0.78000  0.71942  1.0000
  C   C46       1.0  0.68954  0.22000  0.21942  1.0000
  C   C47       1.0  0.18954  0.28000  0.78058  1.0000
  C   C48       1.0  0.31047  0.72000  0.28058  1.0000
  N   N1        1.0  0.77274  0.64935  0.35453  1.0000
  N   N2        1.0  0.72726  0.35065  0.85453  1.0000
  N   N3        1.0  0.22726  0.14935  0.14547  1.0000
  N   N4        1.0  0.27274  0.85065  0.64547  1.0000
  N   N5        1.0  0.85399  0.81500  0.87363  1.0000
  N   N6        1.0  0.64601  0.18500  0.37363  1.0000
  N   N7        1.0  0.14601  0.31500  0.62637  1.0000
  N   N8        1.0  0.35399  0.68500  0.12637  1.0000
  O   O1        1.0  0.75398  0.40694  0.53730  1.0000
  O   O2        1.0  0.74601  0.59306  0.03730  1.0000
  O   O3        1.0  0.24601  0.90694  0.96270  1.0000
  O   O4        1.0  0.25399  0.09305  0.46270  1.0000
  O   O5        1.0  0.72927  0.56798  0.40193  1.0000
  O   O6        1.0  0.77073  0.43202  0.90193  1.0000
  O   O7        1.0  0.27072  0.06798  0.09807  1.0000
  O   O8        1.0  0.22928  0.93202  0.59807  1.0000
  O   O9        1.0  0.99085  0.53275  0.66277  1.0000
  O   O10       1.0  0.50916  0.46724  0.16277  1.0000
  O   O11       1.0  0.00915  0.03276  0.83723  1.0000
  O   O12       1.0  0.49085  0.96724  0.33723  1.0000
  O   O13       1.0  0.13186  0.57322  0.46276  1.0000
  O   O14       1.0  0.36812  0.42678  0.96276  1.0000
  O   O15       1.0  0.86811  0.07322  0.03724  1.0000
  O   O16       1.0  0.63188  0.92678  0.53724  1.0000
  O   O17       1.0  0.80939  0.63494  0.58264  1.0000
  O   O18       1.0  0.69062  0.36506  0.08264  1.0000
  O   O19       1.0  0.19061  0.13494  0.91736  1.0000
  O   O20       1.0  0.30939  0.86506  0.41736  1.0000
  O   O21       1.0  0.99816  0.88407  0.12148  1.0000
  O   O22       1.0  0.50184  0.11593  0.62147  1.0000
  O   O23       1.0  0.00184  0.38407  0.37853  1.0000
  O   O24       1.0  0.49815  0.61593  0.87852  1.0000
  O   O25       1.0  0.96264  0.98428  0.24231  1.0000
  O   O26       1.0  0.53736  0.01571  0.74231  1.0000
  O   O27       1.0  0.03736  0.48429  0.25769  1.0000
  O   O28       1.0  0.46263  0.51572  0.75769  1.0000
  O   O29       1.0  0.83135  0.87734  0.94198  1.0000
  O   O30       1.0  0.66865  0.12266  0.44198  1.0000
  O   O31       1.0  0.16864  0.37734  0.55802  1.0000
  O   O32       1.0  0.33135  0.62266  0.05802  1.0000
