data_image0
_chemical_formula_structural       Cd4H48C68N8O20
_chemical_formula_sum              "Cd4 H48 C68 N8 O20"
_cell_length_a       8.91084
_cell_length_b       12.2385
_cell_length_c       16.1174
_cell_angle_alpha    85.5824
_cell_angle_beta     73.9618
_cell_angle_gamma    73.8532

_space_group_name_H-M_alt    "P 1"
_space_group_IT_number       1

loop_
  _space_group_symop_operation_xyz
  'x, y, z'

loop_
  _atom_site_type_symbol
  _atom_site_label
  _atom_site_symmetry_multiplicity
  _atom_site_fract_x
  _atom_site_fract_y
  _atom_site_fract_z
  _atom_site_occupancy
  Cd  Cd1       1.0  0.01489  0.74410  0.39094  1.0000
  Cd  Cd2       1.0  0.59406  0.75542  0.39074  1.0000
  Cd  Cd3       1.0  0.98510  0.25591  0.60906  1.0000
  Cd  Cd4       1.0  0.40593  0.24459  0.60926  1.0000
  H   H1        1.0  0.19932  0.50829  0.42789  1.0000
  H   H2        1.0  0.37399  0.99145  0.42778  1.0000
  H   H3        1.0  0.80068  0.49171  0.57210  1.0000
  H   H4        1.0  0.62599  0.00854  0.57222  1.0000
  H   H5        1.0  0.29563  0.59702  0.43882  1.0000
  H   H6        1.0  0.26594  0.90321  0.43875  1.0000
  H   H7        1.0  0.70438  0.40298  0.56117  1.0000
  H   H8        1.0  0.73405  0.09678  0.56125  1.0000
  H   H9        1.0  0.69313  0.81939  0.20190  1.0000
  H   H10       1.0  0.10510  0.68045  0.20202  1.0000
  H   H11       1.0  0.30687  0.18059  0.79810  1.0000
  H   H12       1.0  0.89490  0.31955  0.79798  1.0000
  H   H13       1.0  0.17477  0.97839  0.56423  1.0000
  H   H14       1.0  0.26090  0.52211  0.56446  1.0000
  H   H15       1.0  0.82521  0.02161  0.43577  1.0000
  H   H16       1.0  0.73910  0.47789  0.43554  1.0000
  H   H17       1.0  0.08012  0.95648  0.83827  1.0000
  H   H18       1.0  0.08192  0.54374  0.83848  1.0000
  H   H19       1.0  0.91986  0.04352  0.16173  1.0000
  H   H20       1.0  0.91809  0.45626  0.16152  1.0000
  H   H21       1.0  0.86366  0.77588  0.70313  1.0000
  H   H22       1.0  0.43305  0.72463  0.70333  1.0000
  H   H23       1.0  0.13634  0.22411  0.29687  1.0000
  H   H24       1.0  0.56695  0.27538  0.29666  1.0000
  H   H25       1.0  0.90687  0.95023  0.94127  1.0000
  H   H26       1.0  0.15162  0.55017  0.94152  1.0000
  H   H27       1.0  0.09315  0.04975  0.05873  1.0000
  H   H28       1.0  0.84841  0.44982  0.05848  1.0000
  H   H29       1.0  0.78131  0.88469  0.08199  1.0000
  H   H30       1.0  0.13647  0.61564  0.08220  1.0000
  H   H31       1.0  0.21872  0.11528  0.91802  1.0000
  H   H32       1.0  0.86356  0.38436  0.91780  1.0000
  H   H33       1.0  0.68309  0.61826  0.96108  1.0000
  H   H34       1.0  0.35632  0.88180  0.96138  1.0000
  H   H35       1.0  0.31692  0.38173  0.03891  1.0000
  H   H36       1.0  0.64366  0.11823  0.03862  1.0000
  H   H37       1.0  0.81389  0.68270  0.81942  1.0000
  H   H38       1.0  0.36709  0.81748  0.81970  1.0000
  H   H39       1.0  0.18611  0.31729  0.18058  1.0000
  H   H40       1.0  0.63289  0.18254  0.18030  1.0000
  H   H41       1.0  0.53006  0.57230  0.10378  1.0000
  H   H42       1.0  0.36614  0.92775  0.10436  1.0000
  H   H43       1.0  0.46994  0.42769  0.89622  1.0000
  H   H44       1.0  0.63388  0.07225  0.89565  1.0000
  H   H45       1.0  0.44567  0.57813  0.28108  1.0000
  H   H46       1.0  0.27310  0.92157  0.28163  1.0000
  H   H47       1.0  0.55432  0.42187  0.71892  1.0000
  H   H48       1.0  0.72690  0.07843  0.71837  1.0000
  C   C1        1.0  0.01184  0.83130  0.54245  1.0000
  C   C2        1.0  0.44604  0.66882  0.54264  1.0000
  C   C3        1.0  0.98815  0.16870  0.45755  1.0000
  C   C4        1.0  0.55397  0.33118  0.45735  1.0000
  C   C5        1.0  0.02250  0.86931  0.62588  1.0000
  C   C6        1.0  0.35166  0.63109  0.62610  1.0000
  C   C7        1.0  0.97749  0.13070  0.37412  1.0000
  C   C8        1.0  0.64834  0.36891  0.37389  1.0000
  C   C9        1.0  0.11651  0.94388  0.62473  1.0000
  C   C10       1.0  0.25876  0.55657  0.62495  1.0000
  C   C11       1.0  0.88348  0.05612  0.37528  1.0000
  C   C12       1.0  0.74125  0.44343  0.37505  1.0000
  C   C13       1.0  0.13439  0.97553  0.70189  1.0000
  C   C14       1.0  0.16376  0.52484  0.70209  1.0000
  C   C15       1.0  0.86559  0.02447  0.29811  1.0000
  C   C16       1.0  0.83624  0.47516  0.29791  1.0000
  C   C17       1.0  0.05968  0.93169  0.77987  1.0000
  C   C18       1.0  0.16071  0.56858  0.78006  1.0000
  C   C19       1.0  0.94031  0.06831  0.22013  1.0000
  C   C20       1.0  0.83929  0.43143  0.21994  1.0000
  C   C21       1.0  0.95822  0.86073  0.78339  1.0000
  C   C22       1.0  0.25843  0.63969  0.78360  1.0000
  C   C23       1.0  0.04177  0.13927  0.21661  1.0000
  C   C24       1.0  0.74159  0.36032  0.21639  1.0000
  C   C25       1.0  0.94088  0.83034  0.70486  1.0000
  C   C26       1.0  0.35413  0.67017  0.70507  1.0000
  C   C27       1.0  0.05911  0.16966  0.29514  1.0000
  C   C28       1.0  0.64587  0.32984  0.29492  1.0000
  C   C29       1.0  0.22607  0.06082  0.70206  1.0000
  C   C30       1.0  0.07186  0.43957  0.70223  1.0000
  C   C31       1.0  0.77392  0.93919  0.29795  1.0000
  C   C32       1.0  0.92815  0.56043  0.29777  1.0000
  C   C33       1.0  0.87373  0.82154  0.86793  1.0000
  C   C34       1.0  0.25837  0.67880  0.86816  1.0000
  C   C35       1.0  0.12626  0.17845  0.13208  1.0000
  C   C36       1.0  0.74164  0.32121  0.13183  1.0000
  C   C37       1.0  0.86052  0.87615  0.94444  1.0000
  C   C38       1.0  0.19494  0.62419  0.94468  1.0000
  C   C39       1.0  0.13949  0.12384  0.05556  1.0000
  C   C40       1.0  0.80508  0.37582  0.05532  1.0000
  C   C41       1.0  0.78779  0.83908  0.02501  1.0000
  C   C42       1.0  0.18708  0.66123  0.02524  1.0000
  C   C43       1.0  0.21222  0.16090  0.97499  1.0000
  C   C44       1.0  0.81293  0.33878  0.97476  1.0000
  C   C45       1.0  0.72340  0.74474  0.03319  1.0000
  C   C46       1.0  0.24347  0.75547  0.03345  1.0000
  C   C47       1.0  0.27661  0.25525  0.96681  1.0000
  C   C48       1.0  0.75654  0.24454  0.96655  1.0000
  C   C49       1.0  0.73280  0.69105  0.95714  1.0000
  C   C50       1.0  0.31037  0.80911  0.95743  1.0000
  C   C51       1.0  0.26721  0.30894  0.04286  1.0000
  C   C52       1.0  0.68962  0.19091  0.04257  1.0000
  C   C53       1.0  0.80603  0.72877  0.87638  1.0000
  C   C54       1.0  0.31789  0.77142  0.87665  1.0000
  C   C55       1.0  0.19397  0.27122  0.12362  1.0000
  C   C56       1.0  0.68210  0.22860  0.12334  1.0000
  C   C57       1.0  0.64973  0.70480  0.11814  1.0000
  C   C58       1.0  0.23226  0.79520  0.11846  1.0000
  C   C59       1.0  0.35027  0.29519  0.88186  1.0000
  C   C60       1.0  0.76774  0.20480  0.88154  1.0000
  C   C61       1.0  0.56046  0.62431  0.14469  1.0000
  C   C62       1.0  0.29492  0.87561  0.14517  1.0000
  C   C63       1.0  0.43953  0.37568  0.85531  1.0000
  C   C64       1.0  0.70508  0.12440  0.85483  1.0000
  C   C65       1.0  0.51633  0.62649  0.23506  1.0000
  C   C66       1.0  0.24858  0.87327  0.23554  1.0000
  C   C67       1.0  0.48366  0.37351  0.76494  1.0000
  C   C68       1.0  0.75142  0.12673  0.76447  1.0000
  N   N1        1.0  0.65582  0.74857  0.19164  1.0000
  N   N2        1.0  0.15263  0.75129  0.19188  1.0000
  N   N3        1.0  0.34418  0.25142  0.80836  1.0000
  N   N4        1.0  0.84737  0.24872  0.80812  1.0000
  N   N5        1.0  0.57460  0.70299  0.26284  1.0000
  N   N6        1.0  0.16254  0.79673  0.26316  1.0000
  N   N7        1.0  0.42540  0.29700  0.73716  1.0000
  N   N8        1.0  0.83745  0.20327  0.73684  1.0000
  O   O1        1.0  0.22367  0.57949  0.40606  1.0000
  O   O2        1.0  0.37080  0.92048  0.40594  1.0000
  O   O3        1.0  0.77634  0.42051  0.59393  1.0000
  O   O4        1.0  0.62919  0.07951  0.59407  1.0000
  O   O5        1.0  0.91415  0.77315  0.54174  1.0000
  O   O6        1.0  0.54461  0.72683  0.54183  1.0000
  O   O7        1.0  0.08585  0.22685  0.45826  1.0000
  O   O8        1.0  0.45540  0.27317  0.45816  1.0000
  O   O9        1.0  0.10506  0.85705  0.47149  1.0000
  O   O10       1.0  0.42388  0.64285  0.47169  1.0000
  O   O11       1.0  0.89493  0.14295  0.52851  1.0000
  O   O12       1.0  0.57614  0.35715  0.52830  1.0000
  O   O13       1.0  0.24193  0.12639  0.63444  1.0000
  O   O14       1.0  0.12368  0.37405  0.63460  1.0000
  O   O15       1.0  0.75806  0.87361  0.36557  1.0000
  O   O16       1.0  0.87633  0.62596  0.36540  1.0000
  O   O17       1.0  0.27862  0.06613  0.76597  1.0000
  O   O18       1.0  0.95541  0.43419  0.76610  1.0000
  O   O19       1.0  0.72135  0.93387  0.23403  1.0000
  O   O20       1.0  0.04461  0.56581  0.23390  1.0000
