data_image0
_chemical_formula_structural       Sn4H76C44S4N4O12
_chemical_formula_sum              "Sn4 H76 C44 S4 N4 O12"
_cell_length_a       8.80774
_cell_length_b       10.5678
_cell_length_c       15.841
_cell_angle_alpha    90
_cell_angle_beta     90
_cell_angle_gamma    90

_space_group_name_H-M_alt    "P 1"
_space_group_IT_number       1

loop_
  _space_group_symop_operation_xyz
  'x, y, z'

loop_
  _atom_site_type_symbol
  _atom_site_label
  _atom_site_symmetry_multiplicity
  _atom_site_fract_x
  _atom_site_fract_y
  _atom_site_fract_z
  _atom_site_occupancy
  Sn  Sn1       1.0  0.97805  0.96855  0.17288  1.0000
  Sn  Sn2       1.0  0.52196  0.03146  0.67288  1.0000
  Sn  Sn3       1.0  0.02195  0.46855  0.32711  1.0000
  Sn  Sn4       1.0  0.47806  0.53145  0.82711  1.0000
  H   H1        1.0  0.77242  0.83990  0.39000  1.0000
  H   H2        1.0  0.72758  0.16010  0.89000  1.0000
  H   H3        1.0  0.22758  0.33990  0.11000  1.0000
  H   H4        1.0  0.27243  0.66010  0.61000  1.0000
  H   H5        1.0  0.52439  0.64935  0.43431  1.0000
  H   H6        1.0  0.97561  0.35065  0.93431  1.0000
  H   H7        1.0  0.47561  0.14935  0.06569  1.0000
  H   H8        1.0  0.02439  0.85065  0.56569  1.0000
  H   H9        1.0  0.61414  0.76199  0.50270  1.0000
  H   H10       1.0  0.88586  0.23801  0.00270  1.0000
  H   H11       1.0  0.38586  0.26199  0.99730  1.0000
  H   H12       1.0  0.11414  0.73802  0.49730  1.0000
  H   H13       1.0  0.33575  0.81816  0.44412  1.0000
  H   H14       1.0  0.16426  0.18184  0.94412  1.0000
  H   H15       1.0  0.66425  0.31816  0.05589  1.0000
  H   H16       1.0  0.83575  0.68184  0.55589  1.0000
  H   H17       1.0  0.47887  0.93654  0.43618  1.0000
  H   H18       1.0  0.02113  0.06346  0.93618  1.0000
  H   H19       1.0  0.52113  0.43654  0.06382  1.0000
  H   H20       1.0  0.97887  0.56346  0.56382  1.0000
  H   H21       1.0  0.37240  0.75019  0.30004  1.0000
  H   H22       1.0  0.12760  0.24981  0.80004  1.0000
  H   H23       1.0  0.62760  0.25019  0.19996  1.0000
  H   H24       1.0  0.87241  0.74981  0.69996  1.0000
  H   H25       1.0  0.39779  0.91768  0.28782  1.0000
  H   H26       1.0  0.10221  0.08232  0.78782  1.0000
  H   H27       1.0  0.60220  0.41768  0.21218  1.0000
  H   H28       1.0  0.89780  0.58232  0.71218  1.0000
  H   H29       1.0  0.47470  0.90655  0.16021  1.0000
  H   H30       1.0  0.02530  0.09345  0.66021  1.0000
  H   H31       1.0  0.52530  0.40655  0.33979  1.0000
  H   H32       1.0  0.97471  0.59345  0.83979  1.0000
  H   H33       1.0  0.58423  0.91277  0.01804  1.0000
  H   H34       1.0  0.91577  0.08723  0.51805  1.0000
  H   H35       1.0  0.41577  0.41277  0.48196  1.0000
  H   H36       1.0  0.08423  0.58723  0.98196  1.0000
  H   H37       1.0  0.74293  0.82267  0.05020  1.0000
  H   H38       1.0  0.75707  0.17733  0.55020  1.0000
  H   H39       1.0  0.25706  0.32267  0.44981  1.0000
  H   H40       1.0  0.24294  0.67733  0.94981  1.0000
  H   H41       1.0  0.42645  0.71940  0.06418  1.0000
  H   H42       1.0  0.07355  0.28060  0.56418  1.0000
  H   H43       1.0  0.57354  0.21940  0.43581  1.0000
  H   H44       1.0  0.92646  0.78060  0.93582  1.0000
  H   H45       1.0  0.42948  0.67031  0.17152  1.0000
  H   H46       1.0  0.07052  0.32969  0.67152  1.0000
  H   H47       1.0  0.57052  0.17031  0.32848  1.0000
  H   H48       1.0  0.92948  0.82969  0.82848  1.0000
  H   H49       1.0  0.58989  0.64271  0.10632  1.0000
  H   H50       1.0  0.91010  0.35729  0.60632  1.0000
  H   H51       1.0  0.41010  0.14271  0.39368  1.0000
  H   H52       1.0  0.08990  0.85729  0.89368  1.0000
  H   H53       1.0  0.87073  0.03407  0.32696  1.0000
  H   H54       1.0  0.62927  0.96593  0.82695  1.0000
  H   H55       1.0  0.12927  0.53407  0.17304  1.0000
  H   H56       1.0  0.37073  0.46593  0.67304  1.0000
  H   H57       1.0  0.06408  0.08793  0.31565  1.0000
  H   H58       1.0  0.43592  0.91207  0.81564  1.0000
  H   H59       1.0  0.93592  0.58793  0.18435  1.0000
  H   H60       1.0  0.56408  0.41207  0.68435  1.0000
  H   H61       1.0  0.02380  0.92341  0.33812  1.0000
  H   H62       1.0  0.47620  0.07659  0.83811  1.0000
  H   H63       1.0  0.97620  0.42341  0.16188  1.0000
  H   H64       1.0  0.52380  0.57659  0.66188  1.0000
  H   H65       1.0  0.17959  0.87456  0.06161  1.0000
  H   H66       1.0  0.32041  0.12545  0.56161  1.0000
  H   H67       1.0  0.82041  0.37456  0.43838  1.0000
  H   H68       1.0  0.67959  0.62544  0.93838  1.0000
  H   H69       1.0  0.03055  0.75996  0.07771  1.0000
  H   H70       1.0  0.46944  0.24004  0.57770  1.0000
  H   H71       1.0  0.96944  0.25997  0.42230  1.0000
  H   H72       1.0  0.53055  0.74003  0.92230  1.0000
  H   H73       1.0  0.17771  0.77829  0.15476  1.0000
  H   H74       1.0  0.32229  0.22171  0.65476  1.0000
  H   H75       1.0  0.82229  0.27829  0.34524  1.0000
  H   H76       1.0  0.67771  0.72171  0.84524  1.0000
  C   C1        1.0  0.77766  0.64599  0.34834  1.0000
  C   C2        1.0  0.72234  0.35401  0.84834  1.0000
  C   C3        1.0  0.22234  0.14599  0.15166  1.0000
  C   C4        1.0  0.27766  0.85401  0.65166  1.0000
  C   C5        1.0  0.69069  0.76680  0.37084  1.0000
  C   C6        1.0  0.80931  0.23320  0.87084  1.0000
  C   C7        1.0  0.30931  0.26680  0.12916  1.0000
  C   C8        1.0  0.19069  0.73320  0.62916  1.0000
  C   C9        1.0  0.56937  0.74608  0.43918  1.0000
  C   C10       1.0  0.93063  0.25392  0.93918  1.0000
  C   C11       1.0  0.43063  0.24607  0.06083  1.0000
  C   C12       1.0  0.06937  0.75392  0.56082  1.0000
  C   C13       1.0  0.44550  0.84119  0.41551  1.0000
  C   C14       1.0  0.05450  0.15882  0.91552  1.0000
  C   C15       1.0  0.55450  0.34118  0.08449  1.0000
  C   C16       1.0  0.94550  0.65882  0.58449  1.0000
  C   C17       1.0  0.44088  0.83260  0.31933  1.0000
  C   C18       1.0  0.05912  0.16741  0.81933  1.0000
  C   C19       1.0  0.55911  0.33259  0.18067  1.0000
  C   C20       1.0  0.94089  0.66741  0.68067  1.0000
  C   C21       1.0  0.66585  0.81860  0.22149  1.0000
  C   C22       1.0  0.83415  0.18140  0.72149  1.0000
  C   C23       1.0  0.33415  0.31859  0.27851  1.0000
  C   C24       1.0  0.16586  0.68141  0.77851  1.0000
  C   C25       1.0  0.56644  0.83982  0.14483  1.0000
  C   C26       1.0  0.93356  0.16018  0.64484  1.0000
  C   C27       1.0  0.43355  0.33982  0.35517  1.0000
  C   C28       1.0  0.06645  0.66018  0.85517  1.0000
  C   C29       1.0  0.65975  0.89312  0.07172  1.0000
  C   C30       1.0  0.84026  0.10688  0.57172  1.0000
  C   C31       1.0  0.34025  0.39312  0.42828  1.0000
  C   C32       1.0  0.15975  0.60688  0.92828  1.0000
  C   C33       1.0  0.49855  0.71030  0.12036  1.0000
  C   C34       1.0  0.00144  0.28970  0.62036  1.0000
  C   C35       1.0  0.50144  0.21030  0.37964  1.0000
  C   C36       1.0  0.99856  0.78970  0.87964  1.0000
  C   C37       1.0  0.98527  0.00923  0.30560  1.0000
  C   C38       1.0  0.51473  0.99077  0.80560  1.0000
  C   C39       1.0  0.01473  0.50923  0.19440  1.0000
  C   C40       1.0  0.48527  0.49077  0.69440  1.0000
  C   C41       1.0  0.10723  0.82732  0.10815  1.0000
  C   C42       1.0  0.39277  0.17268  0.60815  1.0000
  C   C43       1.0  0.89277  0.32732  0.39185  1.0000
  C   C44       1.0  0.60723  0.67267  0.89185  1.0000
  S   S1        1.0  0.75618  0.04234  0.09364  1.0000
  S   S2        1.0  0.74382  0.95766  0.59363  1.0000
  S   S3        1.0  0.24382  0.54234  0.40637  1.0000
  S   S4        1.0  0.25618  0.45765  0.90637  1.0000
  N   N1        1.0  0.60170  0.81108  0.29771  1.0000
  N   N2        1.0  0.89830  0.18892  0.79771  1.0000
  N   N3        1.0  0.39829  0.31108  0.20229  1.0000
  N   N4        1.0  0.10171  0.68892  0.70229  1.0000
  O   O1        1.0  0.91804  0.64240  0.37393  1.0000
  O   O2        1.0  0.58196  0.35760  0.87393  1.0000
  O   O3        1.0  0.08196  0.14239  0.12607  1.0000
  O   O4        1.0  0.41804  0.85760  0.62607  1.0000
  O   O5        1.0  0.71361  0.55742  0.31035  1.0000
  O   O6        1.0  0.78639  0.44258  0.81035  1.0000
  O   O7        1.0  0.28639  0.05742  0.18965  1.0000
  O   O8        1.0  0.21361  0.94258  0.68965  1.0000
  O   O9        1.0  0.80743  0.79902  0.21318  1.0000
  O   O10       1.0  0.69257  0.20098  0.71318  1.0000
  O   O11       1.0  0.19256  0.29902  0.28682  1.0000
  O   O12       1.0  0.30744  0.70098  0.78682  1.0000
