data_image0
_chemical_formula_structural       Zn2H32C24O16F8
_chemical_formula_sum              "Zn2 H32 C24 O16 F8"
_cell_length_a       8.36608
_cell_length_b       8.36607
_cell_length_c       13.3432
_cell_angle_alpha    93.2567
_cell_angle_beta     93.2568
_cell_angle_gamma    115.376

_space_group_name_H-M_alt    "P 1"
_space_group_IT_number       1

loop_
  _space_group_symop_operation_xyz
  'x, y, z'

loop_
  _atom_site_type_symbol
  _atom_site_label
  _atom_site_symmetry_multiplicity
  _atom_site_fract_x
  _atom_site_fract_y
  _atom_site_fract_z
  _atom_site_occupancy
  Zn  Zn1       1.0  0.02663  0.97336  0.75000  1.0000
  Zn  Zn2       1.0  0.97337  0.02663  0.25000  1.0000
  H   H1        1.0  0.34989  0.31805  0.73925  1.0000
  H   H2        1.0  0.68195  0.65010  0.76075  1.0000
  H   H3        1.0  0.65011  0.68195  0.26075  1.0000
  H   H4        1.0  0.31805  0.34990  0.23925  1.0000
  H   H5        1.0  0.47724  0.37670  0.85991  1.0000
  H   H6        1.0  0.62329  0.52275  0.64009  1.0000
  H   H7        1.0  0.52276  0.62330  0.14009  1.0000
  H   H8        1.0  0.37670  0.47724  0.35991  1.0000
  H   H9        1.0  0.30099  0.44004  0.83683  1.0000
  H   H10       1.0  0.55995  0.69900  0.66317  1.0000
  H   H11       1.0  0.69901  0.55996  0.16317  1.0000
  H   H12       1.0  0.44004  0.30099  0.33683  1.0000
  H   H13       1.0  0.90412  0.49478  0.81994  1.0000
  H   H14       1.0  0.50522  0.09588  0.68006  1.0000
  H   H15       1.0  0.09588  0.50522  0.18006  1.0000
  H   H16       1.0  0.49478  0.90412  0.31994  1.0000
  H   H17       1.0  0.14133  0.58778  0.83082  1.0000
  H   H18       1.0  0.41221  0.85867  0.66918  1.0000
  H   H19       1.0  0.85866  0.41221  0.16918  1.0000
  H   H20       1.0  0.58779  0.14134  0.33082  1.0000
  H   H21       1.0  0.02501  0.60173  0.71751  1.0000
  H   H22       1.0  0.39827  0.97499  0.78249  1.0000
  H   H23       1.0  0.97499  0.39827  0.28249  1.0000
  H   H24       1.0  0.60173  0.02501  0.21751  1.0000
  H   H25       1.0  0.14757  0.19160  0.90493  1.0000
  H   H26       1.0  0.80840  0.85242  0.59507  1.0000
  H   H27       1.0  0.85243  0.80840  0.09507  1.0000
  H   H28       1.0  0.19160  0.14757  0.40493  1.0000
  H   H29       1.0  0.02632  0.78161  0.91086  1.0000
  H   H30       1.0  0.21839  0.97368  0.58914  1.0000
  H   H31       1.0  0.97368  0.21838  0.08914  1.0000
  H   H32       1.0  0.78162  0.02632  0.41086  1.0000
  C   C1        1.0  0.92953  0.16171  0.58330  1.0000
  C   C2        1.0  0.83829  0.07048  0.91670  1.0000
  C   C3        1.0  0.07048  0.83830  0.41670  1.0000
  C   C4        1.0  0.16171  0.92953  0.08330  1.0000
  C   C5        1.0  0.96445  0.33552  0.54037  1.0000
  C   C6        1.0  0.66448  0.03556  0.95963  1.0000
  C   C7        1.0  0.03556  0.66448  0.45963  1.0000
  C   C8        1.0  0.33552  0.96445  0.04037  1.0000
  C   C9        1.0  0.13795  0.45999  0.53072  1.0000
  C   C10       1.0  0.54001  0.86206  0.96928  1.0000
  C   C11       1.0  0.86206  0.54001  0.46928  1.0000
  C   C12       1.0  0.45999  0.13795  0.03073  1.0000
  C   C13       1.0  0.17240  0.62033  0.49063  1.0000
  C   C14       1.0  0.37967  0.82761  0.00937  1.0000
  C   C15       1.0  0.82761  0.37967  0.50937  1.0000
  C   C16       1.0  0.62033  0.17239  0.99063  1.0000
  C   C17       1.0  0.34481  0.33582  0.82080  1.0000
  C   C18       1.0  0.66417  0.65519  0.67920  1.0000
  C   C19       1.0  0.65519  0.66418  0.17920  1.0000
  C   C20       1.0  0.33582  0.34481  0.32080  1.0000
  C   C21       1.0  0.02562  0.60471  0.79967  1.0000
  C   C22       1.0  0.39528  0.97438  0.70033  1.0000
  C   C23       1.0  0.97438  0.39528  0.20033  1.0000
  C   C24       1.0  0.60472  0.02562  0.29967  1.0000
  O   O1        1.0  0.01388  0.17499  0.66706  1.0000
  O   O2        1.0  0.82501  0.98612  0.83294  1.0000
  O   O3        1.0  0.98612  0.82500  0.33294  1.0000
  O   O4        1.0  0.17499  0.01388  0.16706  1.0000
  O   O5        1.0  0.82105  0.01897  0.53203  1.0000
  O   O6        1.0  0.98103  0.17895  0.96797  1.0000
  O   O7        1.0  0.17895  0.98103  0.46797  1.0000
  O   O8        1.0  0.01897  0.82105  0.03203  1.0000
  O   O9        1.0  0.22234  0.17017  0.85394  1.0000
  O   O10       1.0  0.82983  0.77766  0.64606  1.0000
  O   O11       1.0  0.77766  0.82983  0.14606  1.0000
  O   O12       1.0  0.17017  0.22234  0.35394  1.0000
  O   O13       1.0  0.03541  0.77331  0.83612  1.0000
  O   O14       1.0  0.22669  0.96459  0.66388  1.0000
  O   O15       1.0  0.96459  0.22669  0.16388  1.0000
  O   O16       1.0  0.77331  0.03541  0.33612  1.0000
  F   F1        1.0  0.27698  0.42483  0.55814  1.0000
  F   F2        1.0  0.57517  0.72303  0.94185  1.0000
  F   F3        1.0  0.72303  0.57517  0.44185  1.0000
  F   F4        1.0  0.42483  0.27698  0.05815  1.0000
  F   F5        1.0  0.34383  0.73340  0.48011  1.0000
  F   F6        1.0  0.26660  0.65618  0.01989  1.0000
  F   F7        1.0  0.65618  0.26660  0.51989  1.0000
  F   F8        1.0  0.73340  0.34382  0.98011  1.0000
