data_image0
_chemical_formula_structural       Pr4P8H48C24N4O44
_chemical_formula_sum              "Pr4 P8 H48 C24 N4 O44"
_cell_length_a       9.09009
_cell_length_b       11.0541
_cell_length_c       15.189
_cell_angle_alpha    93.1078
_cell_angle_beta     90
_cell_angle_gamma    90

_space_group_name_H-M_alt    "P 1"
_space_group_IT_number       1

loop_
  _space_group_symop_operation_xyz
  'x, y, z'

loop_
  _atom_site_type_symbol
  _atom_site_label
  _atom_site_symmetry_multiplicity
  _atom_site_fract_x
  _atom_site_fract_y
  _atom_site_fract_z
  _atom_site_occupancy
  Pr  Pr1       1.0  0.25013  0.40708  0.61353  1.0000
  Pr  Pr2       1.0  0.75013  0.59291  0.88647  1.0000
  Pr  Pr3       1.0  0.74986  0.59291  0.38647  1.0000
  Pr  Pr4       1.0  0.24987  0.40709  0.11353  1.0000
  P   P1        1.0  0.15441  0.64136  0.45135  1.0000
  P   P2        1.0  0.65441  0.35864  0.04865  1.0000
  P   P3        1.0  0.84558  0.35865  0.54865  1.0000
  P   P4        1.0  0.34559  0.64136  0.95135  1.0000
  P   P5        1.0  0.19680  0.05951  0.60200  1.0000
  P   P6        1.0  0.69681  0.94049  0.89799  1.0000
  P   P7        1.0  0.80320  0.94049  0.39800  1.0000
  P   P8        1.0  0.30319  0.05951  0.10201  1.0000
  H   H1        1.0  0.35679  0.04607  0.70640  1.0000
  H   H2        1.0  0.85679  0.95393  0.79360  1.0000
  H   H3        1.0  0.64321  0.95393  0.29360  1.0000
  H   H4        1.0  0.14321  0.04606  0.20640  1.0000
  H   H5        1.0  0.47660  0.36968  0.44758  1.0000
  H   H6        1.0  0.97659  0.63032  0.05242  1.0000
  H   H7        1.0  0.52340  0.63032  0.55242  1.0000
  H   H8        1.0  0.02341  0.36969  0.94758  1.0000
  H   H9        1.0  0.55679  0.39644  0.53471  1.0000
  H   H10       1.0  0.05679  0.60357  0.96529  1.0000
  H   H11       1.0  0.44321  0.60356  0.46529  1.0000
  H   H12       1.0  0.94321  0.39644  0.03471  1.0000
  H   H13       1.0  0.09929  0.91548  0.43593  1.0000
  H   H14       1.0  0.59929  0.08452  0.06407  1.0000
  H   H15       1.0  0.90071  0.08453  0.56407  1.0000
  H   H16       1.0  0.40071  0.91548  0.93593  1.0000
  H   H17       1.0  0.13659  0.80262  0.56516  1.0000
  H   H18       1.0  0.63660  0.19738  0.93484  1.0000
  H   H19       1.0  0.86340  0.19739  0.43484  1.0000
  H   H20       1.0  0.36340  0.80262  0.06516  1.0000
  H   H21       1.0  0.32422  0.77336  0.53414  1.0000
  H   H22       1.0  0.82423  0.22664  0.96587  1.0000
  H   H23       1.0  0.67577  0.22664  0.46586  1.0000
  H   H24       1.0  0.17578  0.77336  0.03414  1.0000
  H   H25       1.0  0.26820  0.07397  0.45221  1.0000
  H   H26       1.0  0.76820  0.92603  0.04779  1.0000
  H   H27       1.0  0.73181  0.92603  0.54779  1.0000
  H   H28       1.0  0.23181  0.07397  0.95221  1.0000
  H   H29       1.0  0.39487  0.98111  0.50770  1.0000
  H   H30       1.0  0.89487  0.01888  0.99230  1.0000
  H   H31       1.0  0.60513  0.01889  0.49230  1.0000
  H   H32       1.0  0.10513  0.98111  0.00770  1.0000
  H   H33       1.0  0.28547  0.94624  0.32949  1.0000
  H   H34       1.0  0.78546  0.05376  0.17051  1.0000
  H   H35       1.0  0.71454  0.05376  0.67051  1.0000
  H   H36       1.0  0.21454  0.94624  0.82949  1.0000
  H   H37       1.0  0.40134  0.83759  0.37991  1.0000
  H   H38       1.0  0.90135  0.16240  0.12009  1.0000
  H   H39       1.0  0.59866  0.16241  0.62009  1.0000
  H   H40       1.0  0.09866  0.83759  0.87991  1.0000
  H   H41       1.0  0.09398  0.78225  0.30118  1.0000
  H   H42       1.0  0.59398  0.21775  0.19882  1.0000
  H   H43       1.0  0.90602  0.21775  0.69882  1.0000
  H   H44       1.0  0.40602  0.78225  0.80118  1.0000
  H   H45       1.0  0.26568  0.74925  0.24779  1.0000
  H   H46       1.0  0.76569  0.25076  0.25222  1.0000
  H   H47       1.0  0.73432  0.25076  0.75222  1.0000
  H   H48       1.0  0.23431  0.74924  0.74779  1.0000
  C   C1        1.0  0.21169  0.78381  0.50955  1.0000
  C   C2        1.0  0.71170  0.21619  0.99045  1.0000
  C   C3        1.0  0.78830  0.21620  0.49045  1.0000
  C   C4        1.0  0.28830  0.78381  0.00955  1.0000
  C   C5        1.0  0.27785  0.00002  0.49734  1.0000
  C   C6        1.0  0.77786  0.99997  0.00266  1.0000
  C   C7        1.0  0.72215  0.99998  0.50266  1.0000
  C   C8        1.0  0.22215  0.00003  0.99734  1.0000
  C   C9        1.0  0.28715  0.86313  0.36570  1.0000
  C   C10       1.0  0.78715  0.13687  0.13430  1.0000
  C   C11       1.0  0.71285  0.13687  0.63430  1.0000
  C   C12       1.0  0.21285  0.86313  0.86570  1.0000
  C   C13       1.0  0.21102  0.76256  0.31189  1.0000
  C   C14       1.0  0.71102  0.23744  0.18811  1.0000
  C   C15       1.0  0.78898  0.23744  0.68811  1.0000
  C   C16       1.0  0.28898  0.76256  0.81189  1.0000
  C   C17       1.0  0.53146  0.55291  0.71407  1.0000
  C   C18       1.0  0.03148  0.44709  0.78594  1.0000
  C   C19       1.0  0.46853  0.44708  0.28594  1.0000
  C   C20       1.0  0.96853  0.55292  0.21406  1.0000
  C   C21       1.0  0.52539  0.42830  0.75770  1.0000
  C   C22       1.0  0.02540  0.57169  0.74230  1.0000
  C   C23       1.0  0.47461  0.57169  0.24230  1.0000
  C   C24       1.0  0.97460  0.42832  0.25770  1.0000
  N   N1        1.0  0.21024  0.89045  0.45243  1.0000
  N   N2        1.0  0.71024  0.10955  0.04757  1.0000
  N   N3        1.0  0.78976  0.10955  0.54757  1.0000
  N   N4        1.0  0.28976  0.89045  0.95243  1.0000
  O   O1        1.0  0.23770  0.53905  0.49033  1.0000
  O   O2        1.0  0.73770  0.46094  0.00967  1.0000
  O   O3        1.0  0.76230  0.46095  0.50967  1.0000
  O   O4        1.0  0.26230  0.53906  0.99033  1.0000
  O   O5        1.0  0.22679  0.64943  0.35460  1.0000
  O   O6        1.0  0.72679  0.35057  0.14540  1.0000
  O   O7        1.0  0.77321  0.35057  0.64540  1.0000
  O   O8        1.0  0.27321  0.64943  0.85460  1.0000
  O   O9        1.0  0.98968  0.64096  0.44718  1.0000
  O   O10       1.0  0.48968  0.35903  0.05282  1.0000
  O   O11       1.0  0.01032  0.35903  0.55281  1.0000
  O   O12       1.0  0.51032  0.64097  0.94719  1.0000
  O   O13       1.0  0.03783  0.02264  0.60616  1.0000
  O   O14       1.0  0.53783  0.97736  0.89385  1.0000
  O   O15       1.0  0.96217  0.97736  0.39384  1.0000
  O   O16       1.0  0.46217  0.02264  0.10616  1.0000
  O   O17       1.0  0.24466  0.18970  0.60623  1.0000
  O   O18       1.0  0.74467  0.81030  0.89377  1.0000
  O   O19       1.0  0.75533  0.81030  0.39378  1.0000
  O   O20       1.0  0.25533  0.18970  0.10623  1.0000
  O   O21       1.0  0.28362  0.99146  0.67885  1.0000
  O   O22       1.0  0.78362  0.00854  0.82115  1.0000
  O   O23       1.0  0.71639  0.00854  0.32115  1.0000
  O   O24       1.0  0.21639  0.99146  0.17885  1.0000
  O   O25       1.0  0.45078  0.56361  0.64600  1.0000
  O   O26       1.0  0.95080  0.43640  0.85400  1.0000
  O   O27       1.0  0.54921  0.43639  0.35400  1.0000
  O   O28       1.0  0.04922  0.56362  0.14600  1.0000
  O   O29       1.0  0.61532  0.63322  0.74773  1.0000
  O   O30       1.0  0.11535  0.36679  0.75228  1.0000
  O   O31       1.0  0.38466  0.36678  0.25227  1.0000
  O   O32       1.0  0.88466  0.63322  0.24772  1.0000
  O   O33       1.0  0.43999  0.34883  0.72322  1.0000
  O   O34       1.0  0.93999  0.65116  0.77677  1.0000
  O   O35       1.0  0.56001  0.65116  0.27678  1.0000
  O   O36       1.0  0.06001  0.34884  0.22322  1.0000
  O   O37       1.0  0.60943  0.41627  0.82329  1.0000
  O   O38       1.0  0.10943  0.58373  0.67670  1.0000
  O   O39       1.0  0.39056  0.58373  0.17671  1.0000
  O   O40       1.0  0.89056  0.41628  0.32329  1.0000
  O   O41       1.0  0.47075  0.35132  0.51110  1.0000
  O   O42       1.0  0.97075  0.64868  0.98890  1.0000
  O   O43       1.0  0.52925  0.64868  0.48890  1.0000
  O   O44       1.0  0.02925  0.35132  0.01110  1.0000
