data_image0
_chemical_formula_structural       Nd4P8H48C24N4O44
_chemical_formula_sum              "Nd4 P8 H48 C24 N4 O44"
_cell_length_a       8.99931
_cell_length_b       11.0149
_cell_length_c       15.2172
_cell_angle_alpha    93.03
_cell_angle_beta     90
_cell_angle_gamma    90

_space_group_name_H-M_alt    "P 1"
_space_group_IT_number       1

loop_
  _space_group_symop_operation_xyz
  'x, y, z'

loop_
  _atom_site_type_symbol
  _atom_site_label
  _atom_site_symmetry_multiplicity
  _atom_site_fract_x
  _atom_site_fract_y
  _atom_site_fract_z
  _atom_site_occupancy
  Nd  Nd1       1.0  0.25252  0.40780  0.61408  1.0000
  Nd  Nd2       1.0  0.75252  0.59220  0.88591  1.0000
  Nd  Nd3       1.0  0.74748  0.59220  0.38591  1.0000
  Nd  Nd4       1.0  0.24749  0.40780  0.11408  1.0000
  P   P1        1.0  0.15268  0.64093  0.45258  1.0000
  P   P2        1.0  0.65268  0.35907  0.04742  1.0000
  P   P3        1.0  0.84732  0.35907  0.54742  1.0000
  P   P4        1.0  0.34732  0.64093  0.95258  1.0000
  P   P5        1.0  0.19920  0.06062  0.60314  1.0000
  P   P6        1.0  0.69920  0.93938  0.89686  1.0000
  P   P7        1.0  0.80080  0.93938  0.39686  1.0000
  P   P8        1.0  0.30080  0.06062  0.10314  1.0000
  H   H1        1.0  0.35801  0.04850  0.70921  1.0000
  H   H2        1.0  0.85801  0.95150  0.79079  1.0000
  H   H3        1.0  0.64199  0.95150  0.29080  1.0000
  H   H4        1.0  0.14199  0.04850  0.20921  1.0000
  H   H5        1.0  0.47150  0.36910  0.44707  1.0000
  H   H6        1.0  0.97151  0.63090  0.05292  1.0000
  H   H7        1.0  0.52849  0.63091  0.55292  1.0000
  H   H8        1.0  0.02850  0.36910  0.94707  1.0000
  H   H9        1.0  0.55883  0.39685  0.53144  1.0000
  H   H10       1.0  0.05882  0.60315  0.96855  1.0000
  H   H11       1.0  0.44118  0.60315  0.46854  1.0000
  H   H12       1.0  0.94117  0.39685  0.03145  1.0000
  H   H13       1.0  0.10065  0.91760  0.43759  1.0000
  H   H14       1.0  0.60065  0.08240  0.06242  1.0000
  H   H15       1.0  0.89935  0.08240  0.56242  1.0000
  H   H16       1.0  0.39934  0.91760  0.93759  1.0000
  H   H17       1.0  0.13401  0.80314  0.56608  1.0000
  H   H18       1.0  0.63401  0.19686  0.93392  1.0000
  H   H19       1.0  0.86599  0.19686  0.43392  1.0000
  H   H20       1.0  0.36599  0.80314  0.06608  1.0000
  H   H21       1.0  0.32350  0.77186  0.53608  1.0000
  H   H22       1.0  0.82350  0.22813  0.96393  1.0000
  H   H23       1.0  0.67649  0.22813  0.46393  1.0000
  H   H24       1.0  0.17650  0.77186  0.03607  1.0000
  H   H25       1.0  0.28111  0.07329  0.45466  1.0000
  H   H26       1.0  0.78111  0.92670  0.04535  1.0000
  H   H27       1.0  0.71889  0.92670  0.54535  1.0000
  H   H28       1.0  0.21888  0.07329  0.95466  1.0000
  H   H29       1.0  0.39983  0.97500  0.51243  1.0000
  H   H30       1.0  0.89983  0.02499  0.98757  1.0000
  H   H31       1.0  0.60017  0.02499  0.48757  1.0000
  H   H32       1.0  0.10017  0.97500  0.01243  1.0000
  H   H33       1.0  0.29106  0.94649  0.33187  1.0000
  H   H34       1.0  0.79106  0.05351  0.16814  1.0000
  H   H35       1.0  0.70894  0.05351  0.66814  1.0000
  H   H36       1.0  0.20894  0.94649  0.83186  1.0000
  H   H37       1.0  0.40458  0.83512  0.38238  1.0000
  H   H38       1.0  0.90458  0.16487  0.11762  1.0000
  H   H39       1.0  0.59543  0.16488  0.61762  1.0000
  H   H40       1.0  0.09542  0.83512  0.88238  1.0000
  H   H41       1.0  0.09310  0.78483  0.30347  1.0000
  H   H42       1.0  0.59311  0.21517  0.19653  1.0000
  H   H43       1.0  0.90690  0.21517  0.69653  1.0000
  H   H44       1.0  0.40689  0.78483  0.80347  1.0000
  H   H45       1.0  0.26557  0.75011  0.24964  1.0000
  H   H46       1.0  0.76558  0.24990  0.25036  1.0000
  H   H47       1.0  0.73442  0.24989  0.75036  1.0000
  H   H48       1.0  0.23442  0.75011  0.74964  1.0000
  C   C1        1.0  0.21041  0.78364  0.51094  1.0000
  C   C2        1.0  0.71041  0.21636  0.98906  1.0000
  C   C3        1.0  0.78959  0.21636  0.48906  1.0000
  C   C4        1.0  0.28959  0.78364  0.01094  1.0000
  C   C5        1.0  0.28370  0.99883  0.49987  1.0000
  C   C6        1.0  0.78370  0.00117  0.00013  1.0000
  C   C7        1.0  0.71630  0.00117  0.50013  1.0000
  C   C8        1.0  0.21630  0.99883  0.99987  1.0000
  C   C9        1.0  0.29008  0.86278  0.36779  1.0000
  C   C10       1.0  0.79008  0.13722  0.13222  1.0000
  C   C11       1.0  0.70992  0.13721  0.63222  1.0000
  C   C12       1.0  0.20991  0.86278  0.86779  1.0000
  C   C13       1.0  0.21101  0.76345  0.31377  1.0000
  C   C14       1.0  0.71102  0.23656  0.18623  1.0000
  C   C15       1.0  0.78898  0.23655  0.68623  1.0000
  C   C16       1.0  0.28898  0.76345  0.81377  1.0000
  C   C17       1.0  0.53353  0.55343  0.71497  1.0000
  C   C18       1.0  0.03354  0.44658  0.78504  1.0000
  C   C19       1.0  0.46646  0.44658  0.28504  1.0000
  C   C20       1.0  0.96648  0.55342  0.21497  1.0000
  C   C21       1.0  0.52766  0.42835  0.75807  1.0000
  C   C22       1.0  0.02766  0.57166  0.74193  1.0000
  C   C23       1.0  0.47233  0.57166  0.24193  1.0000
  C   C24       1.0  0.97234  0.42835  0.25807  1.0000
  N   N1        1.0  0.21214  0.89105  0.45417  1.0000
  N   N2        1.0  0.71214  0.10895  0.04583  1.0000
  N   N3        1.0  0.78786  0.10895  0.54583  1.0000
  N   N4        1.0  0.28786  0.89105  0.95417  1.0000
  O   O1        1.0  0.23848  0.53899  0.49156  1.0000
  O   O2        1.0  0.73848  0.46100  0.00844  1.0000
  O   O3        1.0  0.76152  0.46100  0.50844  1.0000
  O   O4        1.0  0.26152  0.53899  0.99155  1.0000
  O   O5        1.0  0.22515  0.64928  0.35588  1.0000
  O   O6        1.0  0.72516  0.35072  0.14412  1.0000
  O   O7        1.0  0.77485  0.35072  0.64412  1.0000
  O   O8        1.0  0.27484  0.64928  0.85588  1.0000
  O   O9        1.0  0.98630  0.63941  0.44851  1.0000
  O   O10       1.0  0.48630  0.36060  0.05150  1.0000
  O   O11       1.0  0.01370  0.36059  0.55149  1.0000
  O   O12       1.0  0.51370  0.63940  0.94851  1.0000
  O   O13       1.0  0.03866  0.02305  0.60624  1.0000
  O   O14       1.0  0.53866  0.97696  0.89377  1.0000
  O   O15       1.0  0.96134  0.97696  0.39376  1.0000
  O   O16       1.0  0.46134  0.02305  0.10623  1.0000
  O   O17       1.0  0.24738  0.19132  0.60652  1.0000
  O   O18       1.0  0.74738  0.80868  0.89348  1.0000
  O   O19       1.0  0.75262  0.80868  0.39348  1.0000
  O   O20       1.0  0.25262  0.19132  0.10651  1.0000
  O   O21       1.0  0.28490  0.99345  0.68115  1.0000
  O   O22       1.0  0.78490  0.00655  0.81886  1.0000
  O   O23       1.0  0.71510  0.00655  0.31886  1.0000
  O   O24       1.0  0.21510  0.99345  0.18115  1.0000
  O   O25       1.0  0.45304  0.56404  0.64665  1.0000
  O   O26       1.0  0.95304  0.43595  0.85335  1.0000
  O   O27       1.0  0.54696  0.43596  0.35335  1.0000
  O   O28       1.0  0.04696  0.56404  0.14665  1.0000
  O   O29       1.0  0.61672  0.63437  0.74945  1.0000
  O   O30       1.0  0.11673  0.36564  0.75055  1.0000
  O   O31       1.0  0.38327  0.36564  0.25055  1.0000
  O   O32       1.0  0.88328  0.63436  0.24945  1.0000
  O   O33       1.0  0.44160  0.34871  0.72347  1.0000
  O   O34       1.0  0.94158  0.65128  0.77652  1.0000
  O   O35       1.0  0.55842  0.65129  0.27652  1.0000
  O   O36       1.0  0.05841  0.34871  0.22347  1.0000
  O   O37       1.0  0.61243  0.41599  0.82357  1.0000
  O   O38       1.0  0.11241  0.58402  0.67642  1.0000
  O   O39       1.0  0.38758  0.58402  0.17643  1.0000
  O   O40       1.0  0.88758  0.41598  0.32357  1.0000
  O   O41       1.0  0.46993  0.35156  0.51065  1.0000
  O   O42       1.0  0.96993  0.64844  0.98934  1.0000
  O   O43       1.0  0.53007  0.64844  0.48934  1.0000
  O   O44       1.0  0.03007  0.35156  0.01065  1.0000
