data_image0
_chemical_formula_structural       Tb4P8H48C24N4O44
_chemical_formula_sum              "Tb4 P8 H48 C24 N4 O44"
_cell_length_a       8.8455
_cell_length_b       10.8538
_cell_length_c       15.25
_cell_angle_alpha    92.9021
_cell_angle_beta     90
_cell_angle_gamma    90

_space_group_name_H-M_alt    "P 1"
_space_group_IT_number       1

loop_
  _space_group_symop_operation_xyz
  'x, y, z'

loop_
  _atom_site_type_symbol
  _atom_site_label
  _atom_site_symmetry_multiplicity
  _atom_site_fract_x
  _atom_site_fract_y
  _atom_site_fract_z
  _atom_site_occupancy
  Tb  Tb1       1.0  0.24170  0.40713  0.61939  1.0000
  Tb  Tb2       1.0  0.74170  0.59288  0.88062  1.0000
  Tb  Tb3       1.0  0.75830  0.59288  0.38061  1.0000
  Tb  Tb4       1.0  0.25830  0.40711  0.11938  1.0000
  P   P1        1.0  0.15630  0.63663  0.45785  1.0000
  P   P2        1.0  0.65631  0.36338  0.04216  1.0000
  P   P3        1.0  0.84369  0.36338  0.54215  1.0000
  P   P4        1.0  0.34369  0.63662  0.95784  1.0000
  P   P5        1.0  0.18900  0.06350  0.61182  1.0000
  P   P6        1.0  0.68900  0.93651  0.88819  1.0000
  P   P7        1.0  0.81100  0.93651  0.38818  1.0000
  P   P8        1.0  0.31101  0.06348  0.11181  1.0000
  H   H1        1.0  0.33651  0.05689  0.72493  1.0000
  H   H2        1.0  0.83650  0.94310  0.77507  1.0000
  H   H3        1.0  0.66349  0.94311  0.27507  1.0000
  H   H4        1.0  0.16350  0.05689  0.22493  1.0000
  H   H5        1.0  0.47019  0.37580  0.45930  1.0000
  H   H6        1.0  0.97020  0.62420  0.04070  1.0000
  H   H7        1.0  0.52981  0.62420  0.54070  1.0000
  H   H8        1.0  0.02980  0.37580  0.95930  1.0000
  H   H9        1.0  0.54436  0.37909  0.55131  1.0000
  H   H10       1.0  0.04435  0.62091  0.94869  1.0000
  H   H11       1.0  0.45564  0.62091  0.44869  1.0000
  H   H12       1.0  0.95564  0.37909  0.05131  1.0000
  H   H13       1.0  0.10966  0.91757  0.44578  1.0000
  H   H14       1.0  0.60965  0.08243  0.05422  1.0000
  H   H15       1.0  0.89035  0.08244  0.55422  1.0000
  H   H16       1.0  0.39035  0.91757  0.94578  1.0000
  H   H17       1.0  0.12629  0.79784  0.57246  1.0000
  H   H18       1.0  0.62629  0.20216  0.92754  1.0000
  H   H19       1.0  0.87371  0.20216  0.42754  1.0000
  H   H20       1.0  0.37372  0.79784  0.07246  1.0000
  H   H21       1.0  0.32133  0.76467  0.55105  1.0000
  H   H22       1.0  0.82133  0.23533  0.94895  1.0000
  H   H23       1.0  0.67867  0.23533  0.44895  1.0000
  H   H24       1.0  0.17867  0.76467  0.05105  1.0000
  H   H25       1.0  0.30233  0.07138  0.47063  1.0000
  H   H26       1.0  0.80232  0.92863  0.02936  1.0000
  H   H27       1.0  0.69768  0.92862  0.52936  1.0000
  H   H28       1.0  0.19768  0.07137  0.97064  1.0000
  H   H29       1.0  0.40472  0.96751  0.53582  1.0000
  H   H30       1.0  0.90471  0.03249  0.96417  1.0000
  H   H31       1.0  0.59529  0.03249  0.46418  1.0000
  H   H32       1.0  0.09530  0.96751  0.03582  1.0000
  H   H33       1.0  0.30742  0.95049  0.34667  1.0000
  H   H34       1.0  0.80742  0.04951  0.15333  1.0000
  H   H35       1.0  0.69259  0.04951  0.65333  1.0000
  H   H36       1.0  0.19258  0.95049  0.84667  1.0000
  H   H37       1.0  0.42390  0.83975  0.39892  1.0000
  H   H38       1.0  0.92390  0.16024  0.10108  1.0000
  H   H39       1.0  0.57610  0.16024  0.60108  1.0000
  H   H40       1.0  0.07610  0.83975  0.89892  1.0000
  H   H41       1.0  0.11591  0.78109  0.31131  1.0000
  H   H42       1.0  0.61591  0.21890  0.18869  1.0000
  H   H43       1.0  0.88409  0.21891  0.68869  1.0000
  H   H44       1.0  0.38409  0.78109  0.81131  1.0000
  H   H45       1.0  0.29652  0.75208  0.26229  1.0000
  H   H46       1.0  0.79652  0.24792  0.23771  1.0000
  H   H47       1.0  0.70348  0.24792  0.73771  1.0000
  H   H48       1.0  0.20348  0.75208  0.76229  1.0000
  C   C1        1.0  0.21052  0.77855  0.52078  1.0000
  C   C2        1.0  0.71052  0.22146  0.97922  1.0000
  C   C3        1.0  0.78948  0.22145  0.47921  1.0000
  C   C4        1.0  0.28948  0.77855  0.02078  1.0000
  C   C5        1.0  0.29147  0.99610  0.51571  1.0000
  C   C6        1.0  0.79146  0.00391  0.98429  1.0000
  C   C7        1.0  0.70854  0.00390  0.48429  1.0000
  C   C8        1.0  0.20854  0.99609  0.01571  1.0000
  C   C9        1.0  0.30753  0.86465  0.38161  1.0000
  C   C10       1.0  0.80753  0.13535  0.11839  1.0000
  C   C11       1.0  0.69247  0.13535  0.61839  1.0000
  C   C12       1.0  0.19247  0.86465  0.88161  1.0000
  C   C13       1.0  0.23574  0.76288  0.32477  1.0000
  C   C14       1.0  0.73574  0.23711  0.17523  1.0000
  C   C15       1.0  0.76426  0.23712  0.67523  1.0000
  C   C16       1.0  0.26426  0.76288  0.82477  1.0000
  C   C17       1.0  0.52293  0.55673  0.71263  1.0000
  C   C18       1.0  0.02294  0.44327  0.78738  1.0000
  C   C19       1.0  0.47705  0.44327  0.28737  1.0000
  C   C20       1.0  0.97706  0.55673  0.21263  1.0000
  C   C21       1.0  0.51668  0.43141  0.75740  1.0000
  C   C22       1.0  0.01666  0.56860  0.74261  1.0000
  C   C23       1.0  0.48332  0.56859  0.24260  1.0000
  C   C24       1.0  0.98333  0.43140  0.25740  1.0000
  N   N1        1.0  0.22074  0.88948  0.46579  1.0000
  N   N2        1.0  0.72073  0.11052  0.03421  1.0000
  N   N3        1.0  0.77927  0.11052  0.53421  1.0000
  N   N4        1.0  0.27927  0.88948  0.96579  1.0000
  O   O1        1.0  0.22753  0.52851  0.49943  1.0000
  O   O2        1.0  0.72753  0.47149  0.00057  1.0000
  O   O3        1.0  0.77247  0.47149  0.50057  1.0000
  O   O4        1.0  0.27247  0.52851  0.99943  1.0000
  O   O5        1.0  0.25095  0.64679  0.36719  1.0000
  O   O6        1.0  0.75095  0.35320  0.13282  1.0000
  O   O7        1.0  0.74905  0.35321  0.63281  1.0000
  O   O8        1.0  0.24905  0.64679  0.86718  1.0000
  O   O9        1.0  0.98993  0.64289  0.44076  1.0000
  O   O10       1.0  0.48993  0.35711  0.05924  1.0000
  O   O11       1.0  0.01007  0.35711  0.55924  1.0000
  O   O12       1.0  0.51007  0.64289  0.94076  1.0000
  O   O13       1.0  0.02601  0.02414  0.60672  1.0000
  O   O14       1.0  0.52600  0.97587  0.89327  1.0000
  O   O15       1.0  0.97399  0.97586  0.39327  1.0000
  O   O16       1.0  0.47400  0.02413  0.10673  1.0000
  O   O17       1.0  0.23784  0.19599  0.61326  1.0000
  O   O18       1.0  0.73783  0.80402  0.88674  1.0000
  O   O19       1.0  0.76217  0.80402  0.38674  1.0000
  O   O20       1.0  0.26217  0.19598  0.11326  1.0000
  O   O21       1.0  0.26279  0.00097  0.69638  1.0000
  O   O22       1.0  0.76278  0.99903  0.80361  1.0000
  O   O23       1.0  0.73721  0.99903  0.30361  1.0000
  O   O24       1.0  0.23722  0.00097  0.19639  1.0000
  O   O25       1.0  0.44304  0.56449  0.64325  1.0000
  O   O26       1.0  0.94303  0.43552  0.85675  1.0000
  O   O27       1.0  0.55696  0.43552  0.35675  1.0000
  O   O28       1.0  0.05697  0.56448  0.14325  1.0000
  O   O29       1.0  0.60663  0.63907  0.74753  1.0000
  O   O30       1.0  0.10662  0.36093  0.75247  1.0000
  O   O31       1.0  0.39336  0.36093  0.25247  1.0000
  O   O32       1.0  0.89338  0.63907  0.24753  1.0000
  O   O33       1.0  0.42750  0.35043  0.72470  1.0000
  O   O34       1.0  0.92752  0.64958  0.77532  1.0000
  O   O35       1.0  0.57250  0.64957  0.27530  1.0000
  O   O36       1.0  0.07248  0.35042  0.22469  1.0000
  O   O37       1.0  0.60518  0.41930  0.82185  1.0000
  O   O38       1.0  0.10519  0.58070  0.67814  1.0000
  O   O39       1.0  0.39481  0.58070  0.17815  1.0000
  O   O40       1.0  0.89481  0.41930  0.32186  1.0000
  O   O41       1.0  0.45685  0.34500  0.51900  1.0000
  O   O42       1.0  0.95685  0.65501  0.98101  1.0000
  O   O43       1.0  0.54315  0.65501  0.48100  1.0000
  O   O44       1.0  0.04315  0.34499  0.01899  1.0000
