data_image0
_chemical_formula_structural       Sm4P8H48C24N4O44
_chemical_formula_sum              "Sm4 P8 H48 C24 N4 O44"
_cell_length_a       8.97308
_cell_length_b       10.9303
_cell_length_c       15.2352
_cell_angle_alpha    93.0202
_cell_angle_beta     90
_cell_angle_gamma    90

_space_group_name_H-M_alt    "P 1"
_space_group_IT_number       1

loop_
  _space_group_symop_operation_xyz
  'x, y, z'

loop_
  _atom_site_type_symbol
  _atom_site_label
  _atom_site_symmetry_multiplicity
  _atom_site_fract_x
  _atom_site_fract_y
  _atom_site_fract_z
  _atom_site_occupancy
  Sm  Sm1       1.0  0.24875  0.40372  0.61752  1.0000
  Sm  Sm2       1.0  0.74875  0.59628  0.88248  1.0000
  Sm  Sm3       1.0  0.75125  0.59628  0.38248  1.0000
  Sm  Sm4       1.0  0.25125  0.40372  0.11752  1.0000
  P   P1        1.0  0.15257  0.63695  0.45529  1.0000
  P   P2        1.0  0.65256  0.36305  0.04471  1.0000
  P   P3        1.0  0.84744  0.36305  0.54471  1.0000
  P   P4        1.0  0.34743  0.63695  0.95529  1.0000
  P   P5        1.0  0.19331  0.06060  0.60428  1.0000
  P   P6        1.0  0.69331  0.93940  0.89572  1.0000
  P   P7        1.0  0.80669  0.93940  0.39572  1.0000
  P   P8        1.0  0.30669  0.06060  0.10428  1.0000
  H   H1        1.0  0.18567  0.92423  0.69959  1.0000
  H   H2        1.0  0.68567  0.07577  0.80041  1.0000
  H   H3        1.0  0.81433  0.07577  0.30041  1.0000
  H   H4        1.0  0.31432  0.92423  0.19959  1.0000
  H   H5        1.0  0.47452  0.37269  0.45279  1.0000
  H   H6        1.0  0.97452  0.62731  0.04721  1.0000
  H   H7        1.0  0.52548  0.62731  0.54721  1.0000
  H   H8        1.0  0.02548  0.37269  0.95279  1.0000
  H   H9        1.0  0.55194  0.39618  0.54200  1.0000
  H   H10       1.0  0.05194  0.60382  0.95800  1.0000
  H   H11       1.0  0.44806  0.60382  0.45800  1.0000
  H   H12       1.0  0.94806  0.39618  0.04200  1.0000
  H   H13       1.0  0.10627  0.91338  0.44135  1.0000
  H   H14       1.0  0.60627  0.08662  0.05865  1.0000
  H   H15       1.0  0.89373  0.08662  0.55865  1.0000
  H   H16       1.0  0.39373  0.91338  0.94135  1.0000
  H   H17       1.0  0.12967  0.79832  0.56802  1.0000
  H   H18       1.0  0.62967  0.20168  0.93198  1.0000
  H   H19       1.0  0.87033  0.20168  0.43198  1.0000
  H   H20       1.0  0.37033  0.79832  0.06802  1.0000
  H   H21       1.0  0.32203  0.76490  0.54472  1.0000
  H   H22       1.0  0.82202  0.23510  0.95528  1.0000
  H   H23       1.0  0.67798  0.23510  0.45528  1.0000
  H   H24       1.0  0.17798  0.76490  0.04472  1.0000
  H   H25       1.0  0.29150  0.06915  0.45912  1.0000
  H   H26       1.0  0.79150  0.93085  0.04088  1.0000
  H   H27       1.0  0.70850  0.93085  0.54088  1.0000
  H   H28       1.0  0.20850  0.06915  0.95912  1.0000
  H   H29       1.0  0.40257  0.97187  0.52354  1.0000
  H   H30       1.0  0.90256  0.02813  0.97646  1.0000
  H   H31       1.0  0.59744  0.02813  0.47646  1.0000
  H   H32       1.0  0.09744  0.97187  0.02354  1.0000
  H   H33       1.0  0.29694  0.94584  0.33975  1.0000
  H   H34       1.0  0.79694  0.05416  0.16025  1.0000
  H   H35       1.0  0.70306  0.05416  0.66025  1.0000
  H   H36       1.0  0.20305  0.94584  0.83975  1.0000
  H   H37       1.0  0.41515  0.83475  0.38833  1.0000
  H   H38       1.0  0.91515  0.16525  0.11167  1.0000
  H   H39       1.0  0.58485  0.16525  0.61167  1.0000
  H   H40       1.0  0.08484  0.83475  0.88833  1.0000
  H   H41       1.0  0.10434  0.77996  0.30787  1.0000
  H   H42       1.0  0.60434  0.22004  0.19213  1.0000
  H   H43       1.0  0.89567  0.22004  0.69213  1.0000
  H   H44       1.0  0.39566  0.77996  0.80787  1.0000
  H   H45       1.0  0.27864  0.74433  0.25553  1.0000
  H   H46       1.0  0.77864  0.25567  0.24446  1.0000
  H   H47       1.0  0.72136  0.25567  0.74447  1.0000
  H   H48       1.0  0.22136  0.74433  0.75554  1.0000
  C   C1        1.0  0.21175  0.77853  0.51585  1.0000
  C   C2        1.0  0.71175  0.22147  0.98415  1.0000
  C   C3        1.0  0.78825  0.22147  0.48415  1.0000
  C   C4        1.0  0.28825  0.77853  0.01585  1.0000
  C   C5        1.0  0.28817  0.99592  0.50574  1.0000
  C   C6        1.0  0.78817  0.00408  0.99427  1.0000
  C   C7        1.0  0.71183  0.00408  0.49426  1.0000
  C   C8        1.0  0.21183  0.99592  0.00573  1.0000
  C   C9        1.0  0.29932  0.85998  0.37403  1.0000
  C   C10       1.0  0.79931  0.14002  0.12597  1.0000
  C   C11       1.0  0.70069  0.14002  0.62597  1.0000
  C   C12       1.0  0.20068  0.85998  0.87403  1.0000
  C   C13       1.0  0.22252  0.75915  0.31924  1.0000
  C   C14       1.0  0.72252  0.24085  0.18076  1.0000
  C   C15       1.0  0.77748  0.24085  0.68076  1.0000
  C   C16       1.0  0.27748  0.75915  0.81924  1.0000
  C   C17       1.0  0.52808  0.55792  0.71348  1.0000
  C   C18       1.0  0.02808  0.44208  0.78652  1.0000
  C   C19       1.0  0.47192  0.44208  0.28652  1.0000
  C   C20       1.0  0.97192  0.55792  0.21348  1.0000
  C   C21       1.0  0.52354  0.43313  0.75790  1.0000
  C   C22       1.0  0.02354  0.56687  0.74209  1.0000
  C   C23       1.0  0.47646  0.56687  0.24210  1.0000
  C   C24       1.0  0.97646  0.43313  0.25790  1.0000
  N   N1        1.0  0.21879  0.88681  0.45949  1.0000
  N   N2        1.0  0.71878  0.11319  0.04051  1.0000
  N   N3        1.0  0.78122  0.11319  0.54051  1.0000
  N   N4        1.0  0.28121  0.88681  0.95949  1.0000
  O   O1        1.0  0.22694  0.53039  0.49585  1.0000
  O   O2        1.0  0.72694  0.46961  0.00415  1.0000
  O   O3        1.0  0.77306  0.46961  0.50415  1.0000
  O   O4        1.0  0.27306  0.53039  0.99585  1.0000
  O   O5        1.0  0.23685  0.64440  0.36159  1.0000
  O   O6        1.0  0.73685  0.35560  0.13841  1.0000
  O   O7        1.0  0.76316  0.35560  0.63841  1.0000
  O   O8        1.0  0.26315  0.64440  0.86159  1.0000
  O   O9        1.0  0.98690  0.64464  0.44367  1.0000
  O   O10       1.0  0.48690  0.35536  0.05634  1.0000
  O   O11       1.0  0.01310  0.35536  0.55634  1.0000
  O   O12       1.0  0.51310  0.64463  0.94366  1.0000
  O   O13       1.0  0.02899  0.03300  0.59924  1.0000
  O   O14       1.0  0.52899  0.96699  0.90076  1.0000
  O   O15       1.0  0.97101  0.96699  0.40076  1.0000
  O   O16       1.0  0.47101  0.03301  0.09924  1.0000
  O   O17       1.0  0.25456  0.18818  0.61268  1.0000
  O   O18       1.0  0.75455  0.81182  0.88733  1.0000
  O   O19       1.0  0.74545  0.81182  0.38733  1.0000
  O   O20       1.0  0.24544  0.18818  0.11268  1.0000
  O   O21       1.0  0.26015  0.98438  0.68395  1.0000
  O   O22       1.0  0.76014  0.01561  0.81605  1.0000
  O   O23       1.0  0.73986  0.01561  0.31605  1.0000
  O   O24       1.0  0.23985  0.98438  0.18395  1.0000
  O   O25       1.0  0.44781  0.56552  0.64456  1.0000
  O   O26       1.0  0.94781  0.43449  0.85544  1.0000
  O   O27       1.0  0.55219  0.43449  0.35544  1.0000
  O   O28       1.0  0.05219  0.56552  0.14456  1.0000
  O   O29       1.0  0.61040  0.64041  0.74769  1.0000
  O   O30       1.0  0.11040  0.35960  0.75231  1.0000
  O   O31       1.0  0.38960  0.35960  0.25232  1.0000
  O   O32       1.0  0.88960  0.64041  0.24769  1.0000
  O   O33       1.0  0.43557  0.35257  0.72580  1.0000
  O   O34       1.0  0.93556  0.64743  0.77420  1.0000
  O   O35       1.0  0.56444  0.64743  0.27420  1.0000
  O   O36       1.0  0.06442  0.35257  0.22580  1.0000
  O   O37       1.0  0.61227  0.42100  0.82179  1.0000
  O   O38       1.0  0.11225  0.57900  0.67821  1.0000
  O   O39       1.0  0.38774  0.57900  0.17821  1.0000
  O   O40       1.0  0.88772  0.42100  0.32179  1.0000
  O   O41       1.0  0.46678  0.35177  0.51549  1.0000
  O   O42       1.0  0.96678  0.64823  0.98451  1.0000
  O   O43       1.0  0.53323  0.64823  0.48451  1.0000
  O   O44       1.0  0.03322  0.35177  0.01549  1.0000
