data_image0
_chemical_formula_structural       Na4H60Pb4C32O24
_chemical_formula_sum              "Na4 H60 Pb4 C32 O24"
_cell_length_a       11.0107
_cell_length_b       11.0081
_cell_length_c       11.0845
_cell_angle_alpha    90
_cell_angle_beta     90
_cell_angle_gamma    90

_space_group_name_H-M_alt    "P 1"
_space_group_IT_number       1

loop_
  _space_group_symop_operation_xyz
  'x, y, z'

loop_
  _atom_site_type_symbol
  _atom_site_label
  _atom_site_symmetry_multiplicity
  _atom_site_fract_x
  _atom_site_fract_y
  _atom_site_fract_z
  _atom_site_occupancy
  Na  Na1       1.0  0.84615  0.65294  0.34658  1.0000
  Na  Na2       1.0  0.65385  0.34706  0.84658  1.0000
  Na  Na3       1.0  0.34615  0.84706  0.65342  1.0000
  Na  Na4       1.0  0.15386  0.15294  0.15342  1.0000
  H   H1        1.0  0.98563  0.60518  0.00881  1.0000
  H   H2        1.0  0.51437  0.39481  0.50881  1.0000
  H   H3        1.0  0.48564  0.89483  0.99119  1.0000
  H   H4        1.0  0.01437  0.10519  0.49121  1.0000
  H   H5        1.0  0.00866  0.98571  0.60439  1.0000
  H   H6        1.0  0.60529  0.00866  0.98568  1.0000
  H   H7        1.0  0.49136  0.01429  0.10440  1.0000
  H   H8        1.0  0.39472  0.50866  0.51433  1.0000
  H   H9        1.0  0.50865  0.51429  0.39561  1.0000
  H   H10       1.0  0.89473  0.99133  0.48568  1.0000
  H   H11       1.0  0.99136  0.48571  0.89561  1.0000
  H   H12       1.0  0.10528  0.49134  0.01432  1.0000
  H   H13       1.0  0.83702  0.20123  0.23350  1.0000
  H   H14       1.0  0.66298  0.79876  0.73351  1.0000
  H   H15       1.0  0.33705  0.29878  0.76651  1.0000
  H   H16       1.0  0.16296  0.70122  0.26650  1.0000
  H   H17       1.0  0.23351  0.83678  0.20200  1.0000
  H   H18       1.0  0.20134  0.23390  0.83640  1.0000
  H   H19       1.0  0.26650  0.16323  0.70201  1.0000
  H   H20       1.0  0.79868  0.73389  0.66360  1.0000
  H   H21       1.0  0.73352  0.66321  0.79800  1.0000
  H   H22       1.0  0.29867  0.76610  0.33639  1.0000
  H   H23       1.0  0.76648  0.33679  0.29798  1.0000
  H   H24       1.0  0.70132  0.26612  0.16359  1.0000
  H   H25       1.0  0.56143  0.66607  0.96289  1.0000
  H   H26       1.0  0.93858  0.33394  0.46291  1.0000
  H   H27       1.0  0.06142  0.83395  0.03709  1.0000
  H   H28       1.0  0.43857  0.16607  0.53711  1.0000
  H   H29       1.0  0.96230  0.56165  0.66581  1.0000
  H   H30       1.0  0.66511  0.96254  0.56253  1.0000
  H   H31       1.0  0.53770  0.43835  0.16580  1.0000
  H   H32       1.0  0.33488  0.46255  0.93748  1.0000
  H   H33       1.0  0.46229  0.93832  0.33418  1.0000
  H   H34       1.0  0.83489  0.03746  0.06254  1.0000
  H   H35       1.0  0.03769  0.06163  0.83418  1.0000
  H   H36       1.0  0.16510  0.53744  0.43747  1.0000
  H   H37       1.0  0.64996  0.76403  0.05675  1.0000
  H   H38       1.0  0.85004  0.23599  0.55676  1.0000
  H   H39       1.0  0.14996  0.73600  0.94323  1.0000
  H   H40       1.0  0.35004  0.26402  0.44324  1.0000
  H   H41       1.0  0.05690  0.65067  0.76249  1.0000
  H   H42       1.0  0.76351  0.05662  0.65038  1.0000
  H   H43       1.0  0.44310  0.34933  0.26249  1.0000
  H   H44       1.0  0.23651  0.55663  0.84963  1.0000
  H   H45       1.0  0.55689  0.84931  0.23751  1.0000
  H   H46       1.0  0.73651  0.94338  0.15039  1.0000
  H   H47       1.0  0.94308  0.15066  0.73751  1.0000
  H   H48       1.0  0.26348  0.44337  0.34960  1.0000
  H   H49       1.0  0.54087  0.66746  0.12356  1.0000
  H   H50       1.0  0.95913  0.33254  0.62358  1.0000
  H   H51       1.0  0.04087  0.83255  0.87642  1.0000
  H   H52       1.0  0.45913  0.16745  0.37644  1.0000
  H   H53       1.0  0.12415  0.54145  0.66675  1.0000
  H   H54       1.0  0.66666  0.12444  0.54270  1.0000
  H   H55       1.0  0.37585  0.45856  0.16674  1.0000
  H   H56       1.0  0.33334  0.62445  0.95731  1.0000
  H   H57       1.0  0.62414  0.95855  0.33325  1.0000
  H   H58       1.0  0.83335  0.87557  0.04270  1.0000
  H   H59       1.0  0.87584  0.04143  0.83326  1.0000
  H   H60       1.0  0.16665  0.37555  0.45729  1.0000
  Pb  Pb1       1.0  0.89776  0.39766  0.10206  1.0000
  Pb  Pb2       1.0  0.60223  0.60234  0.60208  1.0000
  Pb  Pb3       1.0  0.39777  0.10235  0.89793  1.0000
  Pb  Pb4       1.0  0.10224  0.89767  0.39793  1.0000
  C   C1        1.0  0.01178  0.51172  0.98850  1.0000
  C   C2        1.0  0.48821  0.48829  0.48849  1.0000
  C   C3        1.0  0.51179  0.98829  0.01150  1.0000
  C   C4        1.0  0.98822  0.01171  0.51150  1.0000
  C   C5        1.0  0.78344  0.28322  0.21652  1.0000
  C   C6        1.0  0.71655  0.71679  0.71653  1.0000
  C   C7        1.0  0.28346  0.21679  0.78348  1.0000
  C   C8        1.0  0.21655  0.78322  0.28346  1.0000
  C   C9        1.0  0.70363  0.57766  0.06574  1.0000
  C   C10       1.0  0.79638  0.42235  0.56576  1.0000
  C   C11       1.0  0.20363  0.92236  0.93425  1.0000
  C   C12       1.0  0.29638  0.07765  0.43426  1.0000
  C   C13       1.0  0.06553  0.70373  0.57709  1.0000
  C   C14       1.0  0.57740  0.06572  0.70459  1.0000
  C   C15       1.0  0.43447  0.29627  0.07709  1.0000
  C   C16       1.0  0.42261  0.56572  0.79543  1.0000
  C   C17       1.0  0.56551  0.79627  0.42292  1.0000
  C   C18       1.0  0.92261  0.93427  0.20459  1.0000
  C   C19       1.0  0.93448  0.20371  0.92291  1.0000
  C   C20       1.0  0.07739  0.43427  0.29540  1.0000
  C   C21       1.0  0.60730  0.67422  0.04997  1.0000
  C   C22       1.0  0.89269  0.32578  0.54999  1.0000
  C   C23       1.0  0.10730  0.82579  0.95001  1.0000
  C   C24       1.0  0.39269  0.17423  0.45002  1.0000
  C   C25       1.0  0.04990  0.60774  0.67344  1.0000
  C   C26       1.0  0.67353  0.05005  0.60839  1.0000
  C   C27       1.0  0.45010  0.39226  0.17344  1.0000
  C   C28       1.0  0.32647  0.55006  0.89162  1.0000
  C   C29       1.0  0.54989  0.89225  0.32655  1.0000
  C   C30       1.0  0.82647  0.94996  0.10840  1.0000
  C   C31       1.0  0.95008  0.10773  0.82656  1.0000
  C   C32       1.0  0.17352  0.44994  0.39160  1.0000
  O   O1        1.0  0.76255  0.57482  0.16491  1.0000
  O   O2        1.0  0.73745  0.42518  0.66492  1.0000
  O   O3        1.0  0.26255  0.92519  0.83508  1.0000
  O   O4        1.0  0.23745  0.07482  0.33509  1.0000
  O   O5        1.0  0.16499  0.76331  0.57443  1.0000
  O   O6        1.0  0.57542  0.16504  0.76400  1.0000
  O   O7        1.0  0.33502  0.23670  0.07442  1.0000
  O   O8        1.0  0.42458  0.66504  0.73601  1.0000
  O   O9        1.0  0.66499  0.73668  0.42558  1.0000
  O   O10       1.0  0.92457  0.83496  0.26401  1.0000
  O   O11       1.0  0.83500  0.26331  0.92556  1.0000
  O   O12       1.0  0.07543  0.33494  0.23598  1.0000
  O   O13       1.0  0.72438  0.50267  0.98085  1.0000
  O   O14       1.0  0.77564  0.49736  0.48088  1.0000
  O   O15       1.0  0.22439  0.99734  0.01914  1.0000
  O   O16       1.0  0.27563  0.00267  0.51915  1.0000
  O   O17       1.0  0.98039  0.72342  0.50201  1.0000
  O   O18       1.0  0.50196  0.98052  0.72470  1.0000
  O   O19       1.0  0.51962  0.27657  0.00202  1.0000
  O   O20       1.0  0.49804  0.48053  0.77531  1.0000
  O   O21       1.0  0.48039  0.77657  0.49799  1.0000
  O   O22       1.0  0.99806  0.01946  0.22470  1.0000
  O   O23       1.0  0.01960  0.22341  0.99797  1.0000
  O   O24       1.0  0.00194  0.51944  0.27529  1.0000
