data_image0
_chemical_formula_structural       V4H32C40Se4N8O16
_chemical_formula_sum              "V4 H32 C40 Se4 N8 O16"
_cell_length_a       11.25
_cell_length_b       11.2183
_cell_length_c       11.5386
_cell_angle_alpha    111.744
_cell_angle_beta     118.095
_cell_angle_gamma    98.2294

_space_group_name_H-M_alt    "P 1"
_space_group_IT_number       1

loop_
  _space_group_symop_operation_xyz
  'x, y, z'

loop_
  _atom_site_type_symbol
  _atom_site_label
  _atom_site_symmetry_multiplicity
  _atom_site_fract_x
  _atom_site_fract_y
  _atom_site_fract_z
  _atom_site_occupancy
  V   V1        1.0  0.69566  0.16142  0.29457  1.0000
  V   V2        1.0  0.36691  0.40129  0.20589  1.0000
  V   V3        1.0  0.30427  0.83839  0.70410  1.0000
  V   V4        1.0  0.63412  0.59968  0.79532  1.0000
  H   H1        1.0  0.44131  0.90859  0.21825  1.0000
  H   H2        1.0  0.19067  0.22340  0.28052  1.0000
  H   H3        1.0  0.55894  0.09188  0.78190  1.0000
  H   H4        1.0  0.80949  0.77675  0.71948  1.0000
  H   H5        1.0  0.41173  0.77276  0.34370  1.0000
  H   H6        1.0  0.92826  0.06827  0.15487  1.0000
  H   H7        1.0  0.58843  0.22794  0.65690  1.0000
  H   H8        1.0  0.07164  0.93121  0.84452  1.0000
  H   H9        1.0  0.63024  0.81780  0.58238  1.0000
  H   H10       1.0  0.73372  0.04704  0.91612  1.0000
  H   H11       1.0  0.36995  0.18216  0.41739  1.0000
  H   H12       1.0  0.26638  0.95328  0.08402  1.0000
  H   H13       1.0  0.87501  0.98347  0.68329  1.0000
  H   H14       1.0  0.79866  0.19062  0.81595  1.0000
  H   H15       1.0  0.12519  0.01660  0.31659  1.0000
  H   H16       1.0  0.20155  0.80965  0.18421  1.0000
  H   H17       1.0  0.07396  0.09409  0.72476  1.0000
  H   H18       1.0  0.86863  0.34833  0.77487  1.0000
  H   H19       1.0  0.92699  0.90598  0.27583  1.0000
  H   H20       1.0  0.13086  0.65220  0.22464  1.0000
  H   H21       1.0  0.29306  0.25590  0.78138  1.0000
  H   H22       1.0  0.97441  0.51052  0.71895  1.0000
  H   H23       1.0  0.70755  0.74389  0.21918  1.0000
  H   H24       1.0  0.02493  0.48967  0.28066  1.0000
  H   H25       1.0  0.26212  0.38038  0.63454  1.0000
  H   H26       1.0  0.24668  0.62691  0.86645  1.0000
  H   H27       1.0  0.73942  0.61964  0.36670  1.0000
  H   H28       1.0  0.75226  0.37345  0.13249  1.0000
  H   H29       1.0  0.00587  0.33520  0.43282  1.0000
  H   H30       1.0  0.40347  0.57344  0.06859  1.0000
  H   H31       1.0  0.99479  0.66488  0.56786  1.0000
  H   H32       1.0  0.59597  0.42650  0.93091  1.0000
  C   C1        1.0  0.53389  0.92053  0.32108  1.0000
  C   C2        1.0  0.09925  0.21289  0.17787  1.0000
  C   C3        1.0  0.46637  0.07963  0.67889  1.0000
  C   C4        1.0  0.90080  0.78741  0.82227  1.0000
  C   C5        1.0  0.51752  0.84760  0.39072  1.0000
  C   C6        1.0  0.95609  0.12683  0.10808  1.0000
  C   C7        1.0  0.48270  0.15284  0.60965  1.0000
  C   C8        1.0  0.04384  0.87299  0.89159  1.0000
  C   C9        1.0  0.64141  0.87183  0.52436  1.0000
  C   C10       1.0  0.84623  0.11654  0.97444  1.0000
  C   C11       1.0  0.35867  0.12843  0.47563  1.0000
  C   C12       1.0  0.15396  0.88348  0.02557  1.0000
  C   C13       1.0  0.77676  0.96398  0.58026  1.0000
  C   C14       1.0  0.88261  0.19582  0.91894  1.0000
  C   C15       1.0  0.22349  0.03632  0.41979  1.0000
  C   C16       1.0  0.11763  0.80433  0.08106  1.0000
  C   C17       1.0  0.78534  0.03202  0.50249  1.0000
  C   C18       1.0  0.02902  0.28255  0.99702  1.0000
  C   C19       1.0  0.21471  0.96774  0.49719  1.0000
  C   C20       1.0  0.97103  0.71787  0.00344  1.0000
  C   C21       1.0  0.92200  0.12830  0.54769  1.0000
  C   C22       1.0  0.08042  0.37414  0.95248  1.0000
  C   C23       1.0  0.07887  0.87182  0.45253  1.0000
  C   C24       1.0  0.91947  0.62657  0.04742  1.0000
  C   C25       1.0  0.06107  0.14893  0.66178  1.0000
  C   C26       1.0  0.98685  0.39873  0.83835  1.0000
  C   C27       1.0  0.93944  0.85102  0.33866  1.0000
  C   C28       1.0  0.01268  0.60145  0.16134  1.0000
  C   C29       1.0  0.18425  0.23890  0.69307  1.0000
  C   C30       1.0  0.04589  0.49053  0.80743  1.0000
  C   C31       1.0  0.81646  0.76130  0.30755  1.0000
  C   C32       1.0  0.95378  0.50967  0.19210  1.0000
  C   C33       1.0  0.16710  0.30738  0.61021  1.0000
  C   C34       1.0  0.19773  0.55649  0.89062  1.0000
  C   C35       1.0  0.83414  0.69283  0.39084  1.0000
  C   C36       1.0  0.80149  0.44373  0.10841  1.0000
  C   C37       1.0  0.02665  0.28338  0.49957  1.0000
  C   C38       1.0  0.28451  0.52723  0.00147  1.0000
  C   C39       1.0  0.97433  0.71665  0.50107  1.0000
  C   C40       1.0  0.71490  0.47309  0.99799  1.0000
  Se  Se1       1.0  0.41815  0.13730  0.00705  1.0000
  Se  Se2       1.0  0.63035  0.41182  0.49360  1.0000
  Se  Se3       1.0  0.58027  0.86151  0.99257  1.0000
  Se  Se4       1.0  0.36854  0.58684  0.50635  1.0000
  N   N1        1.0  0.66386  0.01109  0.37602  1.0000
  N   N2        1.0  0.13496  0.28769  0.12324  1.0000
  N   N3        1.0  0.33648  0.98837  0.62360  1.0000
  N   N4        1.0  0.86481  0.71308  0.87730  1.0000
  N   N5        1.0  0.90594  0.19580  0.46784  1.0000
  N   N6        1.0  0.22829  0.43842  0.03290  1.0000
  N   N7        1.0  0.09567  0.80395  0.53267  1.0000
  N   N8        1.0  0.77093  0.56264  0.96663  1.0000
  O   O1        1.0  0.48398  0.07342  0.13328  1.0000
  O   O2        1.0  0.43967  0.34984  0.36547  1.0000
  O   O3        1.0  0.51232  0.92480  0.86604  1.0000
  O   O4        1.0  0.55870  0.64652  0.63470  1.0000
  O   O5        1.0  0.75531  0.29216  0.28022  1.0000
  O   O6        1.0  0.51247  0.47605  0.22160  1.0000
  O   O7        1.0  0.24436  0.70904  0.72018  1.0000
  O   O8        1.0  0.48834  0.52259  0.77781  1.0000
  O   O9        1.0  0.27847  0.98902  0.83847  1.0000
  O   O10       1.0  0.64961  0.43908  0.66033  1.0000
  O   O11       1.0  0.72022  0.00989  0.15809  1.0000
  O   O12       1.0  0.35268  0.56292  0.34282  1.0000
  O   O13       1.0  0.30574  0.20676  0.04504  1.0000
  O   O14       1.0  0.66223  0.26121  0.45457  1.0000
  O   O15       1.0  0.69175  0.79137  0.95139  1.0000
  O   O16       1.0  0.33943  0.73990  0.54867  1.0000
