data_image0
_chemical_formula_structural       V4H16C20Se4N4O16
_chemical_formula_sum              "V4 H16 C20 Se4 N4 O16"
_cell_length_a       7.18351
_cell_length_b       10.8066
_cell_length_c       11.0496
_cell_angle_alpha    115.124
_cell_angle_beta     107.529
_cell_angle_gamma    92.7192

_space_group_name_H-M_alt    "P 1"
_space_group_IT_number       1

loop_
  _space_group_symop_operation_xyz
  'x, y, z'

loop_
  _atom_site_type_symbol
  _atom_site_label
  _atom_site_symmetry_multiplicity
  _atom_site_fract_x
  _atom_site_fract_y
  _atom_site_fract_z
  _atom_site_occupancy
  V   V1        1.0  0.24341  0.32493  0.96654  1.0000
  V   V2        1.0  0.75659  0.67507  0.03346  1.0000
  V   V3        1.0  0.23596  0.82106  0.48989  1.0000
  V   V4        1.0  0.76404  0.17894  0.51011  1.0000
  H   H1        1.0  0.46361  0.09224  0.92021  1.0000
  H   H2        1.0  0.53639  0.90776  0.07979  1.0000
  H   H3        1.0  0.78998  0.04229  0.02793  1.0000
  H   H4        1.0  0.21001  0.95771  0.97207  1.0000
  H   H5        1.0  0.96759  0.47945  0.34057  1.0000
  H   H6        1.0  0.03241  0.52055  0.65943  1.0000
  H   H7        1.0  0.63124  0.50840  0.22443  1.0000
  H   H8        1.0  0.36876  0.49160  0.77557  1.0000
  H   H9        1.0  0.34613  0.99455  0.32952  1.0000
  H   H10       1.0  0.65387  0.00545  0.67048  1.0000
  H   H11       1.0  0.00828  0.02035  0.21522  1.0000
  H   H12       1.0  0.99172  0.97965  0.78478  1.0000
  H   H13       1.0  0.26763  0.43904  0.31921  1.0000
  H   H14       1.0  0.73237  0.56096  0.68079  1.0000
  H   H15       1.0  0.59592  0.39697  0.43463  1.0000
  H   H16       1.0  0.40408  0.60303  0.56537  1.0000
  C   C1        1.0  0.57772  0.17348  0.01645  1.0000
  C   C2        1.0  0.42228  0.82652  0.98355  1.0000
  C   C3        1.0  0.76052  0.14695  0.07655  1.0000
  C   C4        1.0  0.23948  0.85305  0.92345  1.0000
  C   C5        1.0  0.90839  0.25670  0.19525  1.0000
  C   C6        1.0  0.09161  0.74330  0.80475  1.0000
  C   C7        1.0  0.86145  0.38928  0.24858  1.0000
  C   C8        1.0  0.13855  0.61072  0.75142  1.0000
  C   C9        1.0  0.67364  0.40728  0.18493  1.0000
  C   C10       1.0  0.32636  0.59272  0.81507  1.0000
  C   C11       1.0  0.32165  0.09229  0.32695  1.0000
  C   C12       1.0  0.67835  0.90771  0.67305  1.0000
  C   C13       1.0  0.13261  0.10767  0.26203  1.0000
  C   C14       1.0  0.86739  0.89233  0.73797  1.0000
  C   C15       1.0  0.10605  0.23468  0.26055  1.0000
  C   C16       1.0  0.89395  0.76532  0.73945  1.0000
  C   C17       1.0  0.27652  0.34078  0.32386  1.0000
  C   C18       1.0  0.72348  0.65922  0.67614  1.0000
  C   C19       1.0  0.46053  0.31772  0.38640  1.0000
  C   C20       1.0  0.53947  0.68228  0.61360  1.0000
  Se  Se1       1.0  0.21148  0.65075  0.14914  1.0000
  Se  Se2       1.0  0.78852  0.34925  0.85087  1.0000
  Se  Se3       1.0  0.20987  0.14946  0.62933  1.0000
  Se  Se4       1.0  0.79013  0.85054  0.37067  1.0000
  N   N1        1.0  0.53266  0.30168  0.07054  1.0000
  N   N2        1.0  0.46734  0.69832  0.92946  1.0000
  N   N3        1.0  0.48455  0.19570  0.38995  1.0000
  N   N4        1.0  0.51545  0.80430  0.61005  1.0000
  O   O1        1.0  0.30521  0.50046  0.13519  1.0000
  O   O2        1.0  0.69479  0.49954  0.86480  1.0000
  O   O3        1.0  0.33426  0.27039  0.80617  1.0000
  O   O4        1.0  0.66574  0.72961  0.19383  1.0000
  O   O5        1.0  0.11788  0.19802  0.96708  1.0000
  O   O6        1.0  0.88211  0.80199  0.03292  1.0000
  O   O7        1.0  0.09957  0.70669  0.50130  1.0000
  O   O8        1.0  0.90043  0.29331  0.49870  1.0000
  O   O9        1.0  0.33463  0.74768  0.33371  1.0000
  O   O10       1.0  0.66537  0.25233  0.66629  1.0000
  O   O11       1.0  0.97013  0.60224  0.13411  1.0000
  O   O12       1.0  0.02987  0.39776  0.86589  1.0000
  O   O13       1.0  0.96924  0.11270  0.62447  1.0000
  O   O14       1.0  0.03076  0.88730  0.37553  1.0000
  O   O15       1.0  0.30430  0.00755  0.64419  1.0000
  O   O16       1.0  0.69570  0.99244  0.35581  1.0000
