data_image0
_chemical_formula_structural       Cd2H16C12N28O8
_chemical_formula_sum              "Cd2 H16 C12 N28 O8"
_cell_length_a       7.87964
_cell_length_b       9.06463
_cell_length_c       9.37883
_cell_angle_alpha    89.9999
_cell_angle_beta     90
_cell_angle_gamma    93.2238

_space_group_name_H-M_alt    "P 1"
_space_group_IT_number       1

loop_
  _space_group_symop_operation_xyz
  'x, y, z'

loop_
  _atom_site_type_symbol
  _atom_site_label
  _atom_site_symmetry_multiplicity
  _atom_site_fract_x
  _atom_site_fract_y
  _atom_site_fract_z
  _atom_site_occupancy
  Cd  Cd1       1.0  0.50000  0.50000  0.50000  1.0000
  Cd  Cd2       1.0  0.50000  1.00000  0.00000  1.0000
  H   H1        1.0  0.14737  0.40723  0.50808  1.0000
  H   H2        1.0  0.85263  0.09277  0.00808  1.0000
  H   H3        1.0  0.85263  0.59277  0.49192  1.0000
  H   H4        1.0  0.14737  0.90723  0.99192  1.0000
  H   H5        1.0  0.15192  0.57642  0.46851  1.0000
  H   H6        1.0  0.84808  0.92358  0.96851  1.0000
  H   H7        1.0  0.84808  0.42358  0.53149  1.0000
  H   H8        1.0  0.15192  0.07642  0.03149  1.0000
  H   H9        1.0  0.72020  0.44824  0.88279  1.0000
  H   H10       1.0  0.27981  0.05176  0.38279  1.0000
  H   H11       1.0  0.27981  0.55176  0.11721  1.0000
  H   H12       1.0  0.72019  0.94824  0.61721  1.0000
  H   H13       1.0  0.82855  0.59092  0.78690  1.0000
  H   H14       1.0  0.17145  0.90908  0.28690  1.0000
  H   H15       1.0  0.17145  0.40908  0.21310  1.0000
  H   H16       1.0  0.82855  0.09092  0.71310  1.0000
  C   C1        1.0  0.66224  0.42221  0.16647  1.0000
  C   C2        1.0  0.33776  0.07779  0.66647  1.0000
  C   C3        1.0  0.33776  0.57779  0.83353  1.0000
  C   C4        1.0  0.66224  0.92221  0.33353  1.0000
  C   C5        1.0  0.77877  0.54908  0.14569  1.0000
  C   C6        1.0  0.22123  0.95092  0.64569  1.0000
  C   C7        1.0  0.22124  0.45092  0.85431  1.0000
  C   C8        1.0  0.77877  0.04908  0.35431  1.0000
  C   C9        1.0  0.83081  0.60855  0.00759  1.0000
  C   C10       1.0  0.16919  0.89145  0.50759  1.0000
  C   C11       1.0  0.16919  0.39145  0.99241  1.0000
  C   C12       1.0  0.83081  0.10855  0.49241  1.0000
  N   N1        1.0  0.56984  0.38095  0.28335  1.0000
  N   N2        1.0  0.43016  0.11905  0.78335  1.0000
  N   N3        1.0  0.43016  0.61905  0.71665  1.0000
  N   N4        1.0  0.56984  0.88095  0.21665  1.0000
  N   N5        1.0  0.48289  0.25524  0.24733  1.0000
  N   N6        1.0  0.51711  0.24476  0.74733  1.0000
  N   N7        1.0  0.51711  0.74476  0.75267  1.0000
  N   N8        1.0  0.48289  0.75524  0.25267  1.0000
  N   N9        1.0  0.52139  0.22452  0.11391  1.0000
  N   N10       1.0  0.47861  0.27548  0.61391  1.0000
  N   N11       1.0  0.47861  0.77548  0.88609  1.0000
  N   N12       1.0  0.52139  0.72452  0.38609  1.0000
  N   N13       1.0  0.63251  0.32615  0.05958  1.0000
  N   N14       1.0  0.36749  0.17385  0.55958  1.0000
  N   N15       1.0  0.36749  0.67385  0.94041  1.0000
  N   N16       1.0  0.63251  0.82615  0.44042  1.0000
  N   N17       1.0  0.85011  0.63084  0.24675  1.0000
  N   N18       1.0  0.14989  0.86916  0.74675  1.0000
  N   N19       1.0  0.14989  0.36916  0.75325  1.0000
  N   N20       1.0  0.85011  0.13084  0.25325  1.0000
  N   N21       1.0  0.92634  0.73244  0.02957  1.0000
  N   N22       1.0  0.07365  0.76756  0.52957  1.0000
  N   N23       1.0  0.07366  0.26756  0.97043  1.0000
  N   N24       1.0  0.92635  0.23244  0.47043  1.0000
  N   N25       1.0  0.78913  0.54712  0.88180  1.0000
  N   N26       1.0  0.21087  0.95288  0.38180  1.0000
  N   N27       1.0  0.21087  0.45288  0.11820  1.0000
  N   N28       1.0  0.78913  0.04712  0.61820  1.0000
  O   O1        1.0  0.94100  0.74403  0.18031  1.0000
  O   O2        1.0  0.05899  0.75597  0.68032  1.0000
  O   O3        1.0  0.05900  0.25597  0.81968  1.0000
  O   O4        1.0  0.94100  0.24403  0.31968  1.0000
  O   O5        1.0  0.20048  0.48142  0.44312  1.0000
  O   O6        1.0  0.79952  0.01858  0.94312  1.0000
  O   O7        1.0  0.79952  0.51858  0.55688  1.0000
  O   O8        1.0  0.20048  0.98142  0.05688  1.0000
