data_image0
_chemical_formula_structural       Cd4H32C24N64O8
_chemical_formula_sum              "Cd4 H32 C24 N64 O8"
_cell_length_a       7.72133
_cell_length_b       14.705
_cell_length_c       15.3285
_cell_angle_alpha    63.4781
_cell_angle_beta     75.9375
_cell_angle_gamma    74.994

_space_group_name_H-M_alt    "P 1"
_space_group_IT_number       1

loop_
  _space_group_symop_operation_xyz
  'x, y, z'

loop_
  _atom_site_type_symbol
  _atom_site_label
  _atom_site_symmetry_multiplicity
  _atom_site_fract_x
  _atom_site_fract_y
  _atom_site_fract_z
  _atom_site_occupancy
  Cd  Cd1       1.0  0.70728  0.75321  0.71110  1.0000
  Cd  Cd2       1.0  0.17221  0.74657  0.78926  1.0000
  Cd  Cd3       1.0  0.29272  0.24679  0.28890  1.0000
  Cd  Cd4       1.0  0.82779  0.25343  0.21074  1.0000
  H   H1        1.0  0.80359  0.60197  0.29043  1.0000
  H   H2        1.0  0.69423  0.89817  0.20855  1.0000
  H   H3        1.0  0.19641  0.39803  0.70957  1.0000
  H   H4        1.0  0.30577  0.10183  0.79145  1.0000
  H   H5        1.0  0.71685  0.60007  0.19379  1.0000
  H   H6        1.0  0.50951  0.90019  0.30371  1.0000
  H   H7        1.0  0.28315  0.39993  0.80622  1.0000
  H   H8        1.0  0.49049  0.09981  0.69630  1.0000
  H   H9        1.0  0.96151  0.89208  0.60736  1.0000
  H   H10       1.0  0.46397  0.60738  0.89302  1.0000
  H   H11       1.0  0.03849  0.10792  0.39264  1.0000
  H   H12       1.0  0.53602  0.39262  0.10698  1.0000
  H   H13       1.0  0.76878  0.96216  0.63463  1.0000
  H   H14       1.0  0.36673  0.53761  0.86521  1.0000
  H   H15       1.0  0.23122  0.03784  0.36537  1.0000
  H   H16       1.0  0.63327  0.46239  0.13479  1.0000
  H   H17       1.0  0.82608  0.87651  0.80367  1.0000
  H   H18       1.0  0.50301  0.62329  0.69662  1.0000
  H   H19       1.0  0.17392  0.12349  0.19633  1.0000
  H   H20       1.0  0.49699  0.37671  0.30338  1.0000
  H   H21       1.0  0.97159  0.95295  0.72788  1.0000
  H   H22       1.0  0.65073  0.54700  0.77260  1.0000
  H   H23       1.0  0.02841  0.04705  0.27212  1.0000
  H   H24       1.0  0.34926  0.45300  0.22740  1.0000
  H   H25       1.0  0.18280  0.61678  0.31361  1.0000
  H   H26       1.0  0.11498  0.88340  0.18738  1.0000
  H   H27       1.0  0.81720  0.38322  0.68639  1.0000
  H   H28       1.0  0.88502  0.11660  0.81262  1.0000
  H   H29       1.0  0.26158  0.61435  0.41472  1.0000
  H   H30       1.0  0.29142  0.88619  0.08742  1.0000
  H   H31       1.0  0.73842  0.38565  0.58528  1.0000
  H   H32       1.0  0.70858  0.11381  0.91258  1.0000
  C   C1        1.0  0.90800  0.61887  0.00584  1.0000
  C   C2        1.0  0.53201  0.88114  0.49359  1.0000
  C   C3        1.0  0.09200  0.38113  0.99416  1.0000
  C   C4        1.0  0.46799  0.11886  0.50641  1.0000
  C   C5        1.0  0.02931  0.61069  0.06829  1.0000
  C   C6        1.0  0.70654  0.88920  0.43196  1.0000
  C   C7        1.0  0.97069  0.38931  0.93171  1.0000
  C   C8        1.0  0.29346  0.11079  0.56804  1.0000
  C   C9        1.0  0.98559  0.60084  0.16902  1.0000
  C   C10       1.0  0.75337  0.89897  0.33123  1.0000
  C   C11       1.0  0.01441  0.39916  0.83098  1.0000
  C   C12       1.0  0.24663  0.10103  0.66877  1.0000
  C   C13       1.0  0.04848  0.63955  0.58130  1.0000
  C   C14       1.0  0.27002  0.86047  0.91941  1.0000
  C   C15       1.0  0.95153  0.36045  0.41870  1.0000
  C   C16       1.0  0.72998  0.13953  0.08059  1.0000
  C   C17       1.0  0.93512  0.63245  0.52315  1.0000
  C   C18       1.0  0.09249  0.86746  0.97680  1.0000
  C   C19       1.0  0.06489  0.36755  0.47685  1.0000
  C   C20       1.0  0.90751  0.13254  0.02320  1.0000
  C   C21       1.0  0.99073  0.62735  0.42818  1.0000
  C   C22       1.0  0.04836  0.87263  0.07181  1.0000
  C   C23       1.0  0.00927  0.37265  0.57182  1.0000
  C   C24       1.0  0.95164  0.12737  0.92819  1.0000
  N   N1        1.0  0.94457  0.65645  0.90688  1.0000
  N   N2        1.0  0.50844  0.84370  0.59261  1.0000
  N   N3        1.0  0.05543  0.34355  0.09312  1.0000
  N   N4        1.0  0.49157  0.15630  0.40739  1.0000
  N   N5        1.0  0.79679  0.65263  0.87836  1.0000
  N   N6        1.0  0.32909  0.84791  0.62043  1.0000
  N   N7        1.0  0.20321  0.34737  0.12164  1.0000
  N   N8        1.0  0.67091  0.15209  0.37957  1.0000
  N   N9        1.0  0.67557  0.61471  0.95622  1.0000
  N   N10       1.0  0.24703  0.88594  0.54207  1.0000
  N   N11       1.0  0.32443  0.38529  0.04378  1.0000
  N   N12       1.0  0.75297  0.11406  0.45793  1.0000
  N   N13       1.0  0.74169  0.59250  0.03808  1.0000
  N   N14       1.0  0.37153  0.90778  0.46061  1.0000
  N   N15       1.0  0.25830  0.40750  0.96192  1.0000
  N   N16       1.0  0.62847  0.09222  0.53939  1.0000
  N   N17       1.0  0.20183  0.61681  0.03687  1.0000
  N   N18       1.0  0.85337  0.88325  0.46453  1.0000
  N   N19       1.0  0.79817  0.38319  0.96313  1.0000
  N   N20       1.0  0.14664  0.11674  0.53547  1.0000
  N   N21       1.0  0.13622  0.60041  0.19692  1.0000
  N   N22       1.0  0.93064  0.89955  0.30458  1.0000
  N   N23       1.0  0.86378  0.39959  0.80308  1.0000
  N   N24       1.0  0.06936  0.10044  0.69542  1.0000
  N   N25       1.0  0.82297  0.59346  0.22547  1.0000
  N   N26       1.0  0.64051  0.90598  0.27359  1.0000
  N   N27       1.0  0.17703  0.40654  0.77453  1.0000
  N   N28       1.0  0.35949  0.09402  0.72641  1.0000
  N   N29       1.0  0.13918  0.66640  0.68666  1.0000
  N   N30       1.0  0.49079  0.83415  0.81440  1.0000
  N   N31       1.0  0.86083  0.33359  0.31334  1.0000
  N   N32       1.0  0.50921  0.16585  0.18560  1.0000
  N   N33       1.0  0.28405  0.63685  0.63213  1.0000
  N   N34       1.0  0.55220  0.86379  0.86945  1.0000
  N   N35       1.0  0.71595  0.36315  0.36787  1.0000
  N   N36       1.0  0.44780  0.13621  0.13055  1.0000
  N   N37       1.0  0.23128  0.61957  0.56486  1.0000
  N   N38       1.0  0.41625  0.88074  0.93651  1.0000
  N   N39       1.0  0.76873  0.38043  0.43514  1.0000
  N   N40       1.0  0.58375  0.11926  0.06349  1.0000
  N   N41       1.0  0.85563  0.89293  0.66303  1.0000
  N   N42       1.0  0.41261  0.60679  0.83719  1.0000
  N   N43       1.0  0.14437  0.10707  0.33697  1.0000
  N   N44       1.0  0.58739  0.39321  0.16281  1.0000
  N   N45       1.0  0.92899  0.88573  0.74462  1.0000
  N   N46       1.0  0.55803  0.61420  0.75568  1.0000
  N   N47       1.0  0.07101  0.11427  0.25538  1.0000
  N   N48       1.0  0.44197  0.38580  0.24432  1.0000
  N   N49       1.0  0.98844  0.66913  0.65647  1.0000
  N   N50       1.0  0.31355  0.83107  0.84405  1.0000
  N   N51       1.0  0.01156  0.33087  0.34353  1.0000
  N   N52       1.0  0.68646  0.16893  0.15595  1.0000
  N   N53       1.0  0.75946  0.63336  0.54869  1.0000
  N   N54       1.0  0.94367  0.86651  0.95006  1.0000
  N   N55       1.0  0.24055  0.36663  0.45132  1.0000
  N   N56       1.0  0.05633  0.13349  0.04994  1.0000
  N   N57       1.0  0.84462  0.62530  0.39828  1.0000
  N   N58       1.0  0.87111  0.87470  0.10047  1.0000
  N   N59       1.0  0.15538  0.37470  0.60172  1.0000
  N   N60       1.0  0.12889  0.12531  0.89953  1.0000
  N   N61       1.0  0.15923  0.62759  0.37725  1.0000
  N   N62       1.0  0.16578  0.87238  0.12404  1.0000
  N   N63       1.0  0.84077  0.37241  0.62275  1.0000
  N   N64       1.0  0.83423  0.12762  0.87596  1.0000
  O   O1        1.0  0.27119  0.61168  0.11328  1.0000
  O   O2        1.0  0.99312  0.88844  0.38900  1.0000
  O   O3        1.0  0.72881  0.38832  0.88672  1.0000
  O   O4        1.0  0.00687  0.11156  0.61100  1.0000
  O   O5        1.0  0.69996  0.62956  0.47336  1.0000
  O   O6        1.0  0.80587  0.87031  0.02459  1.0000
  O   O7        1.0  0.30004  0.37044  0.52665  1.0000
  O   O8        1.0  0.19413  0.12969  0.97540  1.0000
