data_image0
_chemical_formula_structural       Ag2H16C16S4N2O6F6
_chemical_formula_sum              "Ag2 H16 C16 S4 N2 O6 F6"
_cell_length_a       5.54354
_cell_length_b       9.83584
_cell_length_c       11.1851
_cell_angle_alpha    93.573
_cell_angle_beta     96.0867
_cell_angle_gamma    104.599

_space_group_name_H-M_alt    "P 1"
_space_group_IT_number       1

loop_
  _space_group_symop_operation_xyz
  'x, y, z'

loop_
  _atom_site_type_symbol
  _atom_site_label
  _atom_site_symmetry_multiplicity
  _atom_site_fract_x
  _atom_site_fract_y
  _atom_site_fract_z
  _atom_site_occupancy
  Ag  Ag1       1.0  0.89242  0.07108  0.08422  1.0000
  Ag  Ag2       1.0  0.10757  0.92891  0.91577  1.0000
  H   H1        1.0  0.31419  0.00830  0.68460  1.0000
  H   H2        1.0  0.68580  0.99170  0.31540  1.0000
  H   H3        1.0  0.24898  0.14085  0.50606  1.0000
  H   H4        1.0  0.75107  0.85919  0.49396  1.0000
  H   H5        1.0  0.92435  0.27936  0.50340  1.0000
  H   H6        1.0  0.07571  0.72067  0.49662  1.0000
  H   H7        1.0  0.68964  0.28465  0.68095  1.0000
  H   H8        1.0  0.31037  0.71536  0.31904  1.0000
  H   H9        1.0  0.59264  0.33356  0.00052  1.0000
  H   H10       1.0  0.40735  0.66644  0.99948  1.0000
  H   H11       1.0  0.66591  0.37506  0.85428  1.0000
  H   H12       1.0  0.33408  0.62495  0.14573  1.0000
  H   H13       1.0  0.04240  0.38324  0.07946  1.0000
  H   H14       1.0  0.95758  0.61676  0.92055  1.0000
  H   H15       1.0  0.13290  0.40423  0.93336  1.0000
  H   H16       1.0  0.86710  0.59577  0.06665  1.0000
  C   C1        1.0  0.18138  0.07331  0.68172  1.0000
  C   C2        1.0  0.81862  0.92669  0.31829  1.0000
  C   C3        1.0  0.14312  0.14630  0.58211  1.0000
  C   C4        1.0  0.85692  0.85372  0.41789  1.0000
  C   C5        1.0  0.96391  0.22368  0.58122  1.0000
  C   C6        1.0  0.03612  0.77634  0.41879  1.0000
  C   C7        1.0  0.83321  0.22694  0.68045  1.0000
  C   C8        1.0  0.16679  0.77306  0.31955  1.0000
  C   C9        1.0  0.88752  0.15330  0.77858  1.0000
  C   C10       1.0  0.11247  0.84671  0.22141  1.0000
  C   C11       1.0  0.73248  0.33539  0.93758  1.0000
  C   C12       1.0  0.26752  0.66462  0.06242  1.0000
  C   C13       1.0  0.99400  0.42124  0.99201  1.0000
  C   C14       1.0  0.00599  0.57877  0.00800  1.0000
  C   C15       1.0  0.54786  0.42057  0.31530  1.0000
  C   C16       1.0  0.45210  0.57940  0.68471  1.0000
  S   S1        1.0  0.70962  0.14870  0.90280  1.0000
  S   S2        1.0  0.29037  0.85131  0.09719  1.0000
  S   S3        1.0  0.52608  0.23772  0.25078  1.0000
  S   S4        1.0  0.47395  0.76228  0.74919  1.0000
  N   N1        1.0  0.05753  0.07702  0.77904  1.0000
  N   N2        1.0  0.94246  0.92297  0.22095  1.0000
  O   O1        1.0  0.35725  0.22300  0.13797  1.0000
  O   O2        1.0  0.64275  0.77700  0.86200  1.0000
  O   O3        1.0  0.42848  0.14905  0.34311  1.0000
  O   O4        1.0  0.57158  0.85091  0.65685  1.0000
  O   O5        1.0  0.78746  0.24486  0.23377  1.0000
  O   O6        1.0  0.21257  0.75517  0.76617  1.0000
  F   F1        1.0  0.65028  0.51674  0.23971  1.0000
  F   F2        1.0  0.34968  0.48328  0.76034  1.0000
  F   F3        1.0  0.31816  0.43810  0.33136  1.0000
  F   F4        1.0  0.68177  0.56183  0.66865  1.0000
  F   F5        1.0  0.69530  0.45120  0.42340  1.0000
  F   F6        1.0  0.30462  0.54874  0.57662  1.0000
