data_image0
_chemical_formula_structural       Cu4H12C24N8Cl4O16
_chemical_formula_sum              "Cu4 H12 C24 N8 Cl4 O16"
_cell_length_a       7.94512
_cell_length_b       9.39433
_cell_length_c       10.7092
_cell_angle_alpha    90.0002
_cell_angle_beta     89.9999
_cell_angle_gamma    89.9998

_space_group_name_H-M_alt    "P 1"
_space_group_IT_number       1

loop_
  _space_group_symop_operation_xyz
  'x, y, z'

loop_
  _atom_site_type_symbol
  _atom_site_label
  _atom_site_symmetry_multiplicity
  _atom_site_fract_x
  _atom_site_fract_y
  _atom_site_fract_z
  _atom_site_occupancy
  Cu  Cu1       1.0  0.24808  0.24386  0.22421  1.0000
  Cu  Cu2       1.0  0.74808  0.75614  0.77579  1.0000
  Cu  Cu3       1.0  0.74809  0.25614  0.72420  1.0000
  Cu  Cu4       1.0  0.24808  0.74386  0.27579  1.0000
  H   H1        1.0  0.97150  0.43076  0.14328  1.0000
  H   H2        1.0  0.47150  0.56924  0.85672  1.0000
  H   H3        1.0  0.47150  0.06924  0.64328  1.0000
  H   H4        1.0  0.97150  0.93076  0.35672  1.0000
  H   H5        1.0  0.26397  0.07506  0.46346  1.0000
  H   H6        1.0  0.76397  0.92494  0.53654  1.0000
  H   H7        1.0  0.76397  0.42494  0.96346  1.0000
  H   H8        1.0  0.26397  0.57506  0.03654  1.0000
  H   H9        1.0  0.75798  0.50932  0.32599  1.0000
  H   H10       1.0  0.25799  0.49068  0.67400  1.0000
  H   H11       1.0  0.25799  0.99068  0.82599  1.0000
  H   H12       1.0  0.75799  0.00932  0.17401  1.0000
  C   C1        1.0  0.98737  0.35826  0.06495  1.0000
  C   C2        1.0  0.48737  0.64174  0.93505  1.0000
  C   C3        1.0  0.48737  0.14174  0.56495  1.0000
  C   C4        1.0  0.98737  0.85827  0.43505  1.0000
  C   C5        1.0  0.37620  0.14094  0.46442  1.0000
  C   C6        1.0  0.87620  0.85906  0.53558  1.0000
  C   C7        1.0  0.87620  0.35906  0.96442  1.0000
  C   C8        1.0  0.37620  0.64094  0.03558  1.0000
  C   C9        1.0  0.53668  0.31573  0.36543  1.0000
  C   C10       1.0  0.03668  0.68427  0.63457  1.0000
  C   C11       1.0  0.03668  0.18427  0.86543  1.0000
  C   C12       1.0  0.53668  0.81573  0.13457  1.0000
  C   C13       1.0  0.14139  0.17566  0.97113  1.0000
  C   C14       1.0  0.64139  0.82434  0.02887  1.0000
  C   C15       1.0  0.64139  0.32434  0.47113  1.0000
  C   C16       1.0  0.14139  0.67566  0.52887  1.0000
  C   C17       1.0  0.27481  0.06437  0.99945  1.0000
  C   C18       1.0  0.77481  0.93563  0.00055  1.0000
  C   C19       1.0  0.77481  0.43564  0.49945  1.0000
  C   C20       1.0  0.27481  0.56437  0.50055  1.0000
  C   C21       1.0  0.54972  0.39634  0.24270  1.0000
  C   C22       1.0  0.04972  0.60366  0.75730  1.0000
  C   C23       1.0  0.04973  0.10366  0.74270  1.0000
  C   C24       1.0  0.54972  0.89634  0.25730  1.0000
  N   N1        1.0  0.11412  0.26549  0.06770  1.0000
  N   N2        1.0  0.61412  0.73451  0.93230  1.0000
  N   N3        1.0  0.61413  0.23451  0.56770  1.0000
  N   N4        1.0  0.11412  0.76549  0.43230  1.0000
  N   N5        1.0  0.40332  0.22661  0.36752  1.0000
  N   N6        1.0  0.90332  0.77339  0.63249  1.0000
  N   N7        1.0  0.90332  0.27339  0.86751  1.0000
  N   N8        1.0  0.40332  0.72661  0.13249  1.0000
  Cl  Cl1       1.0  0.01683  0.20571  0.33835  1.0000
  Cl  Cl2       1.0  0.51683  0.79429  0.66166  1.0000
  Cl  Cl3       1.0  0.51684  0.29429  0.83834  1.0000
  Cl  Cl4       1.0  0.01683  0.70571  0.16166  1.0000
  O   O1        1.0  0.43471  0.37075  0.16346  1.0000
  O   O2        1.0  0.93471  0.62924  0.83654  1.0000
  O   O3        1.0  0.93472  0.12924  0.66345  1.0000
  O   O4        1.0  0.43471  0.87076  0.33654  1.0000
  O   O5        1.0  0.66986  0.48138  0.22133  1.0000
  O   O6        1.0  0.16987  0.51862  0.77867  1.0000
  O   O7        1.0  0.16987  0.01862  0.72133  1.0000
  O   O8        1.0  0.66987  0.98138  0.27867  1.0000
  O   O9        1.0  0.31844  0.97175  0.91574  1.0000
  O   O10       1.0  0.81844  0.02825  0.08426  1.0000
  O   O11       1.0  0.81843  0.52825  0.41574  1.0000
  O   O12       1.0  0.31844  0.47175  0.58426  1.0000
  O   O13       1.0  0.33381  0.06181  0.10701  1.0000
  O   O14       1.0  0.83381  0.93819  0.89300  1.0000
  O   O15       1.0  0.83380  0.43820  0.60701  1.0000
  O   O16       1.0  0.33381  0.56181  0.39299  1.0000
