data_image0
_chemical_formula_structural       Al4H44C28
_chemical_formula_sum              "Al4 H44 C28"
_cell_length_a       6.32199
_cell_length_b       9.07552
_cell_length_c       11.9241
_cell_angle_alpha    90.0024
_cell_angle_beta     99.1092
_cell_angle_gamma    90.0002

_space_group_name_H-M_alt    "P 1"
_space_group_IT_number       1

loop_
  _space_group_symop_operation_xyz
  'x, y, z'

loop_
  _atom_site_type_symbol
  _atom_site_label
  _atom_site_symmetry_multiplicity
  _atom_site_fract_x
  _atom_site_fract_y
  _atom_site_fract_z
  _atom_site_occupancy
  Al  Al1       1.0  0.21973  0.21751  0.13434  1.0000
  Al  Al2       1.0  0.28027  0.71749  0.36567  1.0000
  Al  Al3       1.0  0.78027  0.78247  0.86566  1.0000
  Al  Al4       1.0  0.71972  0.28251  0.63434  1.0000
  H   H1        1.0  0.54794  0.05657  0.20615  1.0000
  H   H2        1.0  0.95205  0.55654  0.29386  1.0000
  H   H3        1.0  0.45206  0.94344  0.79387  1.0000
  H   H4        1.0  0.04793  0.44345  0.70613  1.0000
  H   H5        1.0  0.22669  0.87827  0.11671  1.0000
  H   H6        1.0  0.27333  0.37826  0.38330  1.0000
  H   H7        1.0  0.77334  0.12174  0.88330  1.0000
  H   H8        1.0  0.72667  0.62173  0.61669  1.0000
  H   H9        1.0  0.55163  0.36221  0.23256  1.0000
  H   H10       1.0  0.94834  0.86220  0.26743  1.0000
  H   H11       1.0  0.44835  0.63780  0.76741  1.0000
  H   H12       1.0  0.05165  0.13780  0.73257  1.0000
  H   H13       1.0  0.38188  0.51868  0.04556  1.0000
  H   H14       1.0  0.11812  0.01869  0.45444  1.0000
  H   H15       1.0  0.61811  0.48134  0.95442  1.0000
  H   H16       1.0  0.88188  0.98131  0.54556  1.0000
  H   H17       1.0  0.46664  0.15543  0.40884  1.0000
  H   H18       1.0  0.03333  0.65540  0.09117  1.0000
  H   H19       1.0  0.53335  0.84458  0.59117  1.0000
  H   H20       1.0  0.96667  0.34460  0.90884  1.0000
  H   H21       1.0  0.32652  0.28354  0.93639  1.0000
  H   H22       1.0  0.17349  0.78352  0.56362  1.0000
  H   H23       1.0  0.67350  0.71647  0.06362  1.0000
  H   H24       1.0  0.82651  0.21646  0.43638  1.0000
  H   H25       1.0  0.21477  0.10455  0.93635  1.0000
  H   H26       1.0  0.28525  0.60453  0.56365  1.0000
  H   H27       1.0  0.78523  0.89546  0.06365  1.0000
  H   H28       1.0  0.71475  0.39545  0.43635  1.0000
  H   H29       1.0  0.48320  0.13594  0.00017  1.0000
  H   H30       1.0  0.01682  0.63595  0.49984  1.0000
  H   H31       1.0  0.51680  0.86405  0.99983  1.0000
  H   H32       1.0  0.98318  0.36404  0.50017  1.0000
  H   H33       1.0  0.82645  0.13815  0.08877  1.0000
  H   H34       1.0  0.67355  0.63813  0.41124  1.0000
  H   H35       1.0  0.17356  0.86185  0.91122  1.0000
  H   H36       1.0  0.32644  0.36186  0.58877  1.0000
  H   H37       1.0  0.88227  0.20329  0.23097  1.0000
  H   H38       1.0  0.61771  0.70328  0.26904  1.0000
  H   H39       1.0  0.11773  0.79671  0.76902  1.0000
  H   H40       1.0  0.38229  0.29671  0.73097  1.0000
  H   H41       1.0  0.84177  0.33026  0.11612  1.0000
  H   H42       1.0  0.65821  0.83024  0.38388  1.0000
  H   H43       1.0  0.15823  0.66974  0.88387  1.0000
  H   H44       1.0  0.34178  0.16974  0.61613  1.0000
  C   C1        1.0  0.39879  0.04024  0.23975  1.0000
  C   C2        1.0  0.10122  0.54024  0.26026  1.0000
  C   C3        1.0  0.60121  0.95977  0.76026  1.0000
  C   C4        1.0  0.89877  0.45977  0.73974  1.0000
  C   C5        1.0  0.24056  0.93393  0.19809  1.0000
  C   C6        1.0  0.25946  0.43393  0.30191  1.0000
  C   C7        1.0  0.75946  0.06606  0.80191  1.0000
  C   C8        1.0  0.74055  0.56607  0.69809  1.0000
  C   C9        1.0  0.39103  0.41001  0.21702  1.0000
  C   C10       1.0  0.10895  0.91001  0.28299  1.0000
  C   C11       1.0  0.60897  0.59001  0.78297  1.0000
  C   C12       1.0  0.89105  0.08998  0.71702  1.0000
  C   C13       1.0  0.31246  0.50679  0.12266  1.0000
  C   C14       1.0  0.18753  0.00678  0.37735  1.0000
  C   C15       1.0  0.68755  0.49323  0.87732  1.0000
  C   C16       1.0  0.81248  0.99322  0.62266  1.0000
  C   C17       1.0  0.36580  0.08068  0.35279  1.0000
  C   C18       1.0  0.13419  0.58068  0.14723  1.0000
  C   C19       1.0  0.63418  0.91933  0.64722  1.0000
  C   C20       1.0  0.86583  0.41932  0.85277  1.0000
  C   C21       1.0  0.32134  0.18349  0.98781  1.0000
  C   C22       1.0  0.17862  0.68352  0.51218  1.0000
  C   C23       1.0  0.67867  0.81651  0.01219  1.0000
  C   C24       1.0  0.82138  0.31647  0.48782  1.0000
  C   C25       1.0  0.91232  0.22310  0.14394  1.0000
  C   C26       1.0  0.58766  0.72313  0.35605  1.0000
  C   C27       1.0  0.08768  0.77690  0.85606  1.0000
  C   C28       1.0  0.41233  0.27686  0.64397  1.0000
