data_image0
_chemical_formula_structural       Mn2H24C32N4Cl4O8
_chemical_formula_sum              "Mn2 H24 C32 N4 Cl4 O8"
_cell_length_a       7.40062
_cell_length_b       11.2646
_cell_length_c       11.2635
_cell_angle_alpha    60.4218
_cell_angle_beta     87.2893
_cell_angle_gamma    87.2912

_space_group_name_H-M_alt    "P 1"
_space_group_IT_number       1

loop_
  _space_group_symop_operation_xyz
  'x, y, z'

loop_
  _atom_site_type_symbol
  _atom_site_label
  _atom_site_symmetry_multiplicity
  _atom_site_fract_x
  _atom_site_fract_y
  _atom_site_fract_z
  _atom_site_occupancy
  Mn  Mn1       1.0  0.25000  0.61444  0.38556  1.0000
  Mn  Mn2       1.0  0.75000  0.38557  0.61444  1.0000
  H   H1        1.0  0.10377  0.41038  0.23409  1.0000
  H   H2        1.0  0.39626  0.76589  0.58963  1.0000
  H   H3        1.0  0.89623  0.58961  0.76592  1.0000
  H   H4        1.0  0.60375  0.23409  0.41039  1.0000
  H   H5        1.0  0.00448  0.57279  0.11960  1.0000
  H   H6        1.0  0.49554  0.88036  0.42721  1.0000
  H   H7        1.0  0.99553  0.42720  0.88040  1.0000
  H   H8        1.0  0.50445  0.11963  0.57281  1.0000
  H   H9        1.0  0.03239  0.83102  0.45675  1.0000
  H   H10       1.0  0.46760  0.54327  0.16896  1.0000
  H   H11       1.0  0.96760  0.16897  0.54325  1.0000
  H   H12       1.0  0.53242  0.45673  0.83102  1.0000
  H   H13       1.0  0.93088  0.07877  0.33480  1.0000
  H   H14       1.0  0.56912  0.66524  0.92118  1.0000
  H   H15       1.0  0.06910  0.92122  0.66521  1.0000
  H   H16       1.0  0.43088  0.33477  0.07881  1.0000
  H   H17       1.0  0.01331  0.22272  0.08775  1.0000
  H   H18       1.0  0.48669  0.91226  0.77724  1.0000
  H   H19       1.0  0.98668  0.77728  0.91226  1.0000
  H   H20       1.0  0.51329  0.08774  0.22276  1.0000
  H   H21       1.0  0.16068  0.23740  0.87188  1.0000
  H   H22       1.0  0.33936  0.12810  0.76258  1.0000
  H   H23       1.0  0.83931  0.76260  0.12812  1.0000
  H   H24       1.0  0.66063  0.87191  0.23742  1.0000
  C   C1        1.0  0.91732  0.48682  0.33237  1.0000
  C   C2        1.0  0.58272  0.66762  0.51321  1.0000
  C   C3        1.0  0.08269  0.51318  0.66764  1.0000
  C   C4        1.0  0.41730  0.33238  0.48681  1.0000
  C   C5        1.0  0.97797  0.47284  0.20826  1.0000
  C   C6        1.0  0.52203  0.79173  0.52716  1.0000
  C   C7        1.0  0.02203  0.52715  0.79174  1.0000
  C   C8        1.0  0.47797  0.20827  0.47285  1.0000
  C   C9        1.0  0.06453  0.89721  0.34855  1.0000
  C   C10       1.0  0.43543  0.65150  0.10275  1.0000
  C   C11       1.0  0.93545  0.10278  0.65146  1.0000
  C   C12       1.0  0.56457  0.34851  0.89724  1.0000
  C   C13       1.0  0.00902  0.03567  0.27993  1.0000
  C   C14       1.0  0.49098  0.72007  0.96429  1.0000
  C   C15       1.0  0.99097  0.96433  0.72005  1.0000
  C   C16       1.0  0.50902  0.27992  0.03570  1.0000
  C   C17       1.0  0.05420  0.11498  0.14285  1.0000
  C   C18       1.0  0.44577  0.85719  0.88497  1.0000
  C   C19       1.0  0.94578  0.88501  0.85716  1.0000
  C   C20       1.0  0.55421  0.14283  0.11501  1.0000
  C   C21       1.0  0.15183  0.05557  0.07376  1.0000
  C   C22       1.0  0.34816  0.92624  0.94439  1.0000
  C   C23       1.0  0.84815  0.94444  0.92624  1.0000
  C   C24       1.0  0.65183  0.07376  0.05560  1.0000
  C   C25       1.0  0.20101  0.91471  0.15152  1.0000
  C   C26       1.0  0.29896  0.84848  0.08527  1.0000
  C   C27       1.0  0.79897  0.08530  0.84848  1.0000
  C   C28       1.0  0.70104  0.15152  0.91472  1.0000
  C   C29       1.0  0.20180  0.13014  0.93163  1.0000
  C   C30       1.0  0.29822  0.06834  0.86983  1.0000
  C   C31       1.0  0.79818  0.86986  0.06838  1.0000
  C   C32       1.0  0.70177  0.93166  0.13016  1.0000
  N   N1        1.0  0.15872  0.83875  0.28654  1.0000
  N   N2        1.0  0.34127  0.71346  0.16123  1.0000
  N   N3        1.0  0.84129  0.16124  0.71345  1.0000
  N   N4        1.0  0.65874  0.28653  0.83877  1.0000
  Cl  Cl1       1.0  0.81791  0.39171  0.15851  1.0000
  Cl  Cl2       1.0  0.68212  0.84147  0.60830  1.0000
  Cl  Cl3       1.0  0.18209  0.60829  0.84151  1.0000
  Cl  Cl4       1.0  0.31789  0.15852  0.39171  1.0000
  O   O1        1.0  0.98072  0.58703  0.33677  1.0000
  O   O2        1.0  0.51931  0.66321  0.41297  1.0000
  O   O3        1.0  0.01932  0.41300  0.66321  1.0000
  O   O4        1.0  0.48070  0.33679  0.58704  1.0000
  O   O5        1.0  0.81558  0.39696  0.42244  1.0000
  O   O6        1.0  0.68444  0.57757  0.60306  1.0000
  O   O7        1.0  0.18445  0.60307  0.57756  1.0000
  O   O8        1.0  0.31558  0.42244  0.39694  1.0000
