data_image0
_chemical_formula_structural       Ni4H52C44N12O24
_chemical_formula_sum              "Ni4 H52 C44 N12 O24"
_cell_length_a       7.85282
_cell_length_b       12.5138
_cell_length_c       14.2417
_cell_angle_alpha    90
_cell_angle_beta     90
_cell_angle_gamma    95.7283

_space_group_name_H-M_alt    "P 1"
_space_group_IT_number       1

loop_
  _space_group_symop_operation_xyz
  'x, y, z'

loop_
  _atom_site_type_symbol
  _atom_site_label
  _atom_site_symmetry_multiplicity
  _atom_site_fract_x
  _atom_site_fract_y
  _atom_site_fract_z
  _atom_site_occupancy
  Ni  Ni1       1.0  0.18605  0.75982  0.68595  1.0000
  Ni  Ni2       1.0  0.31395  0.74018  0.18595  1.0000
  Ni  Ni3       1.0  0.81395  0.24018  0.31405  1.0000
  Ni  Ni4       1.0  0.68605  0.25982  0.81405  1.0000
  H   H1        1.0  0.48992  0.52178  0.68204  1.0000
  H   H2        1.0  0.01006  0.97821  0.18204  1.0000
  H   H3        1.0  0.51008  0.47822  0.31796  1.0000
  H   H4        1.0  0.98993  0.02178  0.81796  1.0000
  H   H5        1.0  0.23784  0.28222  0.49901  1.0000
  H   H6        1.0  0.26216  0.21778  0.99901  1.0000
  H   H7        1.0  0.76217  0.71778  0.50100  1.0000
  H   H8        1.0  0.73784  0.78222  0.00099  1.0000
  H   H9        1.0  0.18100  0.61553  0.45152  1.0000
  H   H10       1.0  0.31900  0.88446  0.95152  1.0000
  H   H11       1.0  0.81900  0.38447  0.54848  1.0000
  H   H12       1.0  0.68100  0.11554  0.04848  1.0000
  H   H13       1.0  0.33636  0.00982  0.68791  1.0000
  H   H14       1.0  0.16364  0.49018  0.18791  1.0000
  H   H15       1.0  0.66364  0.99018  0.31209  1.0000
  H   H16       1.0  0.83636  0.50982  0.81210  1.0000
  H   H17       1.0  0.20069  0.02531  0.40033  1.0000
  H   H18       1.0  0.29931  0.47469  0.90033  1.0000
  H   H19       1.0  0.79932  0.97469  0.59968  1.0000
  H   H20       1.0  0.70067  0.52531  0.09968  1.0000
  H   H21       1.0  0.08725  0.82353  0.47268  1.0000
  H   H22       1.0  0.41276  0.67647  0.97268  1.0000
  H   H23       1.0  0.91274  0.17647  0.52733  1.0000
  H   H24       1.0  0.58723  0.32353  0.02732  1.0000
  H   H25       1.0  0.39174  0.73924  0.53776  1.0000
  H   H26       1.0  0.10826  0.76076  0.03776  1.0000
  H   H27       1.0  0.60826  0.26077  0.46223  1.0000
  H   H28       1.0  0.89174  0.23924  0.96223  1.0000
  H   H29       1.0  0.47898  0.70357  0.63787  1.0000
  H   H30       1.0  0.02102  0.79642  0.13787  1.0000
  H   H31       1.0  0.52102  0.29643  0.36212  1.0000
  H   H32       1.0  0.97898  0.20357  0.86212  1.0000
  H   H33       1.0  0.35404  0.12531  0.54435  1.0000
  H   H34       1.0  0.14596  0.37469  0.04435  1.0000
  H   H35       1.0  0.64597  0.87469  0.45565  1.0000
  H   H36       1.0  0.85403  0.62530  0.95566  1.0000
  H   H37       1.0  0.11030  0.57554  0.74363  1.0000
  H   H38       1.0  0.38970  0.92446  0.24363  1.0000
  H   H39       1.0  0.88970  0.42446  0.25637  1.0000
  H   H40       1.0  0.61030  0.07554  0.75637  1.0000
  H   H41       1.0  0.11726  0.65547  0.83150  1.0000
  H   H42       1.0  0.38274  0.84454  0.33150  1.0000
  H   H43       1.0  0.88274  0.34453  0.16849  1.0000
  H   H44       1.0  0.61726  0.15547  0.66849  1.0000
  H   H45       1.0  0.42611  0.88822  0.80017  1.0000
  H   H46       1.0  0.07390  0.61178  0.30017  1.0000
  H   H47       1.0  0.57390  0.11178  0.19983  1.0000
  H   H48       1.0  0.92610  0.38822  0.69983  1.0000
  H   H49       1.0  0.40653  0.76188  0.81860  1.0000
  H   H50       1.0  0.09347  0.73811  0.31860  1.0000
  H   H51       1.0  0.59347  0.23811  0.18140  1.0000
  H   H52       1.0  0.90653  0.26189  0.68140  1.0000
  C   C1        1.0  0.33898  0.58150  0.56980  1.0000
  C   C2        1.0  0.16101  0.91849  0.06980  1.0000
  C   C3        1.0  0.66102  0.41850  0.43020  1.0000
  C   C4        1.0  0.83898  0.08150  0.93020  1.0000
  C   C5        1.0  0.40653  0.50150  0.62214  1.0000
  C   C6        1.0  0.09346  0.99850  0.12213  1.0000
  C   C7        1.0  0.59347  0.49851  0.37786  1.0000
  C   C8        1.0  0.90653  0.00150  0.87786  1.0000
  C   C9        1.0  0.37479  0.39387  0.59563  1.0000
  C   C10       1.0  0.12520  0.10613  0.09563  1.0000
  C   C11       1.0  0.62521  0.60614  0.40437  1.0000
  C   C12       1.0  0.87479  0.89386  0.90437  1.0000
  C   C13       1.0  0.26622  0.36564  0.52012  1.0000
  C   C14       1.0  0.23378  0.13435  0.02012  1.0000
  C   C15       1.0  0.73378  0.63436  0.47988  1.0000
  C   C16       1.0  0.76622  0.86564  0.97988  1.0000
  C   C17       1.0  0.19471  0.44537  0.46869  1.0000
  C   C18       1.0  0.30529  0.05462  0.96869  1.0000
  C   C19       1.0  0.80529  0.55463  0.53131  1.0000
  C   C20       1.0  0.69471  0.94537  0.03131  1.0000
  C   C21       1.0  0.23423  0.55330  0.49233  1.0000
  C   C22       1.0  0.26578  0.94670  0.99233  1.0000
  C   C23       1.0  0.76578  0.44670  0.50766  1.0000
  C   C24       1.0  0.73422  0.05330  0.00767  1.0000
  C   C25       1.0  0.47220  0.31284  0.64442  1.0000
  C   C26       1.0  0.02779  0.18716  0.14442  1.0000
  C   C27       1.0  0.52780  0.68717  0.35557  1.0000
  C   C28       1.0  0.97220  0.81283  0.85557  1.0000
  C   C29       1.0  0.07530  0.41248  0.38935  1.0000
  C   C30       1.0  0.42470  0.08751  0.88935  1.0000
  C   C31       1.0  0.92470  0.58752  0.61065  1.0000
  C   C32       1.0  0.57530  0.91248  0.11065  1.0000
  C   C33       1.0  0.28318  0.98507  0.62012  1.0000
  C   C34       1.0  0.21682  0.51493  0.12012  1.0000
  C   C35       1.0  0.71682  0.01493  0.37988  1.0000
  C   C36       1.0  0.78318  0.48507  0.87988  1.0000
  C   C37       1.0  0.21307  0.99163  0.46972  1.0000
  C   C38       1.0  0.28692  0.50837  0.96973  1.0000
  C   C39       1.0  0.78693  0.00837  0.53028  1.0000
  C   C40       1.0  0.71307  0.49163  0.03028  1.0000
  C   C41       1.0  0.15898  0.89190  0.50567  1.0000
  C   C42       1.0  0.34102  0.60810  0.00567  1.0000
  C   C43       1.0  0.84103  0.10811  0.49433  1.0000
  C   C44       1.0  0.65896  0.39189  0.99433  1.0000
  N   N1        1.0  0.37351  0.69078  0.59585  1.0000
  N   N2        1.0  0.12649  0.80922  0.09585  1.0000
  N   N3        1.0  0.62649  0.30923  0.40415  1.0000
  N   N4        1.0  0.87351  0.19077  0.90415  1.0000
  N   N5        1.0  0.20393  0.88883  0.59943  1.0000
  N   N6        1.0  0.29607  0.61117  0.09943  1.0000
  N   N7        1.0  0.79607  0.11118  0.40058  1.0000
  N   N8        1.0  0.70393  0.38882  0.90057  1.0000
  N   N9        1.0  0.29060  0.04897  0.54322  1.0000
  N   N10       1.0  0.20940  0.45103  0.04322  1.0000
  N   N11       1.0  0.70940  0.95103  0.45678  1.0000
  N   N12       1.0  0.79060  0.54897  0.95679  1.0000
  O   O1        1.0  0.52837  0.33787  0.72573  1.0000
  O   O2        1.0  0.97161  0.16212  0.22573  1.0000
  O   O3        1.0  0.47164  0.66214  0.27427  1.0000
  O   O4        1.0  0.02837  0.83786  0.77427  1.0000
  O   O5        1.0  0.49883  0.22678  0.59955  1.0000
  O   O6        1.0  0.00117  0.27322  0.09955  1.0000
  O   O7        1.0  0.50117  0.77322  0.40045  1.0000
  O   O8        1.0  0.99883  0.72678  0.90045  1.0000
  O   O9        1.0  0.01500  0.31407  0.38950  1.0000
  O   O10       1.0  0.48500  0.18593  0.88951  1.0000
  O   O11       1.0  0.98501  0.68593  0.61049  1.0000
  O   O12       1.0  0.51500  0.81407  0.11049  1.0000
  O   O13       1.0  0.03956  0.48187  0.32829  1.0000
  O   O14       1.0  0.46044  0.01812  0.82829  1.0000
  O   O15       1.0  0.96044  0.51813  0.67171  1.0000
  O   O16       1.0  0.53957  0.98188  0.17171  1.0000
  O   O17       1.0  0.19007  0.62808  0.78023  1.0000
  O   O18       1.0  0.30994  0.87193  0.28023  1.0000
  O   O19       1.0  0.80993  0.37192  0.21977  1.0000
  O   O20       1.0  0.69007  0.12808  0.71977  1.0000
  O   O21       1.0  0.41766  0.81581  0.76915  1.0000
  O   O22       1.0  0.08234  0.68419  0.26915  1.0000
  O   O23       1.0  0.58234  0.18419  0.23085  1.0000
  O   O24       1.0  0.91765  0.31581  0.73085  1.0000
