data_image0
_chemical_formula_structural       Cr4Ag4H64C40N16O14
_chemical_formula_sum              "Cr4 Ag4 H64 C40 N16 O14"
_cell_length_a       8.64095
_cell_length_b       10.8142
_cell_length_c       17.4432
_cell_angle_alpha    96.6157
_cell_angle_beta     104.119
_cell_angle_gamma    113.601

_space_group_name_H-M_alt    "P 1"
_space_group_IT_number       1

loop_
  _space_group_symop_operation_xyz
  'x, y, z'

loop_
  _atom_site_type_symbol
  _atom_site_label
  _atom_site_symmetry_multiplicity
  _atom_site_fract_x
  _atom_site_fract_y
  _atom_site_fract_z
  _atom_site_occupancy
  Cr  Cr1       1.0  0.37446  0.77849  0.66289  1.0000
  Cr  Cr2       1.0  0.43323  0.72165  0.83725  1.0000
  Cr  Cr3       1.0  0.62554  0.22151  0.33712  1.0000
  Cr  Cr4       1.0  0.56678  0.27835  0.16275  1.0000
  Ag  Ag1       1.0  0.08067  0.40018  0.52530  1.0000
  Ag  Ag2       1.0  0.65516  0.09980  0.97468  1.0000
  Ag  Ag3       1.0  0.91933  0.59982  0.47470  1.0000
  Ag  Ag4       1.0  0.34484  0.90020  0.02532  1.0000
  H   H1        1.0  0.05823  0.18797  0.40757  1.0000
  H   H2        1.0  0.96325  0.31254  0.09277  1.0000
  H   H3        1.0  0.94177  0.81203  0.59243  1.0000
  H   H4        1.0  0.03675  0.68746  0.90723  1.0000
  H   H5        1.0  0.18206  0.16113  0.34428  1.0000
  H   H6        1.0  0.17632  0.33856  0.15555  1.0000
  H   H7        1.0  0.81794  0.83888  0.65572  1.0000
  H   H8        1.0  0.82368  0.66144  0.84445  1.0000
  H   H9        1.0  0.00165  0.20176  0.30586  1.0000
  H   H10       1.0  0.99383  0.29841  0.19446  1.0000
  H   H11       1.0  0.99835  0.79824  0.69414  1.0000
  H   H12       1.0  0.00617  0.70159  0.80554  1.0000
  H   H13       1.0  0.65866  0.05555  0.46859  1.0000
  H   H14       1.0  0.63379  0.44419  0.03143  1.0000
  H   H15       1.0  0.34134  0.94445  0.53141  1.0000
  H   H16       1.0  0.36621  0.55581  0.96857  1.0000
  H   H17       1.0  0.72335  0.96565  0.53922  1.0000
  H   H18       1.0  0.71816  0.53384  0.96055  1.0000
  H   H19       1.0  0.27665  0.03435  0.46078  1.0000
  H   H20       1.0  0.28185  0.46616  0.03945  1.0000
  H   H21       1.0  0.88364  0.08345  0.50112  1.0000
  H   H22       1.0  0.79824  0.41609  0.99850  1.0000
  H   H23       1.0  0.11636  0.91655  0.49889  1.0000
  H   H24       1.0  0.20176  0.58391  0.00150  1.0000
  H   H25       1.0  0.55843  0.78322  0.37336  1.0000
  H   H26       1.0  0.90129  0.71701  0.12651  1.0000
  H   H27       1.0  0.44157  0.21678  0.62664  1.0000
  H   H28       1.0  0.09871  0.28299  0.87349  1.0000
  H   H29       1.0  0.68016  0.68596  0.36480  1.0000
  H   H30       1.0  0.12855  0.81473  0.13471  1.0000
  H   H31       1.0  0.31984  0.31404  0.63520  1.0000
  H   H32       1.0  0.87145  0.18527  0.86529  1.0000
  H   H33       1.0  0.70125  0.77330  0.46220  1.0000
  H   H34       1.0  0.96578  0.72684  0.03746  1.0000
  H   H35       1.0  0.29875  0.22670  0.53780  1.0000
  H   H36       1.0  0.03422  0.27316  0.96254  1.0000
  H   H37       1.0  0.92993  0.43475  0.82645  1.0000
  H   H38       1.0  0.16930  0.06526  0.67384  1.0000
  H   H39       1.0  0.07007  0.56526  0.17355  1.0000
  H   H40       1.0  0.83070  0.93474  0.32616  1.0000
  H   H41       1.0  0.72001  0.28613  0.80364  1.0000
  H   H42       1.0  0.13144  0.21404  0.69729  1.0000
  H   H43       1.0  0.27999  0.71387  0.19636  1.0000
  H   H44       1.0  0.86856  0.78596  0.30271  1.0000
  H   H45       1.0  0.73148  0.43383  0.76624  1.0000
  H   H46       1.0  0.03216  0.06615  0.73463  1.0000
  H   H47       1.0  0.26851  0.56617  0.23376  1.0000
  H   H48       1.0  0.96784  0.93385  0.26537  1.0000
  H   H49       1.0  0.40955  0.66342  0.51138  1.0000
  H   H50       1.0  0.73489  0.83674  0.98844  1.0000
  H   H51       1.0  0.59045  0.33658  0.48862  1.0000
  H   H52       1.0  0.26511  0.16326  0.01156  1.0000
  H   H53       1.0  0.41042  0.41459  0.30519  1.0000
  H   H54       1.0  0.18892  0.08543  0.19439  1.0000
  H   H55       1.0  0.58958  0.58541  0.69481  1.0000
  H   H56       1.0  0.81108  0.91457  0.80561  1.0000
  H   H57       1.0  0.03271  0.48809  0.69031  1.0000
  H   H58       1.0  0.35424  0.01152  0.80955  1.0000
  H   H59       1.0  0.96729  0.51191  0.30969  1.0000
  H   H60       1.0  0.64576  0.98848  0.19044  1.0000
  H   H61       1.0  0.63551  0.08443  0.66513  1.0000
  H   H62       1.0  0.38670  0.41528  0.83534  1.0000
  H   H63       1.0  0.36449  0.91557  0.33487  1.0000
  H   H64       1.0  0.61330  0.58472  0.16466  1.0000
  C   C1        1.0  0.11471  0.22306  0.35953  1.0000
  C   C2        1.0  0.03188  0.27706  0.14056  1.0000
  C   C3        1.0  0.88529  0.77695  0.64047  1.0000
  C   C4        1.0  0.96812  0.72294  0.85944  1.0000
  C   C5        1.0  0.76668  0.06472  0.52115  1.0000
  C   C6        1.0  0.68028  0.43485  0.97870  1.0000
  C   C7        1.0  0.23332  0.93528  0.47885  1.0000
  C   C8        1.0  0.31972  0.56515  0.02130  1.0000
  C   C9        1.0  0.60743  0.71422  0.40127  1.0000
  C   C10       1.0  0.99132  0.78602  0.09837  1.0000
  C   C11       1.0  0.39256  0.28578  0.59873  1.0000
  C   C12       1.0  0.00869  0.21398  0.90163  1.0000
  C   C13       1.0  0.80075  0.36910  0.77955  1.0000
  C   C14       1.0  0.15283  0.13085  0.72107  1.0000
  C   C15       1.0  0.19925  0.63090  0.22045  1.0000
  C   C16       1.0  0.84717  0.86915  0.27893  1.0000
  C   C17       1.0  0.80886  0.17910  0.59070  1.0000
  C   C18       1.0  0.53890  0.32043  0.90934  1.0000
  C   C19       1.0  0.19114  0.82090  0.40930  1.0000
  C   C20       1.0  0.46110  0.67957  0.09066  1.0000
  C   C21       1.0  0.82361  0.30919  0.70456  1.0000
  C   C22       1.0  0.31026  0.19047  0.79578  1.0000
  C   C23       1.0  0.17639  0.69081  0.29543  1.0000
  C   C24       1.0  0.68974  0.80953  0.20422  1.0000
  C   C25       1.0  0.37522  0.45205  0.35555  1.0000
  C   C26       1.0  0.06638  0.04799  0.14415  1.0000
  C   C27       1.0  0.62478  0.54795  0.64445  1.0000
  C   C28       1.0  0.93362  0.95201  0.85585  1.0000
  C   C29       1.0  0.24236  0.37311  0.38705  1.0000
  C   C30       1.0  0.98144  0.12693  0.11281  1.0000
  C   C31       1.0  0.75764  0.62689  0.61295  1.0000
  C   C32       1.0  0.01856  0.87307  0.88718  1.0000
  C   C33       1.0  0.73746  0.17447  0.65534  1.0000
  C   C34       1.0  0.40808  0.32520  0.84496  1.0000
  C   C35       1.0  0.26253  0.82553  0.34465  1.0000
  C   C36       1.0  0.59192  0.67480  0.15504  1.0000
  C   C37       1.0  0.45878  0.58643  0.40488  1.0000
  C   C38       1.0  0.96662  0.91363  0.09477  1.0000
  C   C39       1.0  0.54122  0.41357  0.59512  1.0000
  C   C40       1.0  0.03338  0.08637  0.90523  1.0000
  N   N1        1.0  0.37671  0.58403  0.46189  1.0000
  N   N2        1.0  0.83065  0.91610  0.03787  1.0000
  N   N3        1.0  0.62329  0.41597  0.53811  1.0000
  N   N4        1.0  0.16935  0.08390  0.96213  1.0000
  N   N5        1.0  0.24561  0.45546  0.45225  1.0000
  N   N6        1.0  0.83780  0.04470  0.04764  1.0000
  N   N7        1.0  0.75439  0.54454  0.54775  1.0000
  N   N8        1.0  0.16220  0.95530  0.95236  1.0000
  N   N9        1.0  0.93874  0.38683  0.66903  1.0000
  N   N10       1.0  0.38281  0.11274  0.83108  1.0000
  N   N11       1.0  0.06126  0.61317  0.33097  1.0000
  N   N12       1.0  0.61718  0.88726  0.16892  1.0000
  N   N13       1.0  0.93269  0.31004  0.60021  1.0000
  N   N14       1.0  0.52211  0.18948  0.89972  1.0000
  N   N15       1.0  0.06731  0.68996  0.39979  1.0000
  N   N16       1.0  0.47789  0.81052  0.10028  1.0000
  O   O1        1.0  0.50296  0.75039  0.74995  1.0000
  O   O2        1.0  0.49704  0.24961  0.25005  1.0000
  O   O3        1.0  0.47989  0.79887  0.59571  1.0000
  O   O4        1.0  0.58524  0.70135  0.90393  1.0000
  O   O5        1.0  0.52011  0.20113  0.40429  1.0000
  O   O6        1.0  0.41475  0.29864  0.09608  1.0000
  O   O7        1.0  0.18026  0.64332  0.62613  1.0000
  O   O8        1.0  0.41085  0.85659  0.87461  1.0000
  O   O9        1.0  0.81974  0.35668  0.37388  1.0000
  O   O10       1.0  0.58915  0.14341  0.12540  1.0000
  O   O11       1.0  0.35113  0.91664  0.69065  1.0000
  O   O12       1.0  0.24437  0.58333  0.80970  1.0000
  O   O13       1.0  0.64888  0.08336  0.30935  1.0000
  O   O14       1.0  0.75563  0.41667  0.19030  1.0000
