data_image0
_chemical_formula_structural       Ag4H64C50S4N20
_chemical_formula_sum              "Ag4 H64 C50 S4 N20"
_cell_length_a       7.91786
_cell_length_b       11.7392
_cell_length_c       16.8953
_cell_angle_alpha    81.8125
_cell_angle_beta     76.4715
_cell_angle_gamma    70.2928

_space_group_name_H-M_alt    "P 1"
_space_group_IT_number       1

loop_
  _space_group_symop_operation_xyz
  'x, y, z'

loop_
  _atom_site_type_symbol
  _atom_site_label
  _atom_site_symmetry_multiplicity
  _atom_site_fract_x
  _atom_site_fract_y
  _atom_site_fract_z
  _atom_site_occupancy
  Ag  Ag1       1.0  0.22648  0.20080  0.96150  1.0000
  Ag  Ag2       1.0  0.38889  0.29905  0.53834  1.0000
  Ag  Ag3       1.0  0.77352  0.79920  0.03850  1.0000
  Ag  Ag4       1.0  0.61111  0.70095  0.46166  1.0000
  H   H1        1.0  0.34887  0.29159  0.70179  1.0000
  H   H2        1.0  0.34224  0.20850  0.79823  1.0000
  H   H3        1.0  0.65113  0.70841  0.29821  1.0000
  H   H4        1.0  0.65776  0.79150  0.20177  1.0000
  H   H5        1.0  0.03442  0.40510  0.73010  1.0000
  H   H6        1.0  0.16980  0.09488  0.76988  1.0000
  H   H7        1.0  0.96558  0.59490  0.26990  1.0000
  H   H8        1.0  0.83020  0.90512  0.23012  1.0000
  H   H9        1.0  0.14923  0.53306  0.04680  1.0000
  H   H10       1.0  0.72892  0.96713  0.45319  1.0000
  H   H11       1.0  0.85077  0.46694  0.95320  1.0000
  H   H12       1.0  0.27108  0.03287  0.54681  1.0000
  H   H13       1.0  0.36809  0.53606  0.99451  1.0000
  H   H14       1.0  0.89862  0.96415  0.50544  1.0000
  H   H15       1.0  0.63191  0.46394  0.00549  1.0000
  H   H16       1.0  0.10138  0.03585  0.49456  1.0000
  H   H17       1.0  0.32525  0.39392  0.02318  1.0000
  H   H18       1.0  0.74214  0.10632  0.47680  1.0000
  H   H19       1.0  0.67475  0.60608  0.97682  1.0000
  H   H20       1.0  0.25786  0.89368  0.52320  1.0000
  H   H21       1.0  0.53695  0.28858  0.90230  1.0000
  H   H22       1.0  0.72766  0.21155  0.59773  1.0000
  H   H23       1.0  0.46306  0.71142  0.09770  1.0000
  H   H24       1.0  0.27234  0.78845  0.40227  1.0000
  H   H25       1.0  0.14987  0.68954  0.87294  1.0000
  H   H26       1.0  0.71254  0.81061  0.62703  1.0000
  H   H27       1.0  0.85013  0.31046  0.12706  1.0000
  H   H28       1.0  0.28746  0.18939  0.37297  1.0000
  H   H29       1.0  0.88127  0.63830  0.74235  1.0000
  H   H30       1.0  0.26228  0.86154  0.75766  1.0000
  H   H31       1.0  0.11873  0.36170  0.25765  1.0000
  H   H32       1.0  0.73772  0.13846  0.24234  1.0000
  H   H33       1.0  0.09902  0.57558  0.67828  1.0000
  H   H34       1.0  0.35335  0.92427  0.82169  1.0000
  H   H35       1.0  0.90098  0.42443  0.32172  1.0000
  H   H36       1.0  0.64665  0.07573  0.17831  1.0000
  H   H37       1.0  0.04747  0.71372  0.72393  1.0000
  H   H38       1.0  0.48557  0.78620  0.77598  1.0000
  H   H39       1.0  0.95253  0.28628  0.27607  1.0000
  H   H40       1.0  0.51443  0.21380  0.22402  1.0000
  H   H41       1.0  0.79051  0.04110  0.99290  1.0000
  H   H42       1.0  0.82443  0.45887  0.50710  1.0000
  H   H43       1.0  0.20949  0.95890  0.00710  1.0000
  H   H44       1.0  0.17558  0.54113  0.49289  1.0000
  H   H45       1.0  0.66445  0.16947  0.04861  1.0000
  H   H46       1.0  0.88240  0.33052  0.45139  1.0000
  H   H47       1.0  0.33555  0.83053  0.95139  1.0000
  H   H48       1.0  0.11760  0.66948  0.54861  1.0000
  H   H49       1.0  0.90783  0.11071  0.03929  1.0000
  H   H50       1.0  0.05768  0.38929  0.46071  1.0000
  H   H51       1.0  0.09217  0.88929  0.96071  1.0000
  H   H52       1.0  0.94232  0.61070  0.53929  1.0000
  H   H53       1.0  0.68641  0.53104  0.77469  1.0000
  H   H54       1.0  0.99244  0.96888  0.72527  1.0000
  H   H55       1.0  0.31358  0.46896  0.22531  1.0000
  H   H56       1.0  0.00757  0.03112  0.27473  1.0000
  H   H57       1.0  0.54430  0.44591  0.76810  1.0000
  H   H58       1.0  0.75849  0.05398  0.73191  1.0000
  H   H59       1.0  0.45570  0.55409  0.23190  1.0000
  H   H60       1.0  0.24151  0.94602  0.26809  1.0000
  H   H61       1.0  0.76052  0.41989  0.70197  1.0000
  H   H62       1.0  0.88263  0.08004  0.79803  1.0000
  H   H63       1.0  0.23948  0.58011  0.29803  1.0000
  H   H64       1.0  0.11737  0.91996  0.20197  1.0000
  C   C1        1.0  0.26407  0.25003  0.75000  1.0000
  C   C2        1.0  0.73593  0.74997  0.25000  1.0000
  C   C3        1.0  0.09064  0.35201  0.78216  1.0000
  C   C4        1.0  0.22496  0.14795  0.71782  1.0000
  C   C5        1.0  0.90936  0.64799  0.21784  1.0000
  C   C6        1.0  0.77503  0.85205  0.28218  1.0000
  C   C7        1.0  0.10343  0.55753  0.80613  1.0000
  C   C8        1.0  0.46721  0.94247  0.69381  1.0000
  C   C9        1.0  0.89658  0.44247  0.19387  1.0000
  C   C10       1.0  0.53279  0.05753  0.30619  1.0000
  C   C11       1.0  0.21072  0.49525  0.92185  1.0000
  C   C12       1.0  0.62792  0.00490  0.57815  1.0000
  C   C13       1.0  0.78928  0.50475  0.07815  1.0000
  C   C14       1.0  0.37208  0.99510  0.42185  1.0000
  C   C15       1.0  0.40192  0.03247  0.10490  1.0000
  C   C16       1.0  0.53962  0.46760  0.39509  1.0000
  C   C17       1.0  0.59808  0.96753  0.89510  1.0000
  C   C18       1.0  0.46038  0.53241  0.60490  1.0000
  C   C19       1.0  0.26771  0.48850  0.00064  1.0000
  C   C20       1.0  0.75676  0.01173  0.49934  1.0000
  C   C21       1.0  0.73229  0.51150  0.99936  1.0000
  C   C22       1.0  0.24324  0.98827  0.50066  1.0000
  C   C23       1.0  0.67973  0.28356  0.88979  1.0000
  C   C24       1.0  0.85301  0.21647  0.61022  1.0000
  C   C25       1.0  0.32027  0.71644  0.11021  1.0000
  C   C26       1.0  0.14699  0.78353  0.38978  1.0000
  C   C27       1.0  0.81608  0.21052  0.93272  1.0000
  C   C28       1.0  0.95928  0.28946  0.56729  1.0000
  C   C29       1.0  0.18392  0.78948  0.06728  1.0000
  C   C30       1.0  0.04072  0.71054  0.43271  1.0000
  C   C31       1.0  0.15478  0.59748  0.86759  1.0000
  C   C32       1.0  0.61994  0.90260  0.63234  1.0000
  C   C33       1.0  0.84522  0.40252  0.13241  1.0000
  C   C34       1.0  0.38006  0.09740  0.36766  1.0000
  C   C35       1.0  0.02885  0.62412  0.73367  1.0000
  C   C36       1.0  0.38702  0.87579  0.76627  1.0000
  C   C37       1.0  0.97116  0.37588  0.26633  1.0000
  C   C38       1.0  0.61298  0.12421  0.23373  1.0000
  C   C39       1.0  0.76463  0.34724  0.82689  1.0000
  C   C40       1.0  0.93876  0.15276  0.67313  1.0000
  C   C41       1.0  0.23537  0.65276  0.17311  1.0000
  C   C42       1.0  0.06124  0.84724  0.32687  1.0000
  C   C43       1.0  0.79466  0.12851  0.00735  1.0000
  C   C44       1.0  0.93044  0.37148  0.49266  1.0000
  C   C45       1.0  0.20534  0.87149  0.99265  1.0000
  C   C46       1.0  0.06956  0.62852  0.50734  1.0000
  C   C47       1.0  0.68663  0.44051  0.76454  1.0000
  C   C48       1.0  0.89190  0.05937  0.73545  1.0000
  C   C49       1.0  0.31337  0.55949  0.23546  1.0000
  C   C50       1.0  0.10810  0.94063  0.26455  1.0000
  S   S1        1.0  0.23354  0.16134  0.10824  1.0000
  S   S2        1.0  0.50341  0.33876  0.39167  1.0000
  S   S3        1.0  0.76646  0.83865  0.89176  1.0000
  S   S4        1.0  0.49659  0.66124  0.60833  1.0000
  N   N1        1.0  0.97862  0.22574  0.89747  1.0000
  N   N2        1.0  0.10185  0.27419  0.60253  1.0000
  N   N3        1.0  0.02139  0.77426  0.10253  1.0000
  N   N4        1.0  0.89815  0.72581  0.39747  1.0000
  N   N5        1.0  0.13319  0.43574  0.82444  1.0000
  N   N6        1.0  0.39346  0.06426  0.67554  1.0000
  N   N7        1.0  0.86681  0.56426  0.17556  1.0000
  N   N8        1.0  0.60654  0.93574  0.32446  1.0000
  N   N9        1.0  0.94532  0.30935  0.83296  1.0000
  N   N10       1.0  0.08774  0.19056  0.66701  1.0000
  N   N11       1.0  0.05468  0.69065  0.16704  1.0000
  N   N12       1.0  0.91226  0.80944  0.33299  1.0000
  N   N13       1.0  0.19943  0.39668  0.89456  1.0000
  N   N14       1.0  0.49062  0.10339  0.60544  1.0000
  N   N15       1.0  0.80057  0.60332  0.10544  1.0000
  N   N16       1.0  0.50938  0.89661  0.39456  1.0000
  N   N17       1.0  0.52332  0.93994  0.10553  1.0000
  N   N18       1.0  0.56900  0.56019  0.39441  1.0000
  N   N19       1.0  0.47668  0.06006  0.89447  1.0000
  N   N20       1.0  0.43100  0.43981  0.60559  1.0000
