data_image0
_chemical_formula_structural       Cu12H72C32S4N8Cl12O4
_chemical_formula_sum              "Cu12 H72 C32 S4 N8 Cl12 O4"
_cell_length_a       10.6322
_cell_length_b       11.3227
_cell_length_c       12.7492
_cell_angle_alpha    90
_cell_angle_beta     90
_cell_angle_gamma    106.883

_space_group_name_H-M_alt    "P 1"
_space_group_IT_number       1

loop_
  _space_group_symop_operation_xyz
  'x, y, z'

loop_
  _atom_site_type_symbol
  _atom_site_label
  _atom_site_symmetry_multiplicity
  _atom_site_fract_x
  _atom_site_fract_y
  _atom_site_fract_z
  _atom_site_occupancy
  Cu  Cu1       1.0  0.08125  0.79504  0.41433  1.0000
  Cu  Cu2       1.0  0.41875  0.70496  0.91433  1.0000
  Cu  Cu3       1.0  0.91875  0.20496  0.58567  1.0000
  Cu  Cu4       1.0  0.58125  0.29504  0.08567  1.0000
  Cu  Cu5       1.0  0.17678  0.46977  0.41938  1.0000
  Cu  Cu6       1.0  0.32323  0.03023  0.91938  1.0000
  Cu  Cu7       1.0  0.82323  0.53023  0.58062  1.0000
  Cu  Cu8       1.0  0.67677  0.96977  0.08062  1.0000
  Cu  Cu9       1.0  0.06633  0.53813  0.58246  1.0000
  Cu  Cu10      1.0  0.43367  0.96187  0.08246  1.0000
  Cu  Cu11      1.0  0.93367  0.46187  0.41754  1.0000
  Cu  Cu12      1.0  0.56633  0.03813  0.91754  1.0000
  H   H1        1.0  0.26503  0.24130  0.38154  1.0000
  H   H2        1.0  0.23497  0.25870  0.88154  1.0000
  H   H3        1.0  0.73497  0.75870  0.61846  1.0000
  H   H4        1.0  0.76503  0.74130  0.11846  1.0000
  H   H5        1.0  0.40278  0.35606  0.43251  1.0000
  H   H6        1.0  0.09722  0.14394  0.93251  1.0000
  H   H7        1.0  0.59722  0.64394  0.56749  1.0000
  H   H8        1.0  0.90278  0.85606  0.06749  1.0000
  H   H9        1.0  0.53995  0.29360  0.31483  1.0000
  H   H10       1.0  0.96005  0.20640  0.81483  1.0000
  H   H11       1.0  0.46005  0.70640  0.68517  1.0000
  H   H12       1.0  0.03995  0.79360  0.18517  1.0000
  H   H13       1.0  0.40225  0.17934  0.26353  1.0000
  H   H14       1.0  0.09775  0.32065  0.76353  1.0000
  H   H15       1.0  0.59775  0.82065  0.73647  1.0000
  H   H16       1.0  0.90224  0.67934  0.23647  1.0000
  H   H17       1.0  0.46939  0.55760  0.35789  1.0000
  H   H18       1.0  0.03061  0.94240  0.85789  1.0000
  H   H19       1.0  0.53061  0.44240  0.64211  1.0000
  H   H20       1.0  0.96939  0.05760  0.14210  1.0000
  H   H21       1.0  0.37966  0.59557  0.25115  1.0000
  H   H22       1.0  0.12034  0.90443  0.75115  1.0000
  H   H23       1.0  0.62035  0.40443  0.74885  1.0000
  H   H24       1.0  0.87966  0.09557  0.24885  1.0000
  H   H25       1.0  0.51473  0.53316  0.13165  1.0000
  H   H26       1.0  0.98527  0.96684  0.63165  1.0000
  H   H27       1.0  0.48527  0.46683  0.86835  1.0000
  H   H28       1.0  0.01473  0.03317  0.36835  1.0000
  H   H29       1.0  0.60670  0.49870  0.23801  1.0000
  H   H30       1.0  0.89330  0.00130  0.73802  1.0000
  H   H31       1.0  0.39330  0.50130  0.76199  1.0000
  H   H32       1.0  0.10670  0.99870  0.26199  1.0000
  H   H33       1.0  0.19494  0.44157  0.18003  1.0000
  H   H34       1.0  0.30506  0.05843  0.68003  1.0000
  H   H35       1.0  0.80506  0.55843  0.81997  1.0000
  H   H36       1.0  0.69494  0.94157  0.31996  1.0000
  H   H37       1.0  0.14446  0.29133  0.23590  1.0000
  H   H38       1.0  0.35554  0.20867  0.73590  1.0000
  H   H39       1.0  0.85554  0.70867  0.76410  1.0000
  H   H40       1.0  0.64446  0.79133  0.26409  1.0000
  H   H41       1.0  0.28317  0.22828  0.11722  1.0000
  H   H42       1.0  0.21683  0.27172  0.61722  1.0000
  H   H43       1.0  0.71684  0.77172  0.88278  1.0000
  H   H44       1.0  0.78316  0.72828  0.38278  1.0000
  H   H45       1.0  0.33016  0.37917  0.06247  1.0000
  H   H46       1.0  0.16984  0.12083  0.56247  1.0000
  H   H47       1.0  0.66985  0.62083  0.93753  1.0000
  H   H48       1.0  0.83016  0.87917  0.43753  1.0000
  H   H49       1.0  0.33059  0.73437  0.52966  1.0000
  H   H50       1.0  0.16941  0.76563  0.02966  1.0000
  H   H51       1.0  0.66941  0.26563  0.47034  1.0000
  H   H52       1.0  0.83059  0.23437  0.97034  1.0000
  H   H53       1.0  0.30876  0.84910  0.61823  1.0000
  H   H54       1.0  0.19123  0.65090  0.11823  1.0000
  H   H55       1.0  0.69123  0.15090  0.38177  1.0000
  H   H56       1.0  0.80877  0.34910  0.88177  1.0000
  H   H57       1.0  0.46199  0.87742  0.54626  1.0000
  H   H58       1.0  0.03801  0.62258  0.04626  1.0000
  H   H59       1.0  0.53801  0.12258  0.45374  1.0000
  H   H60       1.0  0.96199  0.37742  0.95374  1.0000
  H   H61       1.0  0.35532  0.91726  0.26529  1.0000
  H   H62       1.0  0.14468  0.58274  0.76529  1.0000
  H   H63       1.0  0.64468  0.08274  0.73471  1.0000
  H   H64       1.0  0.85532  0.41726  0.23471  1.0000
  H   H65       1.0  0.36611  0.77733  0.32535  1.0000
  H   H66       1.0  0.13389  0.72266  0.82535  1.0000
  H   H67       1.0  0.63389  0.22266  0.67465  1.0000
  H   H68       1.0  0.86611  0.27734  0.17465  1.0000
  H   H69       1.0  0.48853  0.92251  0.35448  1.0000
  H   H70       1.0  0.01147  0.57749  0.85448  1.0000
  H   H71       1.0  0.51147  0.07749  0.64552  1.0000
  H   H72       1.0  0.98852  0.42251  0.14552  1.0000
  C   C1        1.0  0.35029  0.31867  0.36005  1.0000
  C   C2        1.0  0.14971  0.18133  0.86005  1.0000
  C   C3        1.0  0.64971  0.68132  0.63995  1.0000
  C   C4        1.0  0.85029  0.81868  0.13995  1.0000
  C   C5        1.0  0.44096  0.27760  0.28247  1.0000
  C   C6        1.0  0.05904  0.22240  0.78247  1.0000
  C   C7        1.0  0.55904  0.72240  0.71753  1.0000
  C   C8        1.0  0.94096  0.77760  0.21753  1.0000
  C   C9        1.0  0.41676  0.52288  0.28481  1.0000
  C   C10       1.0  0.08325  0.97713  0.78481  1.0000
  C   C11       1.0  0.58324  0.47712  0.71519  1.0000
  C   C12       1.0  0.91675  0.02288  0.21519  1.0000
  C   C13       1.0  0.50740  0.48256  0.20595  1.0000
  C   C14       1.0  0.99260  0.01744  0.70596  1.0000
  C   C15       1.0  0.49260  0.51744  0.79404  1.0000
  C   C16       1.0  0.00740  0.98256  0.29405  1.0000
  C   C17       1.0  0.23029  0.36809  0.21403  1.0000
  C   C18       1.0  0.26971  0.13192  0.71403  1.0000
  C   C19       1.0  0.76971  0.63191  0.78597  1.0000
  C   C20       1.0  0.73029  0.86809  0.28597  1.0000
  C   C21       1.0  0.32080  0.32683  0.13591  1.0000
  C   C22       1.0  0.17920  0.17317  0.63591  1.0000
  C   C23       1.0  0.67920  0.67317  0.86409  1.0000
  C   C24       1.0  0.82080  0.82683  0.36409  1.0000
  C   C25       1.0  0.35506  0.83408  0.54457  1.0000
  C   C26       1.0  0.14494  0.66592  0.04457  1.0000
  C   C27       1.0  0.64494  0.16592  0.45543  1.0000
  C   C28       1.0  0.85506  0.33408  0.95543  1.0000
  C   C29       1.0  0.38522  0.87701  0.33595  1.0000
  C   C30       1.0  0.11478  0.62299  0.83595  1.0000
  C   C31       1.0  0.61478  0.12299  0.66405  1.0000
  C   C32       1.0  0.88522  0.37701  0.16405  1.0000
  S   S1        1.0  0.28485  0.90214  0.44177  1.0000
  S   S2        1.0  0.21515  0.59786  0.94177  1.0000
  S   S3        1.0  0.71515  0.09786  0.55823  1.0000
  S   S4        1.0  0.78485  0.40214  0.05823  1.0000
  N   N1        1.0  0.30167  0.41695  0.31255  1.0000
  N   N2        1.0  0.19833  0.08305  0.81255  1.0000
  N   N3        1.0  0.69833  0.58305  0.68745  1.0000
  N   N4        1.0  0.80167  0.91695  0.18745  1.0000
  N   N5        1.0  0.45413  0.34819  0.18217  1.0000
  N   N6        1.0  0.04587  0.15181  0.68217  1.0000
  N   N7        1.0  0.54588  0.65181  0.81783  1.0000
  N   N8        1.0  0.95413  0.84819  0.31783  1.0000
  Cl  Cl1       1.0  0.01022  0.72177  0.58358  1.0000
  Cl  Cl2       1.0  0.48978  0.77823  0.08358  1.0000
  Cl  Cl3       1.0  0.98978  0.27823  0.41643  1.0000
  Cl  Cl4       1.0  0.51022  0.22177  0.91642  1.0000
  Cl  Cl5       1.0  0.26509  0.50581  0.58360  1.0000
  Cl  Cl6       1.0  0.23491  0.99419  0.08360  1.0000
  Cl  Cl7       1.0  0.73491  0.49419  0.41640  1.0000
  Cl  Cl8       1.0  0.76509  0.00581  0.91640  1.0000
  Cl  Cl9       1.0  0.89369  0.38774  0.67475  1.0000
  Cl  Cl10      1.0  0.60631  0.11226  0.17475  1.0000
  Cl  Cl11      1.0  0.10631  0.61226  0.32525  1.0000
  Cl  Cl12      1.0  0.39369  0.88774  0.82525  1.0000
  O   O1        1.0  0.32082  0.03875  0.46180  1.0000
  O   O2        1.0  0.17918  0.46125  0.96180  1.0000
  O   O3        1.0  0.67918  0.96125  0.53820  1.0000
  O   O4        1.0  0.82082  0.53875  0.03820  1.0000
