data_image0
_chemical_formula_structural       Sn4H52C36N4O8
_chemical_formula_sum              "Sn4 H52 C36 N4 O8"
_cell_length_a       6.68059
_cell_length_b       12.8457
_cell_length_c       13.4667
_cell_angle_alpha    71.41
_cell_angle_beta     77.5305
_cell_angle_gamma    75.4563

_space_group_name_H-M_alt    "P 1"
_space_group_IT_number       1

loop_
  _space_group_symop_operation_xyz
  'x, y, z'

loop_
  _atom_site_type_symbol
  _atom_site_label
  _atom_site_symmetry_multiplicity
  _atom_site_fract_x
  _atom_site_fract_y
  _atom_site_fract_z
  _atom_site_occupancy
  Sn  Sn1       1.0  0.25505  0.97289  0.74128  1.0000
  Sn  Sn2       1.0  0.97881  0.52658  0.76158  1.0000
  Sn  Sn3       1.0  0.74494  0.02712  0.25872  1.0000
  Sn  Sn4       1.0  0.02119  0.47341  0.23842  1.0000
  H   H1        1.0  0.56371  0.80740  0.69238  1.0000
  H   H2        1.0  0.08394  0.69602  0.80596  1.0000
  H   H3        1.0  0.43629  0.19261  0.30761  1.0000
  H   H4        1.0  0.91610  0.30396  0.19406  1.0000
  H   H5        1.0  0.67431  0.89295  0.73855  1.0000
  H   H6        1.0  0.31759  0.60211  0.77255  1.0000
  H   H7        1.0  0.32568  0.10707  0.26145  1.0000
  H   H8        1.0  0.68243  0.39787  0.22748  1.0000
  H   H9        1.0  0.53388  0.79179  0.83073  1.0000
  H   H10       1.0  0.17925  0.70023  0.67073  1.0000
  H   H11       1.0  0.46614  0.20822  0.16925  1.0000
  H   H12       1.0  0.82078  0.29974  0.32929  1.0000
  H   H13       1.0  0.00140  0.05652  0.58488  1.0000
  H   H14       1.0  0.65817  0.44468  0.91116  1.0000
  H   H15       1.0  0.99859  0.94348  0.41512  1.0000
  H   H16       1.0  0.34179  0.55532  0.08884  1.0000
  H   H17       1.0  0.23786  0.96878  0.54400  1.0000
  H   H18       1.0  0.77710  0.52499  0.95989  1.0000
  H   H19       1.0  0.76214  0.03123  0.45599  1.0000
  H   H20       1.0  0.22289  0.47500  0.04011  1.0000
  H   H21       1.0  0.03236  0.90807  0.63465  1.0000
  H   H22       1.0  0.59972  0.59364  0.86610  1.0000
  H   H23       1.0  0.96764  0.09194  0.36535  1.0000
  H   H24       1.0  0.40027  0.40637  0.13389  1.0000
  H   H25       1.0  0.03078  0.15665  0.79792  1.0000
  H   H26       1.0  0.99725  0.33983  0.70497  1.0000
  H   H27       1.0  0.96922  0.84337  0.20207  1.0000
  H   H28       1.0  0.00278  0.66017  0.29501  1.0000
  H   H29       1.0  0.10932  0.05112  0.91303  1.0000
  H   H30       1.0  0.05122  0.44981  0.58873  1.0000
  H   H31       1.0  0.89067  0.94888  0.08696  1.0000
  H   H32       1.0  0.94878  0.55021  0.41126  1.0000
  H   H33       1.0  0.29173  0.13327  0.82511  1.0000
  H   H34       1.0  0.25117  0.37459  0.66992  1.0000
  H   H35       1.0  0.70825  0.86674  0.17488  1.0000
  H   H36       1.0  0.74884  0.62543  0.33007  1.0000
  H   H37       1.0  0.46787  0.91119  0.97899  1.0000
  H   H38       1.0  0.35090  0.59689  0.51426  1.0000
  H   H39       1.0  0.53213  0.08881  0.02100  1.0000
  H   H40       1.0  0.64908  0.40311  0.48576  1.0000
  H   H41       1.0  0.29890  0.76932  0.12700  1.0000
  H   H42       1.0  0.19250  0.74153  0.36093  1.0000
  H   H43       1.0  0.70110  0.23068  0.87299  1.0000
  H   H44       1.0  0.80749  0.25848  0.63909  1.0000
  H   H45       1.0  0.52503  0.58925  0.21449  1.0000
  H   H46       1.0  0.33429  0.91693  0.27702  1.0000
  H   H47       1.0  0.47495  0.41074  0.78551  1.0000
  H   H48       1.0  0.66570  0.08306  0.72300  1.0000
  H   H49       1.0  0.05432  0.67876  0.00807  1.0000
  H   H50       1.0  0.75153  0.81975  0.49420  1.0000
  H   H51       1.0  0.94567  0.32123  0.99195  1.0000
  H   H52       1.0  0.24847  0.18026  0.50580  1.0000
  C   C1        1.0  0.54186  0.85201  0.75210  1.0000
  C   C2        1.0  0.16255  0.64527  0.75179  1.0000
  C   C3        1.0  0.45815  0.14800  0.24789  1.0000
  C   C4        1.0  0.83748  0.35471  0.24823  1.0000
  C   C5        1.0  0.11343  0.97858  0.61034  1.0000
  C   C6        1.0  0.72296  0.52037  0.89039  1.0000
  C   C7        1.0  0.88657  0.02143  0.38965  1.0000
  C   C8        1.0  0.27703  0.47963  0.10960  1.0000
  C   C9        1.0  0.16171  0.09343  0.83043  1.0000
  C   C10       1.0  0.08364  0.40814  0.66985  1.0000
  C   C11       1.0  0.83827  0.90658  0.16956  1.0000
  C   C12       1.0  0.91636  0.59187  0.33013  1.0000
  C   C13       1.0  0.77363  0.80455  0.98180  1.0000
  C   C14       1.0  0.56091  0.69891  0.51625  1.0000
  C   C15       1.0  0.22636  0.19545  0.01820  1.0000
  C   C16       1.0  0.43912  0.30108  0.48375  1.0000
  C   C17       1.0  0.55860  0.82996  0.01587  1.0000
  C   C18       1.0  0.40186  0.67658  0.47821  1.0000
  C   C19       1.0  0.44140  0.17004  0.98413  1.0000
  C   C20       1.0  0.59816  0.32341  0.52180  1.0000
  C   C21       1.0  0.46593  0.75154  0.09855  1.0000
  C   C22       1.0  0.31633  0.75624  0.39274  1.0000
  C   C23       1.0  0.53405  0.24847  0.90146  1.0000
  C   C24       1.0  0.68368  0.24376  0.60727  1.0000
  C   C25       1.0  0.59099  0.65100  0.14666  1.0000
  C   C26       1.0  0.39416  0.85462  0.34633  1.0000
  C   C27       1.0  0.40899  0.34901  0.85334  1.0000
  C   C28       1.0  0.60585  0.14538  0.65368  1.0000
  C   C29       1.0  0.88642  0.70078  0.03269  1.0000
  C   C30       1.0  0.62708  0.80063  0.46633  1.0000
  C   C31       1.0  0.11357  0.29921  0.96730  1.0000
  C   C32       1.0  0.37293  0.19937  0.53368  1.0000
  C   C33       1.0  0.88153  0.88901  0.89588  1.0000
  C   C34       1.0  0.66449  0.61389  0.60585  1.0000
  C   C35       1.0  0.11848  0.11099  0.10412  1.0000
  C   C36       1.0  0.33552  0.38612  0.39415  1.0000
  N   N1        1.0  0.79835  0.62590  0.11393  1.0000
  N   N2        1.0  0.54749  0.87673  0.38264  1.0000
  N   N3        1.0  0.20162  0.37409  0.88607  1.0000
  N   N4        1.0  0.45250  0.12327  0.61737  1.0000
  O   O1        1.0  0.07781  0.85281  0.86510  1.0000
  O   O2        1.0  0.80012  0.64840  0.63768  1.0000
  O   O3        1.0  0.92220  0.14718  0.13490  1.0000
  O   O4        1.0  0.19989  0.35160  0.36233  1.0000
  O   O5        1.0  0.78050  0.98559  0.86111  1.0000
  O   O6        1.0  0.61802  0.51927  0.64233  1.0000
  O   O7        1.0  0.21951  0.01440  0.13889  1.0000
  O   O8        1.0  0.38198  0.48074  0.35768  1.0000
