data_image0
_chemical_formula_structural       Sn2H26C18N2O4
_chemical_formula_sum              "Sn2 H26 C18 N2 O4"
_cell_length_a       6.39353
_cell_length_b       9.0995
_cell_length_c       9.74829
_cell_angle_alpha    79.5693
_cell_angle_beta     71.3515
_cell_angle_gamma    75.813

_space_group_name_H-M_alt    "P 1"
_space_group_IT_number       1

loop_
  _space_group_symop_operation_xyz
  'x, y, z'

loop_
  _atom_site_type_symbol
  _atom_site_label
  _atom_site_symmetry_multiplicity
  _atom_site_fract_x
  _atom_site_fract_y
  _atom_site_fract_z
  _atom_site_occupancy
  Sn  Sn1       1.0  0.28274  0.15018  0.22928  1.0000
  Sn  Sn2       1.0  0.71729  0.84979  0.77070  1.0000
  H   H1        1.0  0.58740  0.33753  0.10856  1.0000
  H   H2        1.0  0.41260  0.66246  0.89145  1.0000
  H   H3        1.0  0.65042  0.18278  0.00227  1.0000
  H   H4        1.0  0.34958  0.81721  0.99773  1.0000
  H   H5        1.0  0.42864  0.34166  0.98571  1.0000
  H   H6        1.0  0.57136  0.65833  0.01430  1.0000
  H   H7        1.0  0.12928  0.03796  0.05284  1.0000
  H   H8        1.0  0.87073  0.96205  0.94714  1.0000
  H   H9        1.0  0.02523  0.95440  0.23741  1.0000
  H   H10       1.0  0.97479  0.04559  0.76256  1.0000
  H   H11       1.0  0.88930  0.13964  0.17660  1.0000
  H   H12       1.0  0.11072  0.86036  0.82339  1.0000
  H   H13       1.0  0.36709  0.23828  0.45435  1.0000
  H   H14       1.0  0.63288  0.76172  0.54564  1.0000
  H   H15       1.0  0.08283  0.20877  0.50972  1.0000
  H   H16       1.0  0.91716  0.79120  0.49028  1.0000
  H   H17       1.0  0.31217  0.04891  0.50237  1.0000
  H   H18       1.0  0.68784  0.95108  0.49763  1.0000
  H   H19       1.0  0.44035  0.52323  0.38028  1.0000
  H   H20       1.0  0.55965  0.47678  0.61974  1.0000
  H   H21       1.0  0.74671  0.28745  0.36178  1.0000
  H   H22       1.0  0.25328  0.71256  0.63823  1.0000
  H   H23       1.0  0.23498  0.53796  0.12789  1.0000
  H   H24       1.0  0.76501  0.46208  0.87210  1.0000
  H   H25       1.0  0.94915  0.78217  0.14116  1.0000
  H   H26       1.0  0.05081  0.21785  0.85886  1.0000
  C   C1        1.0  0.51550  0.26832  0.06132  1.0000
  C   C2        1.0  0.48450  0.73167  0.93869  1.0000
  C   C3        1.0  0.05094  0.06028  0.16670  1.0000
  C   C4        1.0  0.94906  0.93971  0.83327  1.0000
  C   C5        1.0  0.25814  0.16345  0.45150  1.0000
  C   C6        1.0  0.74185  0.83654  0.54849  1.0000
  C   C7        1.0  0.67179  0.67073  0.26166  1.0000
  C   C8        1.0  0.32821  0.32927  0.73836  1.0000
  C   C9        1.0  0.61514  0.52922  0.32246  1.0000
  C   C10       1.0  0.38486  0.47080  0.67756  1.0000
  C   C11       1.0  0.78449  0.39878  0.31124  1.0000
  C   C12       1.0  0.21549  0.60123  0.68878  1.0000
  C   C13       1.0  0.05716  0.53840  0.18266  1.0000
  C   C14       1.0  0.94285  0.46161  0.81734  1.0000
  C   C15       1.0  0.89811  0.67430  0.18943  1.0000
  C   C16       1.0  0.10187  0.32572  0.81058  1.0000
  C   C17       1.0  0.49025  0.81414  0.28139  1.0000
  C   C18       1.0  0.50976  0.18586  0.71860  1.0000
  N   N1        1.0  0.00257  0.40250  0.24219  1.0000
  N   N2        1.0  0.99742  0.59751  0.75781  1.0000
  O   O1        1.0  0.54646  0.93574  0.19943  1.0000
  O   O2        1.0  0.45356  0.06425  0.80057  1.0000
  O   O3        1.0  0.30469  0.80670  0.37369  1.0000
  O   O4        1.0  0.69527  0.19331  0.62630  1.0000
