data_image0
_chemical_formula_structural       Sn4H52C36N4O8
_chemical_formula_sum              "Sn4 H52 C36 N4 O8"
_cell_length_a       7.01459
_cell_length_b       12.2686
_cell_length_c       14.2916
_cell_angle_alpha    86.1082
_cell_angle_beta     76.2657
_cell_angle_gamma    73.3888

_space_group_name_H-M_alt    "P 1"
_space_group_IT_number       1

loop_
  _space_group_symop_operation_xyz
  'x, y, z'

loop_
  _atom_site_type_symbol
  _atom_site_label
  _atom_site_symmetry_multiplicity
  _atom_site_fract_x
  _atom_site_fract_y
  _atom_site_fract_z
  _atom_site_occupancy
  Sn  Sn1       1.0  0.27857  0.77287  0.41313  1.0000
  Sn  Sn2       1.0  0.46376  0.22741  0.58641  1.0000
  Sn  Sn3       1.0  0.80154  0.72701  0.91311  1.0000
  Sn  Sn4       1.0  0.44140  0.27284  0.08671  1.0000
  H   H1        1.0  0.57249  0.48455  0.59840  1.0000
  H   H2        1.0  0.65716  0.51447  0.40030  1.0000
  H   H3        1.0  0.80757  0.01543  0.09832  1.0000
  H   H4        1.0  0.92152  0.98580  0.90074  1.0000
  H   H5        1.0  0.65313  0.77813  0.71373  1.0000
  H   H6        1.0  0.14444  0.22012  0.28752  1.0000
  H   H7        1.0  0.18140  0.72176  0.21373  1.0000
  H   H8        1.0  0.11452  0.27999  0.78740  1.0000
  H   H9        1.0  0.66020  0.37680  0.74678  1.0000
  H   H10       1.0  0.78652  0.62193  0.25298  1.0000
  H   H11       1.0  0.78730  0.12311  0.24677  1.0000
  H   H12       1.0  0.15727  0.87824  0.75322  1.0000
  H   H13       1.0  0.45405  0.91333  0.28647  1.0000
  H   H14       1.0  0.65464  0.08613  0.71302  1.0000
  H   H15       1.0  0.11727  0.58662  0.78646  1.0000
  H   H16       1.0  0.49137  0.41388  0.21341  1.0000
  H   H17       1.0  0.64241  0.78184  0.29263  1.0000
  H   H18       1.0  0.71915  0.21700  0.70777  1.0000
  H   H19       1.0  0.17455  0.71799  0.79261  1.0000
  H   H20       1.0  0.68668  0.28294  0.20793  1.0000
  H   H21       1.0  0.56954  0.88150  0.38847  1.0000
  H   H22       1.0  0.83838  0.11781  0.61162  1.0000
  H   H23       1.0  0.20103  0.61833  0.88844  1.0000
  H   H24       1.0  0.70662  0.38235  0.11191  1.0000
  H   H25       1.0  0.74012  0.47635  0.87132  1.0000
  H   H26       1.0  0.08923  0.52196  0.13013  1.0000
  H   H27       1.0  0.96614  0.02344  0.37148  1.0000
  H   H28       1.0  0.35987  0.97800  0.63012  1.0000
  H   H29       1.0  0.08212  0.62590  0.37094  1.0000
  H   H30       1.0  0.08024  0.37436  0.62721  1.0000
  H   H31       1.0  0.45814  0.87382  0.87087  1.0000
  H   H32       1.0  0.20533  0.12563  0.12720  1.0000
  H   H33       1.0  0.28381  0.55163  0.42778  1.0000
  H   H34       1.0  0.26284  0.44900  0.57141  1.0000
  H   H35       1.0  0.58510  0.94828  0.92778  1.0000
  H   H36       1.0  0.46271  0.05113  0.07157  1.0000
  H   H37       1.0  0.34004  0.58391  0.30263  1.0000
  H   H38       1.0  0.22850  0.41621  0.69658  1.0000
  H   H39       1.0  0.67388  0.91606  0.80261  1.0000
  H   H40       1.0  0.39507  0.08399  0.19674  1.0000
  H   H41       1.0  0.89297  0.86583  0.51963  1.0000
  H   H42       1.0  0.27578  0.13319  0.47986  1.0000
  H   H43       1.0  0.50925  0.63387  0.01963  1.0000
  H   H44       1.0  0.16039  0.36714  0.97958  1.0000
  H   H45       1.0  0.05349  0.95205  0.53217  1.0000
  H   H46       1.0  0.53456  0.04707  0.46860  1.0000
  H   H47       1.0  0.75611  0.54776  0.03209  1.0000
  H   H48       1.0  0.33327  0.45306  0.96852  1.0000
  H   H49       1.0  0.06745  0.82124  0.59697  1.0000
  H   H50       1.0  0.48147  0.17736  0.40304  1.0000
  H   H51       1.0  0.63908  0.67854  0.09690  1.0000
  H   H52       1.0  0.41058  0.32259  0.90314  1.0000
  C   C1        1.0  0.60759  0.52541  0.65502  1.0000
  C   C2        1.0  0.78938  0.47331  0.34448  1.0000
  C   C3        1.0  0.88330  0.97449  0.15501  1.0000
  C   C4        1.0  0.01246  0.02688  0.84477  1.0000
  C   C5        1.0  0.65334  0.68909  0.71956  1.0000
  C   C6        1.0  0.06209  0.30927  0.28133  1.0000
  C   C7        1.0  0.09267  0.81080  0.21957  1.0000
  C   C8        1.0  0.12116  0.19084  0.78132  1.0000
  C   C9        1.0  0.65664  0.46597  0.73657  1.0000
  C   C10       1.0  0.86105  0.53266  0.26350  1.0000
  C   C11       1.0  0.87284  0.03389  0.23659  1.0000
  C   C12       1.0  0.14291  0.96750  0.76371  1.0000
  C   C13       1.0  0.53620  0.71509  0.56599  1.0000
  C   C14       1.0  0.81669  0.28399  0.43375  1.0000
  C   C15       1.0  0.00118  0.78481  0.06609  1.0000
  C   C16       1.0  0.85154  0.21628  0.93404  1.0000
  C   C17       1.0  0.60388  0.64023  0.64670  1.0000
  C   C18       1.0  0.89111  0.35836  0.35329  1.0000
  C   C19       1.0  0.99431  0.85966  0.14671  1.0000
  C   C20       1.0  0.99957  0.14183  0.85346  1.0000
  C   C21       1.0  0.51465  0.84641  0.33499  1.0000
  C   C22       1.0  0.69646  0.15306  0.66493  1.0000
  C   C23       1.0  0.11107  0.65351  0.83495  1.0000
  C   C24       1.0  0.60004  0.34702  0.16519  1.0000
  C   C25       1.0  0.70071  0.52154  0.80707  1.0000
  C   C26       1.0  0.03062  0.47683  0.19395  1.0000
  C   C27       1.0  0.97206  0.97827  0.30717  1.0000
  C   C28       1.0  0.25641  0.02325  0.69397  1.0000
  C   C29       1.0  0.24178  0.61488  0.37295  1.0000
  C   C30       1.0  0.23036  0.38558  0.62594  1.0000
  C   C31       1.0  0.60664  0.88500  0.87291  1.0000
  C   C32       1.0  0.36657  0.11456  0.12606  1.0000
  C   C33       1.0  0.04412  0.86475  0.52931  1.0000
  C   C34       1.0  0.43504  0.13426  0.47077  1.0000
  C   C35       1.0  0.65928  0.63501  0.02926  1.0000
  C   C36       1.0  0.32071  0.36590  0.97074  1.0000
  N   N1        1.0  0.69939  0.63169  0.79818  1.0000
  N   N2        1.0  0.12985  0.36654  0.20316  1.0000
  N   N3        1.0  0.08104  0.86815  0.29826  1.0000
  N   N4        1.0  0.24572  0.13351  0.70304  1.0000
  O   O1        1.0  0.47015  0.66593  0.50775  1.0000
  O   O2        1.0  0.64230  0.33299  0.49014  1.0000
  O   O3        1.0  0.88557  0.83395  0.00801  1.0000
  O   O4        1.0  0.72612  0.16744  0.99056  1.0000
  O   O5        1.0  0.54007  0.81645  0.56207  1.0000
  O   O6        1.0  0.91885  0.18305  0.43927  1.0000
  O   O7        1.0  0.10666  0.68347  0.06200  1.0000
  O   O8        1.0  0.85344  0.31713  0.93951  1.0000
