data_image0
_chemical_formula_structural       Na2H42C46S2N4O12
_chemical_formula_sum              "Na2 H42 C46 S2 N4 O12"
_cell_length_a       6.00774
_cell_length_b       8.61775
_cell_length_c       21.4
_cell_angle_alpha    99.6694
_cell_angle_beta     90
_cell_angle_gamma    90

_space_group_name_H-M_alt    "P 1"
_space_group_IT_number       1

loop_
  _space_group_symop_operation_xyz
  'x, y, z'

loop_
  _atom_site_type_symbol
  _atom_site_label
  _atom_site_symmetry_multiplicity
  _atom_site_fract_x
  _atom_site_fract_y
  _atom_site_fract_z
  _atom_site_occupancy
  Na  Na1       1.0  0.93679  0.51070  0.95283  1.0000
  Na  Na2       1.0  0.43678  0.48930  0.04717  1.0000
  H   H1        1.0  0.57539  0.84981  0.89194  1.0000
  H   H2        1.0  0.07537  0.15019  0.10806  1.0000
  H   H3        1.0  0.93498  0.87798  0.95667  1.0000
  H   H4        1.0  0.43496  0.12203  0.04333  1.0000
  H   H5        1.0  0.91101  0.15565  0.93382  1.0000
  H   H6        1.0  0.41099  0.84435  0.06619  1.0000
  H   H7        1.0  0.29130  0.73004  0.74067  1.0000
  H   H8        1.0  0.79130  0.26996  0.25932  1.0000
  H   H9        1.0  0.56072  0.76807  0.77505  1.0000
  H   H10       1.0  0.06072  0.23193  0.22495  1.0000
  H   H11       1.0  0.34618  0.91188  0.79090  1.0000
  H   H12       1.0  0.84618  0.08812  0.20910  1.0000
  H   H13       1.0  0.30858  0.47452  0.86686  1.0000
  H   H14       1.0  0.80858  0.52548  0.13314  1.0000
  H   H15       1.0  0.55030  0.52126  0.82673  1.0000
  H   H16       1.0  0.05030  0.47874  0.17327  1.0000
  H   H17       1.0  0.29556  0.47614  0.78429  1.0000
  H   H18       1.0  0.79556  0.52386  0.21571  1.0000
  H   H19       1.0  0.90834  0.97578  0.80371  1.0000
  H   H20       1.0  0.40835  0.02422  0.19629  1.0000
  H   H21       1.0  0.57423  0.26252  0.76239  1.0000
  H   H22       1.0  0.07424  0.73746  0.23761  1.0000
  H   H23       1.0  0.15419  0.14529  0.70483  1.0000
  H   H24       1.0  0.65420  0.85471  0.29518  1.0000
  H   H25       1.0  0.38237  0.30260  0.64239  1.0000
  H   H26       1.0  0.88240  0.69741  0.35761  1.0000
  H   H27       1.0  0.24109  0.55811  0.61927  1.0000
  H   H28       1.0  0.74113  0.44189  0.38073  1.0000
  H   H29       1.0  0.86533  0.65476  0.65879  1.0000
  H   H30       1.0  0.36538  0.34524  0.34122  1.0000
  H   H31       1.0  0.63464  0.49350  0.71935  1.0000
  H   H32       1.0  0.13466  0.50649  0.28066  1.0000
  H   H33       1.0  0.18634  0.87536  0.64230  1.0000
  H   H34       1.0  0.68634  0.12463  0.35770  1.0000
  H   H35       1.0  0.12527  0.70449  0.53708  1.0000
  H   H36       1.0  0.62527  0.29550  0.46292  1.0000
  H   H37       1.0  0.42002  0.68273  0.45394  1.0000
  H   H38       1.0  0.92002  0.31728  0.54605  1.0000
  H   H39       1.0  0.77192  0.83510  0.47539  1.0000
  H   H40       1.0  0.27193  0.16491  0.52460  1.0000
  H   H41       1.0  0.83076  0.00679  0.57989  1.0000
  H   H42       1.0  0.33077  0.99321  0.42011  1.0000
  C   C1        1.0  0.30931  0.70989  0.84020  1.0000
  C   C2        1.0  0.80931  0.29011  0.15980  1.0000
  C   C3        1.0  0.41324  0.80205  0.90273  1.0000
  C   C4        1.0  0.91323  0.19795  0.09727  1.0000
  C   C5        1.0  0.02469  0.90252  0.91485  1.0000
  C   C6        1.0  0.52467  0.09748  0.08515  1.0000
  C   C7        1.0  0.99752  0.07101  0.89806  1.0000
  C   C8        1.0  0.49751  0.92899  0.10194  1.0000
  C   C9        1.0  0.25671  0.07674  0.90124  1.0000
  C   C10       1.0  0.75669  0.92327  0.09876  1.0000
  C   C11       1.0  0.38091  0.78506  0.78337  1.0000
  C   C12       1.0  0.88090  0.21495  0.21662  1.0000
  C   C13       1.0  0.36838  0.53517  0.82907  1.0000
  C   C14       1.0  0.86838  0.46484  0.17093  1.0000
  C   C15       1.0  0.44183  0.70078  0.95511  1.0000
  C   C16       1.0  0.94183  0.29921  0.04489  1.0000
  C   C17       1.0  0.84232  0.21405  0.82014  1.0000
  C   C18       1.0  0.34232  0.78594  0.17986  1.0000
  C   C19       1.0  0.73967  0.20891  0.75397  1.0000
  C   C20       1.0  0.23968  0.79109  0.24603  1.0000
  C   C21       1.0  0.87825  0.30836  0.71566  1.0000
  C   C22       1.0  0.37827  0.69164  0.28434  1.0000
  C   C23       1.0  0.08928  0.25559  0.69384  1.0000
  C   C24       1.0  0.58929  0.74441  0.30616  1.0000
  C   C25       1.0  0.21816  0.34471  0.65885  1.0000
  C   C26       1.0  0.71818  0.65530  0.34116  1.0000
  C   C27       1.0  0.13818  0.48806  0.64588  1.0000
  C   C28       1.0  0.63820  0.51194  0.35412  1.0000
  C   C29       1.0  0.92795  0.54162  0.66760  1.0000
  C   C30       1.0  0.42799  0.45838  0.33241  1.0000
  C   C31       1.0  0.79788  0.45135  0.70208  1.0000
  C   C32       1.0  0.29790  0.54864  0.29793  1.0000
  C   C33       1.0  0.71329  0.05053  0.71162  1.0000
  C   C34       1.0  0.21330  0.94946  0.28838  1.0000
  C   C35       1.0  0.51273  0.94688  0.61642  1.0000
  C   C36       1.0  0.01273  0.05311  0.38358  1.0000
  C   C37       1.0  0.31361  0.86419  0.60549  1.0000
  C   C38       1.0  0.81360  0.13580  0.39451  1.0000
  C   C39       1.0  0.28120  0.76900  0.54651  1.0000
  C   C40       1.0  0.78120  0.23099  0.45348  1.0000
  C   C41       1.0  0.44603  0.75681  0.49991  1.0000
  C   C42       1.0  0.94603  0.24319  0.50009  1.0000
  C   C43       1.0  0.64440  0.84138  0.51200  1.0000
  C   C44       1.0  0.14440  0.15861  0.48799  1.0000
  C   C45       1.0  0.67900  0.93765  0.57048  1.0000
  C   C46       1.0  0.17899  0.06235  0.42952  1.0000
  S   S1        1.0  0.00279  0.73153  0.85197  1.0000
  S   S2        1.0  0.50278  0.26848  0.14803  1.0000
  N   N1        1.0  0.26482  0.93383  0.92346  1.0000
  N   N2        1.0  0.76481  0.06618  0.07654  1.0000
  N   N3        1.0  0.90796  0.07717  0.83644  1.0000
  N   N4        1.0  0.40796  0.92283  0.16357  1.0000
  O   O1        1.0  0.40197  0.16100  0.88569  1.0000
  O   O2        1.0  0.90197  0.83900  0.11431  1.0000
  O   O3        1.0  0.63774  0.67641  0.97275  1.0000
  O   O4        1.0  0.13772  0.32359  0.02724  1.0000
  O   O5        1.0  0.26569  0.65090  0.97793  1.0000
  O   O6        1.0  0.76566  0.34910  0.02206  1.0000
  O   O7        1.0  0.85734  0.34342  0.85535  1.0000
  O   O8        1.0  0.35732  0.65658  0.14465  1.0000
  O   O9        1.0  0.83721  0.93704  0.70802  1.0000
  O   O10       1.0  0.33722  0.06295  0.29198  1.0000
  O   O11       1.0  0.53272  0.05541  0.67303  1.0000
  O   O12       1.0  0.03272  0.94458  0.32697  1.0000
