data_image0
_chemical_formula_structural       La4H44C24O28
_chemical_formula_sum              "La4 H44 C24 O28"
_cell_length_a       8.54635
_cell_length_b       9.81707
_cell_length_c       13.3376
_cell_angle_alpha    87.0211
_cell_angle_beta     75.4699
_cell_angle_gamma    75.3547

_space_group_name_H-M_alt    "P 1"
_space_group_IT_number       1

loop_
  _space_group_symop_operation_xyz
  'x, y, z'

loop_
  _atom_site_type_symbol
  _atom_site_label
  _atom_site_symmetry_multiplicity
  _atom_site_fract_x
  _atom_site_fract_y
  _atom_site_fract_z
  _atom_site_occupancy
  La  La1       1.0  0.25832  0.99544  0.98283  1.0000
  La  La2       1.0  0.74168  0.00456  0.01718  1.0000
  La  La3       1.0  0.42250  0.87974  0.64655  1.0000
  La  La4       1.0  0.57749  0.12026  0.35345  1.0000
  H   H1        1.0  0.67160  0.65895  0.14536  1.0000
  H   H2        1.0  0.32841  0.34105  0.85463  1.0000
  H   H3        1.0  0.52942  0.75417  0.25313  1.0000
  H   H4        1.0  0.47060  0.24582  0.74687  1.0000
  H   H5        1.0  0.48714  0.60137  0.20860  1.0000
  H   H6        1.0  0.51288  0.39862  0.79139  1.0000
  H   H7        1.0  0.78004  0.37580  0.14809  1.0000
  H   H8        1.0  0.21997  0.62420  0.85191  1.0000
  H   H9        1.0  0.73930  0.38820  0.02402  1.0000
  H   H10       1.0  0.26070  0.61180  0.97598  1.0000
  H   H11       1.0  0.87628  0.48437  0.05178  1.0000
  H   H12       1.0  0.12371  0.51563  0.94822  1.0000
  H   H13       1.0  0.06343  0.35186  0.82389  1.0000
  H   H14       1.0  0.93658  0.64815  0.17611  1.0000
  H   H15       1.0  0.91651  0.25747  0.81532  1.0000
  H   H16       1.0  0.08350  0.74255  0.18468  1.0000
  H   H17       1.0  0.00277  0.34968  0.70457  1.0000
  H   H18       1.0  0.99724  0.65032  0.29544  1.0000
  H   H19       1.0  0.94392  0.70224  0.61241  1.0000
  H   H20       1.0  0.05607  0.29776  0.38758  1.0000
  H   H21       1.0  0.96266  0.64138  0.73676  1.0000
  H   H22       1.0  0.03733  0.35862  0.26324  1.0000
  H   H23       1.0  0.08816  0.53906  0.62368  1.0000
  H   H24       1.0  0.91183  0.46094  0.37632  1.0000
  H   H25       1.0  0.91372  0.10615  0.52225  1.0000
  H   H26       1.0  0.08628  0.89385  0.47775  1.0000
  H   H27       1.0  0.88293  0.11094  0.66018  1.0000
  H   H28       1.0  0.11707  0.88906  0.33982  1.0000
  H   H29       1.0  0.76225  0.24593  0.59444  1.0000
  H   H30       1.0  0.23774  0.75407  0.40555  1.0000
  H   H31       1.0  0.71530  0.66619  0.90809  1.0000
  H   H32       1.0  0.28469  0.33381  0.09192  1.0000
  H   H33       1.0  0.70112  0.50708  0.85396  1.0000
  H   H34       1.0  0.29887  0.49292  0.14604  1.0000
  H   H35       1.0  0.54185  0.59643  0.96060  1.0000
  H   H36       1.0  0.45815  0.40357  0.03940  1.0000
  H   H37       1.0  0.24185  0.04356  0.21988  1.0000
  H   H38       1.0  0.75815  0.95643  0.78013  1.0000
  H   H39       1.0  0.05230  0.10404  0.21337  1.0000
  H   H40       1.0  0.94770  0.89595  0.78663  1.0000
  H   H41       1.0  0.72973  0.76937  0.45709  1.0000
  H   H42       1.0  0.27026  0.23063  0.54291  1.0000
  H   H43       1.0  0.68723  0.63531  0.52380  1.0000
  H   H44       1.0  0.31276  0.36468  0.47620  1.0000
  C   C1        1.0  0.45004  0.78589  0.11278  1.0000
  C   C2        1.0  0.54997  0.21410  0.88723  1.0000
  C   C3        1.0  0.53874  0.69254  0.18459  1.0000
  C   C4        1.0  0.46127  0.30746  0.81541  1.0000
  C   C5        1.0  0.97781  0.26046  0.02943  1.0000
  C   C6        1.0  0.02219  0.73955  0.97057  1.0000
  C   C7        1.0  0.83576  0.38644  0.06530  1.0000
  C   C8        1.0  0.16424  0.61356  0.93470  1.0000
  C   C9        1.0  0.16821  0.15832  0.73845  1.0000
  C   C10       1.0  0.83179  0.84168  0.26156  1.0000
  C   C11       1.0  0.02982  0.28771  0.77151  1.0000
  C   C12       1.0  0.97019  0.71230  0.22849  1.0000
  C   C13       1.0  0.16810  0.72200  0.64953  1.0000
  C   C14       1.0  0.83189  0.27800  0.35046  1.0000
  C   C15       1.0  0.03362  0.64559  0.65621  1.0000
  C   C16       1.0  0.96637  0.35441  0.34379  1.0000
  C   C17       1.0  0.68950  0.05272  0.60726  1.0000
  C   C18       1.0  0.31050  0.94728  0.39274  1.0000
  C   C19       1.0  0.82120  0.13283  0.59646  1.0000
  C   C20       1.0  0.17880  0.86716  0.40353  1.0000
  C   C21       1.0  0.53835  0.69654  0.81531  1.0000
  C   C22       1.0  0.46163  0.30346  0.18470  1.0000
  C   C23       1.0  0.63082  0.61022  0.88797  1.0000
  C   C24       1.0  0.36918  0.38978  0.11203  1.0000
  O   O1        1.0  0.50591  0.89246  0.07234  1.0000
  O   O2        1.0  0.49410  0.10753  0.92766  1.0000
  O   O3        1.0  0.32317  0.76298  0.09096  1.0000
  O   O4        1.0  0.67684  0.23702  0.90904  1.0000
  O   O5        1.0  0.94589  0.13815  0.03060  1.0000
  O   O6        1.0  0.05412  0.86185  0.96940  1.0000
  O   O7        1.0  0.12677  0.27074  0.99909  1.0000
  O   O8        1.0  0.87324  0.72926  0.00092  1.0000
  O   O9        1.0  0.21896  0.07136  0.80488  1.0000
  O   O10       1.0  0.78104  0.92864  0.19512  1.0000
  O   O11       1.0  0.23560  0.13225  0.64202  1.0000
  O   O12       1.0  0.76440  0.86775  0.35798  1.0000
  O   O13       1.0  0.13365  0.83411  0.70648  1.0000
  O   O14       1.0  0.86635  0.16589  0.29352  1.0000
  O   O15       1.0  0.31135  0.67934  0.58919  1.0000
  O   O16       1.0  0.68864  0.32066  0.41081  1.0000
  O   O17       1.0  0.61463  0.05519  0.53522  1.0000
  O   O18       1.0  0.38536  0.94481  0.46478  1.0000
  O   O19       1.0  0.64935  0.98351  0.68971  1.0000
  O   O20       1.0  0.35065  0.01649  0.31029  1.0000
  O   O21       1.0  0.44227  0.81982  0.84412  1.0000
  O   O22       1.0  0.55773  0.18019  0.15588  1.0000
  O   O23       1.0  0.55507  0.65020  0.72523  1.0000
  O   O24       1.0  0.44491  0.34980  0.27478  1.0000
  O   O25       1.0  0.16813  0.06332  0.17066  1.0000
  O   O26       1.0  0.83187  0.93668  0.82934  1.0000
  O   O27       1.0  0.69129  0.73282  0.52853  1.0000
  O   O28       1.0  0.30871  0.26717  0.47148  1.0000
