data_image0
_chemical_formula_structural       Cu2H16C20N4Cl4
_chemical_formula_sum              "Cu2 H16 C20 N4 Cl4"
_cell_length_a       7.14993
_cell_length_b       8.35492
_cell_length_c       9.94164
_cell_angle_alpha    107.45
_cell_angle_beta     102.652
_cell_angle_gamma    109.588

_space_group_name_H-M_alt    "P 1"
_space_group_IT_number       1

loop_
  _space_group_symop_operation_xyz
  'x, y, z'

loop_
  _atom_site_type_symbol
  _atom_site_label
  _atom_site_symmetry_multiplicity
  _atom_site_fract_x
  _atom_site_fract_y
  _atom_site_fract_z
  _atom_site_occupancy
  Cu  Cu1       1.0  0.11099  0.28092  0.90562  1.0000
  Cu  Cu2       1.0  0.70575  0.37582  0.09461  1.0000
  H   H1        1.0  0.88536  0.03280  0.56856  1.0000
  H   H2        1.0  0.81725  0.46478  0.43173  1.0000
  H   H3        1.0  0.61382  0.70020  0.41141  1.0000
  H   H4        1.0  0.70318  0.28891  0.58852  1.0000
  H   H5        1.0  0.46920  0.50520  0.54926  1.0000
  H   H6        1.0  0.42060  0.95593  0.45035  1.0000
  H   H7        1.0  0.60268  0.64259  0.82720  1.0000
  H   H8        1.0  0.27602  0.81560  0.17245  1.0000
  H   H9        1.0  0.75004  0.77398  0.06225  1.0000
  H   H10       1.0  0.18808  0.71205  0.93774  1.0000
  H   H11       1.0  0.91182  0.96056  0.33737  1.0000
  H   H12       1.0  0.07460  0.62325  0.66262  1.0000
  H   H13       1.0  0.15231  0.30040  0.43661  1.0000
  H   H14       1.0  0.21567  0.86381  0.56339  1.0000
  H   H15       1.0  0.24287  0.43396  0.24884  1.0000
  H   H16       1.0  0.49391  0.18547  0.75122  1.0000
  C   C1        1.0  0.81642  0.93969  0.61917  1.0000
  C   C2        1.0  0.69778  0.32096  0.38096  1.0000
  C   C3        1.0  0.66576  0.75621  0.53419  1.0000
  C   C4        1.0  0.63227  0.22219  0.46572  1.0000
  C   C5        1.0  0.58798  0.64884  0.61030  1.0000
  C   C6        1.0  0.47836  0.03859  0.38941  1.0000
  C   C7        1.0  0.66345  0.72575  0.76729  1.0000
  C   C8        1.0  0.39680  0.95870  0.23245  1.0000
  C   C9        1.0  0.81630  0.91026  0.84493  1.0000
  C   C10       1.0  0.47195  0.06577  0.15501  1.0000
  C   C11       1.0  0.90891  0.00591  0.00993  1.0000
  C   C12       1.0  0.39930  0.99639  0.99003  1.0000
  C   C13       1.0  0.85823  0.92061  0.10638  1.0000
  C   C14       1.0  0.25211  0.81449  0.89357  1.0000
  C   C15       1.0  0.94865  0.02654  0.26134  1.0000
  C   C16       1.0  0.18756  0.76535  0.73862  1.0000
  C   C17       1.0  0.08561  0.21407  0.31594  1.0000
  C   C18       1.0  0.26985  0.89827  0.68406  1.0000
  C   C19       1.0  0.13478  0.28922  0.21376  1.0000
  C   C20       1.0  0.42106  0.07577  0.78625  1.0000
  N   N1        1.0  0.88881  0.01495  0.77021  1.0000
  N   N2        1.0  0.61911  0.24526  0.22992  1.0000
  N   N3        1.0  0.04976  0.18706  0.06448  1.0000
  N   N4        1.0  0.48551  0.12299  0.93555  1.0000
  Cl  Cl1       1.0  0.42810  0.52312  0.07453  1.0000
  Cl  Cl2       1.0  0.85396  0.44903  0.92587  1.0000
  Cl  Cl3       1.0  0.18022  0.34398  0.71005  1.0000
  Cl  Cl4       1.0  0.97088  0.63442  0.29035  1.0000
