data_image0
_chemical_formula_structural       U4H68C44N4O28
_chemical_formula_sum              "U4 H68 C44 N4 O28"
_cell_length_a       10.4745
_cell_length_b       11.5741
_cell_length_c       12.2553
_cell_angle_alpha    90
_cell_angle_beta     105.621
_cell_angle_gamma    90

_space_group_name_H-M_alt    "P 1"
_space_group_IT_number       1

loop_
  _space_group_symop_operation_xyz
  'x, y, z'

loop_
  _atom_site_type_symbol
  _atom_site_label
  _atom_site_symmetry_multiplicity
  _atom_site_fract_x
  _atom_site_fract_y
  _atom_site_fract_z
  _atom_site_occupancy
  U   U1        1.0  0.40339  0.51573  0.27445  1.0000
  U   U2        1.0  0.09661  0.01573  0.22555  1.0000
  U   U3        1.0  0.59661  0.48427  0.72555  1.0000
  U   U4        1.0  0.90339  0.98427  0.77445  1.0000
  H   H1        1.0  0.57462  0.65234  0.96739  1.0000
  H   H2        1.0  0.92538  0.15234  0.53261  1.0000
  H   H3        1.0  0.42539  0.34766  0.03261  1.0000
  H   H4        1.0  0.07461  0.84766  0.46739  1.0000
  H   H5        1.0  0.41645  0.74805  0.81987  1.0000
  H   H6        1.0  0.08355  0.24805  0.68013  1.0000
  H   H7        1.0  0.58355  0.25195  0.18013  1.0000
  H   H8        1.0  0.91645  0.75195  0.31987  1.0000
  H   H9        1.0  0.33945  0.62167  0.84988  1.0000
  H   H10       1.0  0.16055  0.12167  0.65012  1.0000
  H   H11       1.0  0.66055  0.37832  0.15012  1.0000
  H   H12       1.0  0.83945  0.87832  0.34988  1.0000
  H   H13       1.0  0.18782  0.79522  0.81934  1.0000
  H   H14       1.0  0.31218  0.29521  0.68066  1.0000
  H   H15       1.0  0.81218  0.20478  0.18066  1.0000
  H   H16       1.0  0.68782  0.70479  0.31934  1.0000
  H   H17       1.0  0.20939  0.73262  0.95508  1.0000
  H   H18       1.0  0.29061  0.23262  0.54492  1.0000
  H   H19       1.0  0.79061  0.26738  0.04492  1.0000
  H   H20       1.0  0.70939  0.76738  0.45508  1.0000
  H   H21       1.0  0.34446  0.94928  0.89698  1.0000
  H   H22       1.0  0.15553  0.44928  0.60302  1.0000
  H   H23       1.0  0.65554  0.05072  0.10302  1.0000
  H   H24       1.0  0.84446  0.55072  0.39698  1.0000
  H   H25       1.0  0.45559  0.96405  0.10467  1.0000
  H   H26       1.0  0.04441  0.46405  0.39533  1.0000
  H   H27       1.0  0.54441  0.03595  0.89533  1.0000
  H   H28       1.0  0.95559  0.53595  0.60467  1.0000
  H   H29       1.0  0.38211  0.83401  0.12971  1.0000
  H   H30       1.0  0.11789  0.33401  0.37028  1.0000
  H   H31       1.0  0.61789  0.16599  0.87028  1.0000
  H   H32       1.0  0.88211  0.66599  0.62972  1.0000
  H   H33       1.0  0.61594  0.80122  0.12270  1.0000
  H   H34       1.0  0.88406  0.30122  0.37730  1.0000
  H   H35       1.0  0.38406  0.19878  0.87730  1.0000
  H   H36       1.0  0.11594  0.69878  0.62270  1.0000
  H   H37       1.0  0.57917  0.85920  0.98406  1.0000
  H   H38       1.0  0.92083  0.35920  0.51594  1.0000
  H   H39       1.0  0.42083  0.14080  0.01594  1.0000
  H   H40       1.0  0.07917  0.64080  0.48405  1.0000
  H   H41       1.0  0.14131  0.69489  0.13735  1.0000
  H   H42       1.0  0.35869  0.19489  0.36265  1.0000
  H   H43       1.0  0.85869  0.30511  0.86265  1.0000
  H   H44       1.0  0.64131  0.80511  0.63735  1.0000
  H   H45       1.0  0.95565  0.77465  0.04816  1.0000
  H   H46       1.0  0.54435  0.27465  0.45184  1.0000
  H   H47       1.0  0.04435  0.22535  0.95184  1.0000
  H   H48       1.0  0.45565  0.72535  0.54816  1.0000
  H   H49       1.0  0.81978  0.73684  0.10282  1.0000
  H   H50       1.0  0.68022  0.23683  0.39718  1.0000
  H   H51       1.0  0.18022  0.26316  0.89717  1.0000
  H   H52       1.0  0.31978  0.76316  0.60282  1.0000
  H   H53       1.0  0.83325  0.67580  0.97196  1.0000
  H   H54       1.0  0.66675  0.17580  0.52804  1.0000
  H   H55       1.0  0.16675  0.32420  0.02804  1.0000
  H   H56       1.0  0.33325  0.82420  0.47196  1.0000
  H   H57       1.0  0.96110  0.43922  0.17724  1.0000
  H   H58       1.0  0.53890  0.93922  0.32276  1.0000
  H   H59       1.0  0.03890  0.56078  0.82276  1.0000
  H   H60       1.0  0.46110  0.06078  0.67724  1.0000
  H   H61       1.0  0.82541  0.47825  0.05807  1.0000
  H   H62       1.0  0.67459  0.97825  0.44193  1.0000
  H   H63       1.0  0.17459  0.52175  0.94193  1.0000
  H   H64       1.0  0.32540  0.02175  0.55807  1.0000
  H   H65       1.0  0.82934  0.53133  0.19468  1.0000
  H   H66       1.0  0.67066  0.03133  0.30532  1.0000
  H   H67       1.0  0.17066  0.46867  0.80532  1.0000
  H   H68       1.0  0.32934  0.96867  0.69468  1.0000
  C   C1        1.0  0.49076  0.69259  0.99103  1.0000
  C   C2        1.0  0.00924  0.19259  0.50897  1.0000
  C   C3        1.0  0.50925  0.30741  0.00897  1.0000
  C   C4        1.0  0.99076  0.80741  0.49103  1.0000
  C   C5        1.0  0.37540  0.70694  0.88405  1.0000
  C   C6        1.0  0.12460  0.20694  0.61595  1.0000
  C   C7        1.0  0.62460  0.29305  0.11595  1.0000
  C   C8        1.0  0.87540  0.79306  0.38405  1.0000
  C   C9        1.0  0.26044  0.77946  0.90118  1.0000
  C   C10       1.0  0.23956  0.27946  0.59882  1.0000
  C   C11       1.0  0.73956  0.22054  0.09882  1.0000
  C   C12       1.0  0.76044  0.72054  0.40118  1.0000
  C   C13       1.0  0.30922  0.89668  0.95797  1.0000
  C   C14       1.0  0.19078  0.39668  0.54203  1.0000
  C   C15       1.0  0.69078  0.10332  0.04202  1.0000
  C   C16       1.0  0.80922  0.60332  0.45797  1.0000
  C   C17       1.0  0.42115  0.87970  0.06676  1.0000
  C   C18       1.0  0.07885  0.37970  0.43324  1.0000
  C   C19       1.0  0.57886  0.12030  0.93323  1.0000
  C   C20       1.0  0.92114  0.62030  0.56676  1.0000
  C   C21       1.0  0.53640  0.81183  0.04384  1.0000
  C   C22       1.0  0.96360  0.31183  0.45616  1.0000
  C   C23       1.0  0.46360  0.18817  0.95616  1.0000
  C   C24       1.0  0.03640  0.68817  0.54384  1.0000
  C   C25       1.0  0.46089  0.61589  0.08083  1.0000
  C   C26       1.0  0.03911  0.11589  0.41917  1.0000
  C   C27       1.0  0.53912  0.38411  0.91917  1.0000
  C   C28       1.0  0.96089  0.88411  0.58083  1.0000
  C   C29       1.0  0.18938  0.95683  0.97770  1.0000
  C   C30       1.0  0.31063  0.45683  0.52230  1.0000
  C   C31       1.0  0.81063  0.04317  0.02230  1.0000
  C   C32       1.0  0.68937  0.54317  0.47770  1.0000
  C   C33       1.0  0.09648  0.61380  0.15574  1.0000
  C   C34       1.0  0.40352  0.11380  0.34426  1.0000
  C   C35       1.0  0.90352  0.38620  0.84426  1.0000
  C   C36       1.0  0.59648  0.88620  0.65574  1.0000
  C   C37       1.0  0.88913  0.70455  0.05682  1.0000
  C   C38       1.0  0.61087  0.20455  0.44318  1.0000
  C   C39       1.0  0.11087  0.29545  0.94318  1.0000
  C   C40       1.0  0.38913  0.79545  0.55682  1.0000
  C   C41       1.0  0.89156  0.50772  0.13871  1.0000
  C   C42       1.0  0.60844  0.00772  0.36129  1.0000
  C   C43       1.0  0.10844  0.49228  0.86129  1.0000
  C   C44       1.0  0.39156  0.99228  0.63871  1.0000
  N   N1        1.0  0.96546  0.60866  0.11898  1.0000
  N   N2        1.0  0.53454  0.10866  0.38102  1.0000
  N   N3        1.0  0.03454  0.39134  0.88102  1.0000
  N   N4        1.0  0.46546  0.89134  0.61898  1.0000
  O   O1        1.0  0.39844  0.36833  0.22311  1.0000
  O   O2        1.0  0.10157  0.86833  0.27689  1.0000
  O   O3        1.0  0.60157  0.63167  0.77689  1.0000
  O   O4        1.0  0.89843  0.13167  0.72311  1.0000
  O   O5        1.0  0.40700  0.66239  0.32659  1.0000
  O   O6        1.0  0.09300  0.16239  0.17342  1.0000
  O   O7        1.0  0.59300  0.33761  0.67341  1.0000
  O   O8        1.0  0.90701  0.83761  0.82659  1.0000
  O   O9        1.0  0.34169  0.58864  0.07962  1.0000
  O   O10       1.0  0.15831  0.08863  0.42039  1.0000
  O   O11       1.0  0.65831  0.41136  0.92038  1.0000
  O   O12       1.0  0.84169  0.91136  0.57962  1.0000
  O   O13       1.0  0.55570  0.58058  0.16386  1.0000
  O   O14       1.0  0.94430  0.08058  0.33614  1.0000
  O   O15       1.0  0.44431  0.41942  0.83614  1.0000
  O   O16       1.0  0.05570  0.91942  0.66386  1.0000
  O   O17       1.0  0.11319  0.01327  0.89614  1.0000
  O   O18       1.0  0.38681  0.51327  0.60387  1.0000
  O   O19       1.0  0.88682  0.98674  0.10386  1.0000
  O   O20       1.0  0.61319  0.48673  0.39614  1.0000
  O   O21       1.0  0.16510  0.94405  0.07322  1.0000
  O   O22       1.0  0.33490  0.44405  0.42678  1.0000
  O   O23       1.0  0.83490  0.05595  0.92678  1.0000
  O   O24       1.0  0.66509  0.55596  0.57321  1.0000
  O   O25       1.0  0.16712  0.53183  0.20828  1.0000
  O   O26       1.0  0.33287  0.03183  0.29172  1.0000
  O   O27       1.0  0.83288  0.46817  0.79172  1.0000
  O   O28       1.0  0.66712  0.96817  0.70828  1.0000
