data_image0
_chemical_formula_structural       UH10C8O6
_chemical_formula_sum              "U1 H10 C8 O6"
_cell_length_a       5.318
_cell_length_b       6.77675
_cell_length_c       7.38495
_cell_angle_alpha    89.3768
_cell_angle_beta     90.3023
_cell_angle_gamma    105.068

_space_group_name_H-M_alt    "P 1"
_space_group_IT_number       1

loop_
  _space_group_symop_operation_xyz
  'x, y, z'

loop_
  _atom_site_type_symbol
  _atom_site_label
  _atom_site_symmetry_multiplicity
  _atom_site_fract_x
  _atom_site_fract_y
  _atom_site_fract_z
  _atom_site_occupancy
  U   U1        1.0  0.99999  1.00000  0.99999  1.0000
  H   H1        1.0  0.19553  0.49647  0.65553  1.0000
  H   H2        1.0  0.80448  0.50353  0.34447  1.0000
  H   H3        1.0  0.78718  0.56261  0.68537  1.0000
  H   H4        1.0  0.21282  0.43740  0.31463  1.0000
  H   H5        1.0  0.55280  0.38950  0.81804  1.0000
  H   H6        1.0  0.44721  0.61051  0.18196  1.0000
  H   H7        1.0  0.36354  0.19660  0.54389  1.0000
  H   H8        1.0  0.63645  0.80341  0.45611  1.0000
  H   H9        1.0  0.70140  0.21201  0.56296  1.0000
  H   H10       1.0  0.29861  0.78799  0.43704  1.0000
  C   C1        1.0  0.40982  0.75472  0.79349  1.0000
  C   C2        1.0  0.59016  0.24528  0.20650  1.0000
  C   C3        1.0  0.39627  0.59500  0.65086  1.0000
  C   C4        1.0  0.60374  0.40501  0.34913  1.0000
  C   C5        1.0  0.58694  0.46388  0.68446  1.0000
  C   C6        1.0  0.41306  0.53612  0.31554  1.0000
  C   C7        1.0  0.56002  0.30199  0.53820  1.0000
  C   C8        1.0  0.43999  0.69801  0.46181  1.0000
  O   O1        1.0  0.99831  0.18658  0.82330  1.0000
  O   O2        1.0  0.00169  0.81341  0.17668  1.0000
  O   O3        1.0  0.21926  0.83533  0.80727  1.0000
  O   O4        1.0  0.78076  0.16470  0.19271  1.0000
  O   O5        1.0  0.61016  0.80750  0.89575  1.0000
  O   O6        1.0  0.38983  0.19247  0.10429  1.0000
