data_image0
_chemical_formula_structural       Zn6H36C48N24O12
_chemical_formula_sum              "Zn6 H36 C48 N24 O12"
_cell_length_a       11.4439
_cell_length_b       12.7313
_cell_length_c       12.7317
_cell_angle_alpha    111.451
_cell_angle_beta     107.389
_cell_angle_gamma    107.458

_space_group_name_H-M_alt    "P 1"
_space_group_IT_number       1

loop_
  _space_group_symop_operation_xyz
  'x, y, z'

loop_
  _atom_site_type_symbol
  _atom_site_label
  _atom_site_symmetry_multiplicity
  _atom_site_fract_x
  _atom_site_fract_y
  _atom_site_fract_z
  _atom_site_occupancy
  Zn  Zn1       1.0  0.12459  0.00483  0.36084  1.0000
  Zn  Zn2       1.0  0.61984  0.99522  0.35609  1.0000
  Zn  Zn3       1.0  0.11994  0.35608  0.99523  1.0000
  Zn  Zn4       1.0  0.76403  0.63921  0.64379  1.0000
  Zn  Zn5       1.0  0.62461  0.36083  0.00468  1.0000
  Zn  Zn6       1.0  0.26411  0.64392  0.63921  1.0000
  H   H1        1.0  0.90134  0.24234  0.20042  1.0000
  H   H2        1.0  0.15913  0.75763  0.95816  1.0000
  H   H3        1.0  0.65898  0.95809  0.75760  1.0000
  H   H4        1.0  0.70076  0.79927  0.04185  1.0000
  H   H5        1.0  0.40108  0.20041  0.24233  1.0000
  H   H6        1.0  0.20097  0.04194  0.79932  1.0000
  H   H7        1.0  0.84734  0.94000  0.35355  1.0000
  H   H8        1.0  0.40720  0.06012  0.41361  1.0000
  H   H9        1.0  0.90734  0.41365  0.06014  1.0000
  H   H10       1.0  0.49412  0.64654  0.58649  1.0000
  H   H11       1.0  0.34750  0.35356  0.94005  1.0000
  H   H12       1.0  0.99409  0.58645  0.64655  1.0000
  H   H13       1.0  0.69749  0.15897  0.23488  1.0000
  H   H14       1.0  0.03846  0.84098  0.07581  1.0000
  H   H15       1.0  0.53843  0.07584  0.84090  1.0000
  H   H16       1.0  0.46266  0.76501  0.92414  1.0000
  H   H17       1.0  0.19742  0.23492  0.15904  1.0000
  H   H18       1.0  0.96275  0.92413  0.76497  1.0000
  H   H19       1.0  0.49145  0.46899  0.69180  1.0000
  H   H20       1.0  0.52262  0.53108  0.22280  1.0000
  H   H21       1.0  0.02255  0.22275  0.53115  1.0000
  H   H22       1.0  0.79937  0.30842  0.77717  1.0000
  H   H23       1.0  0.99133  0.69167  0.46885  1.0000
  H   H24       1.0  0.29936  0.77723  0.30841  1.0000
  H   H25       1.0  0.27989  0.03687  0.61404  1.0000
  H   H26       1.0  0.74327  0.96315  0.57725  1.0000
  H   H27       1.0  0.24335  0.57732  0.96312  1.0000
  H   H28       1.0  0.66597  0.38569  0.42258  1.0000
  H   H29       1.0  0.78003  0.61421  0.03699  1.0000
  H   H30       1.0  0.16601  0.42257  0.38577  1.0000
  H   H31       1.0  0.30551  0.28676  0.47399  1.0000
  H   H32       1.0  0.51908  0.71334  0.18727  1.0000
  H   H33       1.0  0.01914  0.18715  0.71337  1.0000
  H   H34       1.0  0.83162  0.52630  0.81262  1.0000
  H   H35       1.0  0.80539  0.47378  0.28654  1.0000
  H   H36       1.0  0.33170  0.81273  0.52624  1.0000
  C   C1        1.0  0.89047  0.17592  0.23589  1.0000
  C   C2        1.0  0.21461  0.82411  0.06003  1.0000
  C   C3        1.0  0.71454  0.05998  0.82409  1.0000
  C   C4        1.0  0.65455  0.76387  0.93999  1.0000
  C   C5        1.0  0.39036  0.23589  0.17593  1.0000
  C   C6        1.0  0.15467  0.94004  0.76387  1.0000
  C   C7        1.0  0.99983  0.14222  0.27032  1.0000
  C   C8        1.0  0.35769  0.85788  0.12826  1.0000
  C   C9        1.0  0.85768  0.12821  0.85791  1.0000
  C   C10       1.0  0.72960  0.72958  0.87183  1.0000
  C   C11       1.0  0.49977  0.27025  0.14218  1.0000
  C   C12       1.0  0.22968  0.87187  0.72958  1.0000
  C   C13       1.0  0.86035  0.00891  0.32082  1.0000
  C   C14       1.0  0.35138  0.99118  0.31196  1.0000
  C   C15       1.0  0.85146  0.31199  0.99119  1.0000
  C   C16       1.0  0.53985  0.67927  0.68813  1.0000
  C   C17       1.0  0.36046  0.32079  0.00892  1.0000
  C   C18       1.0  0.03984  0.68810  0.67926  1.0000
  C   C19       1.0  0.77824  0.12971  0.25388  1.0000
  C   C20       1.0  0.14849  0.87027  0.12415  1.0000
  C   C21       1.0  0.64847  0.12416  0.87021  1.0000
  C   C22       1.0  0.52445  0.74598  0.87587  1.0000
  C   C23       1.0  0.27822  0.25392  0.12977  1.0000
  C   C24       1.0  0.02451  0.87586  0.74594  1.0000
  C   C25       1.0  0.44365  0.37254  0.67398  1.0000
  C   C26       1.0  0.57131  0.62752  0.30147  1.0000
  C   C27       1.0  0.07127  0.30143  0.62758  1.0000
  C   C28       1.0  0.76946  0.32614  0.69850  1.0000
  C   C29       1.0  0.94357  0.67391  0.37246  1.0000
  C   C30       1.0  0.26947  0.69853  0.32614  1.0000
  C   C31       1.0  0.48457  0.34556  0.77436  1.0000
  C   C32       1.0  0.63907  0.65441  0.42879  1.0000
  C   C33       1.0  0.13903  0.42880  0.65443  1.0000
  C   C34       1.0  0.71004  0.22561  0.57115  1.0000
  C   C35       1.0  0.98451  0.77441  0.34559  1.0000
  C   C36       1.0  0.21008  0.57116  0.22564  1.0000
  C   C37       1.0  0.32777  0.13414  0.63258  1.0000
  C   C38       1.0  0.69387  0.86588  0.49851  1.0000
  C   C39       1.0  0.19390  0.49852  0.86589  1.0000
  C   C40       1.0  0.69533  0.36727  0.50137  1.0000
  C   C41       1.0  0.82783  0.63269  0.13421  1.0000
  C   C42       1.0  0.19537  0.50138  0.36735  1.0000
  C   C43       1.0  0.34340  0.27386  0.55563  1.0000
  C   C44       1.0  0.56981  0.72624  0.28183  1.0000
  C   C45       1.0  0.06986  0.28176  0.72630  1.0000
  C   C46       1.0  0.78779  0.44453  0.71809  1.0000
  C   C47       1.0  0.84334  0.55552  0.27374  1.0000
  C   C48       1.0  0.28783  0.71816  0.44452  1.0000
  N   N1        1.0  0.97346  0.05031  0.30781  1.0000
  N   N2        1.0  0.42313  0.94975  0.25765  1.0000
  N   N3        1.0  0.92319  0.25763  0.94981  1.0000
  N   N4        1.0  0.66588  0.69221  0.74248  1.0000
  N   N5        1.0  0.47349  0.30775  0.05029  1.0000
  N   N6        1.0  0.16593  0.74250  0.69225  1.0000
  N   N7        1.0  0.76283  0.04624  0.29928  1.0000
  N   N8        1.0  0.21652  0.95381  0.25301  1.0000
  N   N9        1.0  0.71656  0.25306  0.95375  1.0000
  N   N10       1.0  0.46380  0.70074  0.74703  1.0000
  N   N11       1.0  0.26289  0.29929  0.04629  1.0000
  N   N12       1.0  0.96378  0.74697  0.70066  1.0000
  N   N13       1.0  0.42362  0.22327  0.74960  1.0000
  N   N14       1.0  0.70054  0.77673  0.52637  1.0000
  N   N15       1.0  0.20047  0.52639  0.77671  1.0000
  N   N16       1.0  0.67398  0.25020  0.47354  1.0000
  N   N17       1.0  0.92366  0.74975  0.22337  1.0000
  N   N18       1.0  0.17399  0.47354  0.25029  1.0000
  N   N19       1.0  0.28333  0.15258  0.53301  1.0000
  N   N20       1.0  0.63100  0.84749  0.38052  1.0000
  N   N21       1.0  0.13109  0.38046  0.84754  1.0000
  N   N22       1.0  0.75052  0.46701  0.61937  1.0000
  N   N23       1.0  0.78334  0.53300  0.15254  1.0000
  N   N24       1.0  0.25061  0.61943  0.46707  1.0000
  O   O1        1.0  0.11379  0.18842  0.27184  1.0000
  O   O2        1.0  0.42557  0.81173  0.08370  1.0000
  O   O3        1.0  0.92555  0.08363  0.81177  1.0000
  O   O4        1.0  0.84203  0.72809  0.91645  1.0000
  O   O5        1.0  0.61366  0.27171  0.18829  1.0000
  O   O6        1.0  0.34213  0.91650  0.72804  1.0000
  O   O7        1.0  0.57741  0.43191  0.88858  1.0000
  O   O8        1.0  0.64538  0.56802  0.45664  1.0000
  O   O9        1.0  0.14534  0.45667  0.56805  1.0000
  O   O10       1.0  0.68849  0.11135  0.54335  1.0000
  O   O11       1.0  0.07730  0.88867  0.43197  1.0000
  O   O12       1.0  0.18863  0.54335  0.11143  1.0000
