data_image0
_chemical_formula_structural       Zn2H20C32N12O4
_chemical_formula_sum              "Zn2 H20 C32 N12 O4"
_cell_length_a       7.8633
_cell_length_b       9.09763
_cell_length_c       11.9881
_cell_angle_alpha    98.0002
_cell_angle_beta     105.474
_cell_angle_gamma    100.844

_space_group_name_H-M_alt    "P 1"
_space_group_IT_number       1

loop_
  _space_group_symop_operation_xyz
  'x, y, z'

loop_
  _atom_site_type_symbol
  _atom_site_label
  _atom_site_symmetry_multiplicity
  _atom_site_fract_x
  _atom_site_fract_y
  _atom_site_fract_z
  _atom_site_occupancy
  Zn  Zn1       1.0  0.93937  0.65368  0.39803  1.0000
  Zn  Zn2       1.0  0.06063  0.34632  0.60197  1.0000
  H   H1        1.0  0.06877  0.97621  0.36923  1.0000
  H   H2        1.0  0.93123  0.02380  0.63077  1.0000
  H   H3        1.0  0.34004  0.12821  0.33417  1.0000
  H   H4        1.0  0.65996  0.87180  0.66583  1.0000
  H   H5        1.0  0.61081  0.00997  0.33863  1.0000
  H   H6        1.0  0.38919  0.99004  0.66137  1.0000
  H   H7        1.0  0.30572  0.60544  0.40497  1.0000
  H   H8        1.0  0.69428  0.39456  0.59504  1.0000
  H   H9        1.0  0.79661  0.23871  0.00391  1.0000
  H   H10       1.0  0.20339  0.76129  0.99609  1.0000
  H   H11       1.0  0.67684  0.37397  0.84134  1.0000
  H   H12       1.0  0.32315  0.62603  0.15866  1.0000
  H   H13       1.0  0.58546  0.60721  0.78316  1.0000
  H   H14       1.0  0.41454  0.39279  0.21684  1.0000
  H   H15       1.0  0.57351  0.87857  0.84295  1.0000
  H   H16       1.0  0.42649  0.12143  0.15705  1.0000
  H   H17       1.0  0.69222  0.00802  0.05565  1.0000
  H   H18       1.0  0.30778  0.99197  0.94435  1.0000
  H   H19       1.0  0.80966  0.86775  0.20914  1.0000
  H   H20       1.0  0.19035  0.13225  0.79086  1.0000
  C   C1        1.0  0.18520  0.92793  0.36764  1.0000
  C   C2        1.0  0.81480  0.07207  0.63236  1.0000
  C   C3        1.0  0.33865  0.01247  0.34878  1.0000
  C   C4        1.0  0.66135  0.98754  0.65122  1.0000
  C   C5        1.0  0.48639  0.94782  0.35087  1.0000
  C   C6        1.0  0.51361  0.05218  0.64913  1.0000
  C   C7        1.0  0.47608  0.79931  0.37218  1.0000
  C   C8        1.0  0.52392  0.20070  0.62781  1.0000
  C   C9        1.0  0.31703  0.72134  0.38850  1.0000
  C   C10       1.0  0.68297  0.27866  0.61150  1.0000
  C   C11       1.0  0.62987  0.72204  0.38068  1.0000
  C   C12       1.0  0.37014  0.27797  0.61932  1.0000
  C   C13       1.0  0.89251  0.35884  0.23871  1.0000
  C   C14       1.0  0.10749  0.64116  0.76129  1.0000
  C   C15       1.0  0.83483  0.43558  0.14096  1.0000
  C   C16       1.0  0.16517  0.56442  0.85904  1.0000
  C   C17       1.0  0.78443  0.35629  0.02221  1.0000
  C   C18       1.0  0.21557  0.64371  0.97779  1.0000
  C   C19       1.0  0.71988  0.43115  0.93384  1.0000
  C   C20       1.0  0.28011  0.56884  0.06616  1.0000
  C   C21       1.0  0.70756  0.58441  0.96258  1.0000
  C   C22       1.0  0.29244  0.41559  0.03742  1.0000
  C   C23       1.0  0.63703  0.66616  0.87564  1.0000
  C   C24       1.0  0.36297  0.33384  0.12436  1.0000
  C   C25       1.0  0.62992  0.81570  0.90916  1.0000
  C   C26       1.0  0.37008  0.18430  0.09084  1.0000
  C   C27       1.0  0.69476  0.88909  0.02953  1.0000
  C   C28       1.0  0.30524  0.11090  0.97047  1.0000
  C   C29       1.0  0.76300  0.81236  0.11626  1.0000
  C   C30       1.0  0.23700  0.18764  0.88374  1.0000
  C   C31       1.0  0.76902  0.65767  0.08526  1.0000
  C   C32       1.0  0.23098  0.34233  0.91474  1.0000
  N   N1        1.0  0.17483  0.78405  0.38590  1.0000
  N   N2        1.0  0.82517  0.21595  0.61410  1.0000
  N   N3        1.0  0.94490  0.43157  0.35235  1.0000
  N   N4        1.0  0.05510  0.56843  0.64765  1.0000
  N   N5        1.0  0.98213  0.32507  0.41578  1.0000
  N   N6        1.0  0.01787  0.67493  0.58422  1.0000
  N   N7        1.0  0.95281  0.19272  0.34339  1.0000
  N   N8        1.0  0.04719  0.80728  0.65661  1.0000
  N   N9        1.0  0.89663  0.21079  0.23164  1.0000
  N   N10       1.0  0.10337  0.78921  0.76836  1.0000
  N   N11       1.0  0.83019  0.58078  0.17206  1.0000
  N   N12       1.0  0.16981  0.41922  0.82794  1.0000
  O   O1        1.0  0.78501  0.80782  0.38882  1.0000
  O   O2        1.0  0.21499  0.19218  0.61118  1.0000
  O   O3        1.0  0.60435  0.58135  0.38068  1.0000
  O   O4        1.0  0.39565  0.41865  0.61932  1.0000
