data_image0
_chemical_formula_structural       Cd2H24C40N20
_chemical_formula_sum              "Cd2 H24 C40 N20"
_cell_length_a       8.23489
_cell_length_b       11.3014
_cell_length_c       11.3013
_cell_angle_alpha    72.8064
_cell_angle_beta     78.0903
_cell_angle_gamma    78.0894

_space_group_name_H-M_alt    "P 1"
_space_group_IT_number       1

loop_
  _space_group_symop_operation_xyz
  'x, y, z'

loop_
  _atom_site_type_symbol
  _atom_site_label
  _atom_site_symmetry_multiplicity
  _atom_site_fract_x
  _atom_site_fract_y
  _atom_site_fract_z
  _atom_site_occupancy
  Cd  Cd1       1.0  0.25000  0.41010  0.58990  1.0000
  Cd  Cd2       1.0  0.75000  0.58990  0.41011  1.0000
  H   H1        1.0  0.56565  0.26226  0.66973  1.0000
  H   H2        1.0  0.93435  0.33028  0.73774  1.0000
  H   H3        1.0  0.43434  0.73774  0.33027  1.0000
  H   H4        1.0  0.06565  0.66971  0.26227  1.0000
  H   H5        1.0  0.81992  0.12532  0.74812  1.0000
  H   H6        1.0  0.68008  0.25189  0.87467  1.0000
  H   H7        1.0  0.18007  0.87469  0.25189  1.0000
  H   H8        1.0  0.31992  0.74809  0.12533  1.0000
  H   H9        1.0  0.85723  0.89544  0.78170  1.0000
  H   H10       1.0  0.64278  0.21831  0.10455  1.0000
  H   H11       1.0  0.14277  0.10456  0.21830  1.0000
  H   H12       1.0  0.35722  0.78169  0.89545  1.0000
  H   H13       1.0  0.64118  0.79870  0.73240  1.0000
  H   H14       1.0  0.85881  0.26762  0.20130  1.0000
  H   H15       1.0  0.35881  0.20130  0.26760  1.0000
  H   H16       1.0  0.14118  0.73239  0.79870  1.0000
  H   H17       1.0  0.37339  0.82525  0.64994  1.0000
  H   H18       1.0  0.12661  0.35007  0.17475  1.0000
  H   H19       1.0  0.62662  0.17475  0.35005  1.0000
  H   H20       1.0  0.87338  0.64994  0.82524  1.0000
  H   H21       1.0  0.13016  0.96886  0.56095  1.0000
  H   H22       1.0  0.36984  0.43905  0.03115  1.0000
  H   H23       1.0  0.86984  0.03114  0.43904  1.0000
  H   H24       1.0  0.63015  0.56095  0.96886  1.0000
  C   C1        1.0  0.45619  0.10835  0.65880  1.0000
  C   C2        1.0  0.04382  0.34120  0.89165  1.0000
  C   C3        1.0  0.54381  0.89165  0.34119  1.0000
  C   C4        1.0  0.95618  0.65880  0.10835  1.0000
  C   C5        1.0  0.58099  0.16076  0.68669  1.0000
  C   C6        1.0  0.91901  0.31332  0.83924  1.0000
  C   C7        1.0  0.41901  0.83925  0.31331  1.0000
  C   C8        1.0  0.08099  0.68668  0.16077  1.0000
  C   C9        1.0  0.72220  0.08432  0.72963  1.0000
  C   C10       1.0  0.77780  0.27038  0.91567  1.0000
  C   C11       1.0  0.27780  0.91568  0.27038  1.0000
  C   C12       1.0  0.22220  0.72962  0.08432  1.0000
  C   C13       1.0  0.74385  0.95310  0.74861  1.0000
  C   C14       1.0  0.75615  0.25140  0.04690  1.0000
  C   C15       1.0  0.25615  0.04691  0.25140  1.0000
  C   C16       1.0  0.24385  0.74859  0.95311  1.0000
  C   C17       1.0  0.62444  0.89941  0.72208  1.0000
  C   C18       1.0  0.87557  0.27794  0.10058  1.0000
  C   C19       1.0  0.37556  0.10060  0.27792  1.0000
  C   C20       1.0  0.12443  0.72207  0.89941  1.0000
  C   C21       1.0  0.47957  0.97526  0.67549  1.0000
  C   C22       1.0  0.02044  0.32452  0.02473  1.0000
  C   C23       1.0  0.52044  0.02474  0.32451  1.0000
  C   C24       1.0  0.97957  0.67548  0.97526  1.0000
  C   C25       1.0  0.35787  0.92578  0.64025  1.0000
  C   C26       1.0  0.14213  0.35975  0.07422  1.0000
  C   C27       1.0  0.64213  0.07423  0.35974  1.0000
  C   C28       1.0  0.85787  0.64024  0.92578  1.0000
  C   C29       1.0  0.22372  0.00489  0.59058  1.0000
  C   C30       1.0  0.27628  0.40943  0.99511  1.0000
  C   C31       1.0  0.77629  0.99510  0.40941  1.0000
  C   C32       1.0  0.72372  0.59058  0.00489  1.0000
  C   C33       1.0  0.21011  0.13508  0.57655  1.0000
  C   C34       1.0  0.28989  0.42346  0.86492  1.0000
  C   C35       1.0  0.78989  0.86492  0.42345  1.0000
  C   C36       1.0  0.71010  0.57654  0.13508  1.0000
  C   C37       1.0  0.07418  0.22159  0.51743  1.0000
  C   C38       1.0  0.42583  0.48258  0.77841  1.0000
  C   C39       1.0  0.92583  0.77841  0.48257  1.0000
  C   C40       1.0  0.57417  0.51742  0.22160  1.0000
  N   N1        1.0  0.31992  0.18547  0.61141  1.0000
  N   N2        1.0  0.18009  0.38859  0.81452  1.0000
  N   N3        1.0  0.68008  0.81453  0.38859  1.0000
  N   N4        1.0  0.81992  0.61140  0.18547  1.0000
  N   N5        1.0  0.03575  0.34304  0.51797  1.0000
  N   N6        1.0  0.46425  0.48203  0.65697  1.0000
  N   N7        1.0  0.96424  0.65696  0.48203  1.0000
  N   N8        1.0  0.53575  0.51797  0.34304  1.0000
  N   N9        1.0  0.91027  0.38967  0.45036  1.0000
  N   N10       1.0  0.58973  0.54964  0.61033  1.0000
  N   N11       1.0  0.08972  0.61032  0.54964  1.0000
  N   N12       1.0  0.41027  0.45036  0.38968  1.0000
  N   N13       1.0  0.87372  0.30019  0.41050  1.0000
  N   N14       1.0  0.62628  0.58950  0.69981  1.0000
  N   N15       1.0  0.12627  0.69980  0.58950  1.0000
  N   N16       1.0  0.37373  0.41050  0.30019  1.0000
  N   N17       1.0  0.97528  0.19341  0.45159  1.0000
  N   N18       1.0  0.52473  0.54842  0.80659  1.0000
  N   N19       1.0  0.02473  0.80658  0.54841  1.0000
  N   N20       1.0  0.47528  0.45158  0.19342  1.0000
