data_image0
_chemical_formula_structural       Mn2H24C40N20
_chemical_formula_sum              "Mn2 H24 C40 N20"
_cell_length_a       7.35304
_cell_length_b       11.1482
_cell_length_c       11.1481
_cell_angle_alpha    74.7003
_cell_angle_beta     80.3076
_cell_angle_gamma    80.3085

_space_group_name_H-M_alt    "P 1"
_space_group_IT_number       1

loop_
  _space_group_symop_operation_xyz
  'x, y, z'

loop_
  _atom_site_type_symbol
  _atom_site_label
  _atom_site_symmetry_multiplicity
  _atom_site_fract_x
  _atom_site_fract_y
  _atom_site_fract_z
  _atom_site_occupancy
  Mn  Mn1       1.0  0.24999  0.58280  0.41720  1.0000
  Mn  Mn2       1.0  0.74999  0.41717  0.58283  1.0000
  H   H1        1.0  0.10477  0.54666  0.99597  1.0000
  H   H2        1.0  0.39523  0.00403  0.45334  1.0000
  H   H3        1.0  0.89521  0.45336  0.00402  1.0000
  H   H4        1.0  0.60480  0.99597  0.54664  1.0000
  H   H5        1.0  0.35437  0.64915  0.84438  1.0000
  H   H6        1.0  0.14565  0.15563  0.35085  1.0000
  H   H7        1.0  0.64563  0.35085  0.15564  1.0000
  H   H8        1.0  0.85438  0.84437  0.64915  1.0000
  H   H9        1.0  0.63217  0.66666  0.27219  1.0000
  H   H10       1.0  0.86784  0.72781  0.33335  1.0000
  H   H11       1.0  0.36783  0.33335  0.72782  1.0000
  H   H12       1.0  0.13218  0.27219  0.66664  1.0000
  H   H13       1.0  0.89975  0.75290  0.12429  1.0000
  H   H14       1.0  0.60026  0.87570  0.24710  1.0000
  H   H15       1.0  0.10023  0.24710  0.87570  1.0000
  H   H16       1.0  0.39978  0.12432  0.75287  1.0000
  H   H17       1.0  0.90718  0.79064  0.89608  1.0000
  H   H18       1.0  0.59283  0.10391  0.20936  1.0000
  H   H19       1.0  0.09283  0.20934  0.10391  1.0000
  H   H20       1.0  0.40718  0.89611  0.79063  1.0000
  H   H21       1.0  0.64688  0.73536  0.81064  1.0000
  H   H22       1.0  0.85311  0.18937  0.26463  1.0000
  H   H23       1.0  0.35309  0.26462  0.18938  1.0000
  H   H24       1.0  0.14690  0.81064  0.73537  1.0000
  C   C1        1.0  0.06683  0.50984  0.24406  1.0000
  C   C2        1.0  0.43316  0.75594  0.49016  1.0000
  C   C3        1.0  0.93317  0.49014  0.75596  1.0000
  C   C4        1.0  0.56682  0.24404  0.50986  1.0000
  C   C5        1.0  0.21010  0.56955  0.15759  1.0000
  C   C6        1.0  0.28989  0.84241  0.43044  1.0000
  C   C7        1.0  0.78990  0.43042  0.84241  1.0000
  C   C8        1.0  0.71010  0.15759  0.56957  1.0000
  C   C9        1.0  0.21200  0.58180  0.02802  1.0000
  C   C10       1.0  0.28801  0.97198  0.41821  1.0000
  C   C11       1.0  0.78798  0.41821  0.97198  1.0000
  C   C12       1.0  0.71202  0.02803  0.58179  1.0000
  C   C13       1.0  0.34885  0.63849  0.94495  1.0000
  C   C14       1.0  0.15115  0.05505  0.36151  1.0000
  C   C15       1.0  0.65113  0.36150  0.05505  1.0000
  C   C16       1.0  0.84888  0.94496  0.63848  1.0000
  C   C17       1.0  0.48965  0.67750  0.99242  1.0000
  C   C18       1.0  0.01035  0.00759  0.32250  1.0000
  C   C19       1.0  0.51034  0.32248  0.00759  1.0000
  C   C20       1.0  0.98966  0.99244  0.67749  1.0000
  C   C21       1.0  0.48145  0.65955  0.12609  1.0000
  C   C22       1.0  0.01854  0.87391  0.34045  1.0000
  C   C23       1.0  0.51856  0.34044  0.87391  1.0000
  C   C24       1.0  0.98144  0.12611  0.65954  1.0000
  C   C25       1.0  0.63360  0.68674  0.17105  1.0000
  C   C26       1.0  0.86640  0.82895  0.31327  1.0000
  C   C27       1.0  0.36641  0.31327  0.82896  1.0000
  C   C28       1.0  0.13360  0.17105  0.68671  1.0000
  C   C29       1.0  0.78254  0.73306  0.08837  1.0000
  C   C30       1.0  0.71747  0.91162  0.26694  1.0000
  C   C31       1.0  0.21745  0.26694  0.91161  1.0000
  C   C32       1.0  0.28255  0.08840  0.73303  1.0000
  C   C33       1.0  0.78715  0.75495  0.95799  1.0000
  C   C34       1.0  0.71286  0.04200  0.24505  1.0000
  C   C35       1.0  0.21284  0.24504  0.04200  1.0000
  C   C36       1.0  0.28716  0.95802  0.75494  1.0000
  C   C37       1.0  0.64272  0.72644  0.91083  1.0000
  C   C38       1.0  0.85728  0.08918  0.27356  1.0000
  C   C39       1.0  0.35725  0.27355  0.08918  1.0000
  C   C40       1.0  0.14275  0.91084  0.72644  1.0000
  N   N1        1.0  0.03871  0.51598  0.36508  1.0000
  N   N2        1.0  0.46129  0.63492  0.48402  1.0000
  N   N3        1.0  0.96133  0.48402  0.63493  1.0000
  N   N4        1.0  0.53867  0.36508  0.51598  1.0000
  N   N5        1.0  0.89380  0.44685  0.41579  1.0000
  N   N6        1.0  0.60620  0.58422  0.55315  1.0000
  N   N7        1.0  0.10620  0.55313  0.58422  1.0000
  N   N8        1.0  0.39380  0.41579  0.44687  1.0000
  N   N9        1.0  0.84537  0.40232  0.32681  1.0000
  N   N10       1.0  0.65464  0.67320  0.59767  1.0000
  N   N11       1.0  0.15463  0.59767  0.67322  1.0000
  N   N12       1.0  0.34537  0.32680  0.40233  1.0000
  N   N13       1.0  0.95089  0.44056  0.21973  1.0000
  N   N14       1.0  0.54910  0.78027  0.55944  1.0000
  N   N15       1.0  0.04908  0.55944  0.78028  1.0000
  N   N16       1.0  0.45090  0.21973  0.44056  1.0000
  N   N17       1.0  0.33422  0.61050  0.20879  1.0000
  N   N18       1.0  0.16577  0.79121  0.38950  1.0000
  N   N19       1.0  0.66577  0.38949  0.79121  1.0000
  N   N20       1.0  0.83423  0.20879  0.61050  1.0000
