data_image0
_chemical_formula_structural       Cu2H30C38S2N6O8
_chemical_formula_sum              "Cu2 H30 C38 S2 N6 O8"
_cell_length_a       8.61169
_cell_length_b       10.6225
_cell_length_c       11.7766
_cell_angle_alpha    63.1969
_cell_angle_beta     79.7602
_cell_angle_gamma    66.7848

_space_group_name_H-M_alt    "P 1"
_space_group_IT_number       1

loop_
  _space_group_symop_operation_xyz
  'x, y, z'

loop_
  _atom_site_type_symbol
  _atom_site_label
  _atom_site_symmetry_multiplicity
  _atom_site_fract_x
  _atom_site_fract_y
  _atom_site_fract_z
  _atom_site_occupancy
  Cu  Cu1       1.0  0.25001  0.11871  0.76283  1.0000
  Cu  Cu2       1.0  0.74999  0.88129  0.23717  1.0000
  H   H1        1.0  0.92018  0.14144  0.91709  1.0000
  H   H2        1.0  0.57988  0.94175  0.91725  1.0000
  H   H3        1.0  0.07983  0.85856  0.08291  1.0000
  H   H4        1.0  0.42012  0.05826  0.08275  1.0000
  H   H5        1.0  0.61578  0.26908  0.86306  1.0000
  H   H6        1.0  0.88421  0.86793  0.86331  1.0000
  H   H7        1.0  0.38422  0.73092  0.13694  1.0000
  H   H8        1.0  0.11579  0.13207  0.13669  1.0000
  H   H9        1.0  0.52816  0.41940  0.63392  1.0000
  H   H10       1.0  0.97199  0.94620  0.63419  1.0000
  H   H11       1.0  0.47185  0.58059  0.36609  1.0000
  H   H12       1.0  0.02801  0.05380  0.36581  1.0000
  H   H13       1.0  0.75655  0.43391  0.46471  1.0000
  H   H14       1.0  0.74363  0.10089  0.46491  1.0000
  H   H15       1.0  0.24344  0.56609  0.53529  1.0000
  H   H16       1.0  0.25637  0.89911  0.53509  1.0000
  H   H17       1.0  0.97611  0.42491  0.33309  1.0000
  H   H18       1.0  0.52431  0.24225  0.33323  1.0000
  H   H19       1.0  0.02389  0.57509  0.66691  1.0000
  H   H20       1.0  0.47570  0.75775  0.66677  1.0000
  H   H21       1.0  0.25028  0.39325  0.21393  1.0000
  H   H22       1.0  0.74972  0.60675  0.78607  1.0000
  H   H23       1.0  0.35497  0.60538  0.98679  1.0000
  H   H24       1.0  0.14473  0.40811  0.98700  1.0000
  H   H25       1.0  0.64503  0.39462  0.01321  1.0000
  H   H26       1.0  0.85527  0.59189  0.01300  1.0000
  H   H27       1.0  0.13107  0.67621  0.98355  1.0000
  H   H28       1.0  0.36861  0.34066  0.98368  1.0000
  H   H29       1.0  0.86893  0.32379  0.01645  1.0000
  H   H30       1.0  0.63139  0.65934  0.01632  1.0000
  C   C1        1.0  0.87947  0.20792  0.81819  1.0000
  C   C2        1.0  0.62058  0.97411  0.81835  1.0000
  C   C3        1.0  0.12053  0.79208  0.18181  1.0000
  C   C4        1.0  0.37942  0.02589  0.18165  1.0000
  C   C5        1.0  0.70838  0.28029  0.78666  1.0000
  C   C6        1.0  0.79168  0.93309  0.78686  1.0000
  C   C7        1.0  0.29162  0.71971  0.21335  1.0000
  C   C8        1.0  0.20832  0.06691  0.21314  1.0000
  C   C9        1.0  0.66181  0.36303  0.65880  1.0000
  C   C10       1.0  0.83833  0.97795  0.65903  1.0000
  C   C11       1.0  0.33819  0.63697  0.34120  1.0000
  C   C12       1.0  0.16167  0.02205  0.34097  1.0000
  C   C13       1.0  0.78745  0.36991  0.56574  1.0000
  C   C14       1.0  0.71273  0.06412  0.56594  1.0000
  C   C15       1.0  0.21255  0.63009  0.43426  1.0000
  C   C16       1.0  0.28727  0.93588  0.43406  1.0000
  C   C17       1.0  0.95642  0.29448  0.60374  1.0000
  C   C18       1.0  0.54374  0.10185  0.60388  1.0000
  C   C19       1.0  0.04358  0.70552  0.39626  1.0000
  C   C20       1.0  0.45625  0.89815  0.39612  1.0000
  C   C21       1.0  0.10136  0.29111  0.51622  1.0000
  C   C22       1.0  0.39888  0.19279  0.51628  1.0000
  C   C23       1.0  0.89864  0.70889  0.48378  1.0000
  C   C24       1.0  0.60112  0.80721  0.48372  1.0000
  C   C25       1.0  0.09667  0.35940  0.38314  1.0000
  C   C26       1.0  0.40369  0.25763  0.38322  1.0000
  C   C27       1.0  0.90333  0.64060  0.61686  1.0000
  C   C28       1.0  0.59631  0.74237  0.61678  1.0000
  C   C29       1.0  0.25021  0.34133  0.31766  1.0000
  C   C30       1.0  0.74979  0.65867  0.68234  1.0000
  C   C31       1.0  0.24326  0.83311  0.84234  1.0000
  C   C32       1.0  0.25650  0.32473  0.84256  1.0000
  C   C33       1.0  0.75674  0.16689  0.15766  1.0000
  C   C34       1.0  0.74350  0.67527  0.15743  1.0000
  C   C35       1.0  0.24470  0.67191  0.92290  1.0000
  C   C36       1.0  0.25494  0.40547  0.92308  1.0000
  C   C37       1.0  0.75530  0.32809  0.07710  1.0000
  C   C38       1.0  0.74506  0.59453  0.07692  1.0000
  S   S1        1.0  0.24982  0.59347  0.81331  1.0000
  S   S2        1.0  0.75018  0.40653  0.18669  1.0000
  N   N1        1.0  0.00001  0.21549  0.72909  1.0000
  N   N2        1.0  0.50008  0.05565  0.72922  1.0000
  N   N3        1.0  1.00000  0.78451  0.27091  1.0000
  N   N4        1.0  0.49992  0.94435  0.27078  1.0000
  N   N5        1.0  0.25009  0.21142  0.57730  1.0000
  N   N6        1.0  0.74991  0.78858  0.42270  1.0000
  O   O1        1.0  0.25753  0.90281  0.90266  1.0000
  O   O2        1.0  0.24219  0.19473  0.90284  1.0000
  O   O3        1.0  0.74247  0.09719  0.09733  1.0000
  O   O4        1.0  0.75780  0.80527  0.09716  1.0000
  O   O5        1.0  0.22833  0.88666  0.72369  1.0000
  O   O6        1.0  0.27154  0.38983  0.72391  1.0000
  O   O7        1.0  0.77167  0.11334  0.27631  1.0000
  O   O8        1.0  0.72847  0.61017  0.27609  1.0000
