data_image0
_chemical_formula_structural       Cu2H24C35N2O14
_chemical_formula_sum              "Cu2 H24 C35 N2 O14"
_cell_length_a       9.60796
_cell_length_b       10.2425
_cell_length_c       10.939
_cell_angle_alpha    70.6128
_cell_angle_beta     66.0346
_cell_angle_gamma    63.1513

_space_group_name_H-M_alt    "P 1"
_space_group_IT_number       1

loop_
  _space_group_symop_operation_xyz
  'x, y, z'

loop_
  _atom_site_type_symbol
  _atom_site_label
  _atom_site_symmetry_multiplicity
  _atom_site_fract_x
  _atom_site_fract_y
  _atom_site_fract_z
  _atom_site_occupancy
  Cu  Cu1       1.0  0.37096  0.48787  0.50283  1.0000
  Cu  Cu2       1.0  0.62907  0.51213  0.49716  1.0000
  H   H1        1.0  0.00464  0.89371  0.62704  1.0000
  H   H2        1.0  0.99535  0.10629  0.37296  1.0000
  H   H3        1.0  0.83126  0.14533  0.69350  1.0000
  H   H4        1.0  0.16873  0.85468  0.30650  1.0000
  H   H5        1.0  0.95956  0.28703  0.72713  1.0000
  H   H6        1.0  0.04045  0.71297  0.27287  1.0000
  H   H7        1.0  0.26204  0.18948  0.68121  1.0000
  H   H8        1.0  0.73797  0.81051  0.31879  1.0000
  H   H9        1.0  0.43310  0.94075  0.61172  1.0000
  H   H10       1.0  0.56690  0.05924  0.38828  1.0000
  H   H11       1.0  0.25480  0.21683  0.90303  1.0000
  H   H12       1.0  0.74519  0.78317  0.09698  1.0000
  H   H13       1.0  0.21765  0.08903  0.14458  1.0000
  H   H14       1.0  0.78235  0.91097  0.85543  1.0000
  H   H15       1.0  0.38639  0.08277  0.27104  1.0000
  H   H16       1.0  0.61361  0.91724  0.72896  1.0000
  H   H17       1.0  0.58981  0.20705  0.15536  1.0000
  H   H18       1.0  0.41019  0.79295  0.84463  1.0000
  H   H19       1.0  0.62641  0.33412  0.91255  1.0000
  H   H20       1.0  0.37359  0.66588  0.08744  1.0000
  H   H21       1.0  0.26106  0.37565  0.34334  1.0000
  H   H22       1.0  0.73895  0.62435  0.65666  1.0000
  H   H23       1.0  0.00842  0.60320  0.66668  1.0000
  H   H24       1.0  0.99159  0.39679  0.33332  1.0000
  C   C1        1.0  0.33123  0.75232  0.57828  1.0000
  C   C2        1.0  0.66876  0.24768  0.42172  1.0000
  C   C3        1.0  0.22809  0.90210  0.61787  1.0000
  C   C4        1.0  0.77190  0.09789  0.38213  1.0000
  C   C5        1.0  0.05865  0.95948  0.64019  1.0000
  C   C6        1.0  0.94134  0.04052  0.35981  1.0000
  C   C7        1.0  0.96272  0.09842  0.67813  1.0000
  C   C8        1.0  0.03727  0.90158  0.32187  1.0000
  C   C9        1.0  0.03551  0.17966  0.69524  1.0000
  C   C10       1.0  0.96449  0.82034  0.30476  1.0000
  C   C11       1.0  0.20490  0.12411  0.67127  1.0000
  C   C12       1.0  0.79510  0.87588  0.32873  1.0000
  C   C13       1.0  0.30092  0.98579  0.63212  1.0000
  C   C14       1.0  0.69908  0.01421  0.36788  1.0000
  C   C15       1.0  0.46410  0.36107  0.74807  1.0000
  C   C16       1.0  0.53589  0.63893  0.25193  1.0000
  C   C17       1.0  0.44333  0.28239  0.89318  1.0000
  C   C18       1.0  0.55666  0.71762  0.10682  1.0000
  C   C19       1.0  0.32779  0.21370  0.95909  1.0000
  C   C20       1.0  0.67220  0.78630  0.04091  1.0000
  C   C21       1.0  0.30765  0.14216  0.09446  1.0000
  C   C22       1.0  0.69234  0.85784  0.90555  1.0000
  C   C23       1.0  0.40223  0.13919  0.16506  1.0000
  C   C24       1.0  0.59777  0.86081  0.83494  1.0000
  C   C25       1.0  0.51704  0.20823  0.09995  1.0000
  C   C26       1.0  0.48295  0.79177  0.90005  1.0000
  C   C27       1.0  0.53821  0.27912  0.96431  1.0000
  C   C28       1.0  0.46178  0.72089  0.03569  1.0000
  C   C29       1.0  0.14377  0.43079  0.41352  1.0000
  C   C30       1.0  0.85624  0.56921  0.58648  1.0000
  C   C31       1.0  0.00370  0.55716  0.59242  1.0000
  C   C32       1.0  0.99631  0.44284  0.40758  1.0000
  C   C33       1.0  0.13010  0.57646  0.99127  1.0000
  C   C34       1.0  0.86990  0.42355  0.00873  1.0000
  C   C35       1.0  1.00000  1.00000  1.00000  1.0000
  N   N1        1.0  0.14687  0.48791  0.50591  1.0000
  N   N2        1.0  0.85314  0.51210  0.49409  1.0000
  O   O1        1.0  0.25740  0.68452  0.56350  1.0000
  O   O2        1.0  0.74261  0.31547  0.43650  1.0000
  O   O3        1.0  0.48405  0.70597  0.56190  1.0000
  O   O4        1.0  0.51595  0.29404  0.43810  1.0000
  O   O5        1.0  0.36117  0.37645  0.69402  1.0000
  O   O6        1.0  0.63884  0.62356  0.30597  1.0000
  O   O7        1.0  0.58331  0.40655  0.69141  1.0000
  O   O8        1.0  0.41670  0.59345  0.30860  1.0000
  O   O9        1.0  0.09320  0.60105  0.89354  1.0000
  O   O10       1.0  0.90679  0.39896  0.10645  1.0000
  O   O11       1.0  0.16686  0.55263  0.08899  1.0000
  O   O12       1.0  0.83314  0.44737  0.91100  1.0000
  O   O13       1.0  0.01970  0.88852  0.97539  1.0000
  O   O14       1.0  0.98030  0.11148  0.02461  1.0000
