data_image0
_chemical_formula_structural       Cd4H24C32N16O8
_chemical_formula_sum              "Cd4 H24 C32 N16 O8"
_cell_length_a       8.73383
_cell_length_b       8.7338
_cell_length_c       12.1808
_cell_angle_alpha    90.0004
_cell_angle_beta     90
_cell_angle_gamma    96.2619

_space_group_name_H-M_alt    "P 1"
_space_group_IT_number       1

loop_
  _space_group_symop_operation_xyz
  'x, y, z'

loop_
  _atom_site_type_symbol
  _atom_site_label
  _atom_site_symmetry_multiplicity
  _atom_site_fract_x
  _atom_site_fract_y
  _atom_site_fract_z
  _atom_site_occupancy
  Cd  Cd1       1.0  0.00000  0.50000  0.76131  1.0000
  Cd  Cd2       1.0  0.50000  0.00000  0.26131  1.0000
  Cd  Cd3       1.0  0.99999  0.00000  0.15786  1.0000
  Cd  Cd4       1.0  1.00000  1.00000  0.65786  1.0000
  H   H1        1.0  0.59524  0.29593  0.42372  1.0000
  H   H2        1.0  0.40476  0.70407  0.42372  1.0000
  H   H3        1.0  0.70407  0.40476  0.92372  1.0000
  H   H4        1.0  0.29593  0.59524  0.92372  1.0000
  H   H5        1.0  0.75814  0.26228  0.61708  1.0000
  H   H6        1.0  0.24186  0.73772  0.61708  1.0000
  H   H7        1.0  0.73772  0.24186  0.11708  1.0000
  H   H8        1.0  0.26227  0.75815  0.11708  1.0000
  H   H9        1.0  0.82542  0.48159  0.39296  1.0000
  H   H10       1.0  0.17458  0.51840  0.39296  1.0000
  H   H11       1.0  0.51840  0.17458  0.89296  1.0000
  H   H12       1.0  0.48160  0.82542  0.89296  1.0000
  H   H13       1.0  0.97687  0.63736  0.21756  1.0000
  H   H14       1.0  0.02313  0.36264  0.21756  1.0000
  H   H15       1.0  0.36264  0.02313  0.71756  1.0000
  H   H16       1.0  0.63736  0.97687  0.71756  1.0000
  H   H17       1.0  0.59959  0.58926  0.51990  1.0000
  H   H18       1.0  0.40041  0.41075  0.51990  1.0000
  H   H19       1.0  0.41074  0.40041  0.01990  1.0000
  H   H20       1.0  0.58926  0.59959  0.01989  1.0000
  H   H21       1.0  0.64635  0.78314  0.56259  1.0000
  H   H22       1.0  0.35365  0.21686  0.56259  1.0000
  H   H23       1.0  0.21685  0.35365  0.06259  1.0000
  H   H24       1.0  0.78314  0.64635  0.06259  1.0000
  C   C1        1.0  0.66543  0.20707  0.44902  1.0000
  C   C2        1.0  0.33457  0.79293  0.44902  1.0000
  C   C3        1.0  0.79292  0.33457  0.94902  1.0000
  C   C4        1.0  0.20707  0.66543  0.94902  1.0000
  C   C5        1.0  0.25514  0.81160  0.54535  1.0000
  C   C6        1.0  0.74486  0.18840  0.54535  1.0000
  C   C7        1.0  0.18840  0.74486  0.04535  1.0000
  C   C8        1.0  0.81160  0.25514  0.04534  1.0000
  C   C9        1.0  0.22186  0.00217  0.43526  1.0000
  C   C10       1.0  0.77814  0.99783  0.43526  1.0000
  C   C11       1.0  0.99782  0.77814  0.93526  1.0000
  C   C12       1.0  0.00218  0.22186  0.93526  1.0000
  C   C13       1.0  0.82329  0.85435  0.38953  1.0000
  C   C14       1.0  0.17671  0.14564  0.38953  1.0000
  C   C15       1.0  0.14564  0.17670  0.88953  1.0000
  C   C16       1.0  0.85436  0.82330  0.88953  1.0000
  C   C17       1.0  0.84005  0.60270  0.37131  1.0000
  C   C18       1.0  0.15995  0.39730  0.37131  1.0000
  C   C19       1.0  0.39730  0.15995  0.87131  1.0000
  C   C20       1.0  0.60270  0.84005  0.87131  1.0000
  C   C21       1.0  0.91497  0.68096  0.28591  1.0000
  C   C22       1.0  0.08503  0.31903  0.28590  1.0000
  C   C23       1.0  0.31903  0.08503  0.78591  1.0000
  C   C24       1.0  0.68096  0.91497  0.78591  1.0000
  C   C25       1.0  0.69503  0.67879  0.53552  1.0000
  C   C26       1.0  0.30497  0.32121  0.53552  1.0000
  C   C27       1.0  0.32121  0.30497  0.03552  1.0000
  C   C28       1.0  0.67879  0.69503  0.03552  1.0000
  C   C29       1.0  0.79802  0.62438  0.62558  1.0000
  C   C30       1.0  0.20198  0.37562  0.62557  1.0000
  C   C31       1.0  0.37562  0.20198  0.12557  1.0000
  C   C32       1.0  0.62438  0.79802  0.12557  1.0000
  N   N1        1.0  0.68671  0.08678  0.37998  1.0000
  N   N2        1.0  0.31330  0.91322  0.37998  1.0000
  N   N3        1.0  0.91322  0.31330  0.87998  1.0000
  N   N4        1.0  0.08678  0.68671  0.87998  1.0000
  N   N5        1.0  0.18376  0.94423  0.53663  1.0000
  N   N6        1.0  0.81624  0.05577  0.53664  1.0000
  N   N7        1.0  0.05577  0.81624  0.03664  1.0000
  N   N8        1.0  0.94423  0.18376  0.03663  1.0000
  N   N9        1.0  0.78132  0.71253  0.43505  1.0000
  N   N10       1.0  0.21869  0.28747  0.43505  1.0000
  N   N11       1.0  0.28747  0.21868  0.93505  1.0000
  N   N12       1.0  0.71253  0.78131  0.93505  1.0000
  N   N13       1.0  0.90380  0.83623  0.29736  1.0000
  N   N14       1.0  0.09621  0.16377  0.29736  1.0000
  N   N15       1.0  0.16377  0.09620  0.79736  1.0000
  N   N16       1.0  0.83623  0.90380  0.79736  1.0000
  O   O1        1.0  0.93861  0.68229  0.62600  1.0000
  O   O2        1.0  0.06139  0.31771  0.62600  1.0000
  O   O3        1.0  0.31771  0.06139  0.12600  1.0000
  O   O4        1.0  0.68229  0.93861  0.12600  1.0000
  O   O5        1.0  0.74020  0.52350  0.69243  1.0000
  O   O6        1.0  0.25980  0.47650  0.69243  1.0000
  O   O7        1.0  0.47650  0.25981  0.19243  1.0000
  O   O8        1.0  0.52350  0.74019  0.19243  1.0000
