data_image0
_chemical_formula_structural       Tb2H30C42O18
_chemical_formula_sum              "Tb2 H30 C42 O18"
_cell_length_a       5.27638
_cell_length_b       12.1158
_cell_length_c       16.2273
_cell_angle_alpha    92.8515
_cell_angle_beta     92.972
_cell_angle_gamma    102.304

_space_group_name_H-M_alt    "P 1"
_space_group_IT_number       1

loop_
  _space_group_symop_operation_xyz
  'x, y, z'

loop_
  _atom_site_type_symbol
  _atom_site_label
  _atom_site_symmetry_multiplicity
  _atom_site_fract_x
  _atom_site_fract_y
  _atom_site_fract_z
  _atom_site_occupancy
  Tb  Tb1       1.0  0.07899  0.87265  0.42987  1.0000
  Tb  Tb2       1.0  0.92103  0.12734  0.57011  1.0000
  H   H1        1.0  0.72464  0.62123  0.90632  1.0000
  H   H2        1.0  0.27533  0.37875  0.09365  1.0000
  H   H3        1.0  0.70733  0.34320  0.71308  1.0000
  H   H4        1.0  0.29266  0.65680  0.28690  1.0000
  H   H5        1.0  0.73938  0.34572  0.10159  1.0000
  H   H6        1.0  0.26058  0.65429  0.89842  1.0000
  H   H7        1.0  0.10480  0.62560  0.16741  1.0000
  H   H8        1.0  0.89519  0.37434  0.83259  1.0000
  H   H9        1.0  0.93684  0.56233  0.02356  1.0000
  H   H10       1.0  0.06312  0.43763  0.97643  1.0000
  H   H11       1.0  0.43695  0.80051  0.02792  1.0000
  H   H12       1.0  0.56310  0.19949  0.97206  1.0000
  H   H13       1.0  0.60996  0.86593  0.17277  1.0000
  H   H14       1.0  0.39002  0.13407  0.82724  1.0000
  H   H15       1.0  0.87404  0.59653  0.51219  1.0000
  H   H16       1.0  0.12599  0.40350  0.48779  1.0000
  H   H17       1.0  0.89834  0.44428  0.60764  1.0000
  H   H18       1.0  0.10168  0.55573  0.39234  1.0000
  H   H19       1.0  0.24885  0.51954  0.73228  1.0000
  H   H20       1.0  0.75120  0.48047  0.26771  1.0000
  H   H21       1.0  0.21729  0.66800  0.63343  1.0000
  H   H22       1.0  0.78279  0.33204  0.36658  1.0000
  H   H23       1.0  0.14092  0.16921  0.35506  1.0000
  H   H24       1.0  0.85906  0.83081  0.64494  1.0000
  H   H25       1.0  0.23705  0.30522  0.24598  1.0000
  H   H26       1.0  0.76292  0.69480  0.75403  1.0000
  H   H27       1.0  0.45718  0.18530  0.13674  1.0000
  H   H28       1.0  0.54279  0.81472  0.86328  1.0000
  H   H29       1.0  0.35935  0.05374  0.24938  1.0000
  H   H30       1.0  0.64063  0.94627  0.75063  1.0000
  C   C1        1.0  0.86885  0.75122  0.17926  1.0000
  C   C2        1.0  0.13116  0.24875  0.82073  1.0000
  C   C3        1.0  0.96035  0.66503  0.13737  1.0000
  C   C4        1.0  0.03964  0.33492  0.86264  1.0000
  C   C5        1.0  0.86730  0.62936  0.05659  1.0000
  C   C6        1.0  0.13272  0.37060  0.94342  1.0000
  C   C7        1.0  0.68106  0.67874  0.01717  1.0000
  C   C8        1.0  0.31895  0.32123  0.98283  1.0000
  C   C9        1.0  0.58423  0.76331  0.05879  1.0000
  C   C10       1.0  0.41578  0.23668  0.94121  1.0000
  C   C11       1.0  0.68031  0.79949  0.13920  1.0000
  C   C12       1.0  0.31967  0.20051  0.86081  1.0000
  C   C13       1.0  0.95840  0.79209  0.26563  1.0000
  C   C14       1.0  0.04159  0.20787  0.73436  1.0000
  C   C15       1.0  0.54217  0.64184  0.56603  1.0000
  C   C16       1.0  0.45786  0.35818  0.43396  1.0000
  C   C17       1.0  0.73624  0.57899  0.56008  1.0000
  C   C18       1.0  0.26378  0.42103  0.43991  1.0000
  C   C19       1.0  0.75049  0.49418  0.61327  1.0000
  C   C20       1.0  0.24954  0.50583  0.38671  1.0000
  C   C21       1.0  0.57423  0.47205  0.67563  1.0000
  C   C22       1.0  0.42579  0.52795  0.32435  1.0000
  C   C23       1.0  0.38398  0.53677  0.68354  1.0000
  C   C24       1.0  0.61604  0.46323  0.31644  1.0000
  C   C25       1.0  0.36736  0.61943  0.62853  1.0000
  C   C26       1.0  0.63268  0.38059  0.37146  1.0000
  C   C27       1.0  0.51930  0.72776  0.50625  1.0000
  C   C28       1.0  0.48073  0.27225  0.49376  1.0000
  C   C29       1.0  0.74197  0.10532  0.31101  1.0000
  C   C30       1.0  0.25802  0.89470  0.68900  1.0000
  C   C31       1.0  0.99141  0.17337  0.30738  1.0000
  C   C32       1.0  0.00860  0.82664  0.69263  1.0000
  C   C33       1.0  0.04626  0.24887  0.24580  1.0000
  C   C34       1.0  0.95371  0.75116  0.75422  1.0000
  C   C35       1.0  0.85062  0.25564  0.18593  1.0000
  C   C36       1.0  0.14937  0.74438  0.81409  1.0000
  C   C37       1.0  0.60593  0.18177  0.18503  1.0000
  C   C38       1.0  0.39404  0.81825  0.81499  1.0000
  C   C39       1.0  0.55184  0.10833  0.24790  1.0000
  C   C40       1.0  0.44813  0.89168  0.75212  1.0000
  C   C41       1.0  0.67422  0.03627  0.38198  1.0000
  C   C42       1.0  0.32576  0.96374  0.61803  1.0000
  O   O1        1.0  0.10674  0.74363  0.31083  1.0000
  O   O2        1.0  0.89334  0.25636  0.68916  1.0000
  O   O3        1.0  0.88543  0.87802  0.29696  1.0000
  O   O4        1.0  0.11438  0.12189  0.70305  1.0000
  O   O5        1.0  0.58634  0.64437  0.93700  1.0000
  O   O6        1.0  0.41368  0.35558  0.06300  1.0000
  O   O7        1.0  0.71220  0.76333  0.46265  1.0000
  O   O8        1.0  0.28783  0.23668  0.53735  1.0000
  O   O9        1.0  0.30925  0.76404  0.49940  1.0000
  O   O10       1.0  0.69078  0.23598  0.50060  1.0000
  O   O11       1.0  0.58164  0.39120  0.72940  1.0000
  O   O12       1.0  0.41840  0.60882  0.27058  1.0000
  O   O13       1.0  0.44009  0.98887  0.38959  1.0000
  O   O14       1.0  0.55989  0.01117  0.61043  1.0000
  O   O15       1.0  0.85790  0.02835  0.43719  1.0000
  O   O16       1.0  0.14208  0.97164  0.56282  1.0000
  O   O17       1.0  0.90486  0.33683  0.12943  1.0000
  O   O18       1.0  0.09513  0.66321  0.87058  1.0000
