data_image0
_chemical_formula_structural       Zn2H48C34N6O14
_chemical_formula_sum              "Zn2 H48 C34 N6 O14"
_cell_length_a       7.01157
_cell_length_b       9.25094
_cell_length_c       16.2976
_cell_angle_alpha    81.3779
_cell_angle_beta     87.4086
_cell_angle_gamma    69.6813

_space_group_name_H-M_alt    "P 1"
_space_group_IT_number       1

loop_
  _space_group_symop_operation_xyz
  'x, y, z'

loop_
  _atom_site_type_symbol
  _atom_site_label
  _atom_site_symmetry_multiplicity
  _atom_site_fract_x
  _atom_site_fract_y
  _atom_site_fract_z
  _atom_site_occupancy
  Zn  Zn1       1.0  0.96899  0.31347  0.12989  1.0000
  Zn  Zn2       1.0  0.03101  0.68652  0.87011  1.0000
  H   H1        1.0  0.23509  0.36624  0.01492  1.0000
  H   H2        1.0  0.76493  0.63376  0.98508  1.0000
  H   H3        1.0  0.29275  0.19229  0.07291  1.0000
  H   H4        1.0  0.70728  0.80770  0.92709  1.0000
  H   H5        1.0  0.91574  0.21544  0.44475  1.0000
  H   H6        1.0  0.08424  0.78457  0.55525  1.0000
  H   H7        1.0  0.81750  0.23780  0.29693  1.0000
  H   H8        1.0  0.18250  0.76221  0.70306  1.0000
  H   H9        1.0  0.33209  0.33498  0.21053  1.0000
  H   H10       1.0  0.66792  0.66501  0.78947  1.0000
  H   H11       1.0  0.45065  0.32021  0.35395  1.0000
  H   H12       1.0  0.54937  0.67977  0.64606  1.0000
  H   H13       1.0  0.60450  0.41150  0.57632  1.0000
  H   H14       1.0  0.39551  0.58850  0.42369  1.0000
  H   H15       1.0  0.46772  0.43633  0.67074  1.0000
  H   H16       1.0  0.53227  0.56367  0.32926  1.0000
  H   H17       1.0  0.33315  0.49690  0.57391  1.0000
  H   H18       1.0  0.66686  0.50310  0.42610  1.0000
  H   H19       1.0  0.64777  0.00508  0.65327  1.0000
  H   H20       1.0  0.35219  0.99492  0.34673  1.0000
  H   H21       1.0  0.63146  0.13743  0.72400  1.0000
  H   H22       1.0  0.36851  0.86255  0.27601  1.0000
  H   H23       1.0  0.77644  0.14184  0.63136  1.0000
  H   H24       1.0  0.22354  0.85815  0.36864  1.0000
  H   H25       1.0  0.12832  0.46116  0.68553  1.0000
  H   H26       1.0  0.87166  0.53886  0.31446  1.0000
  H   H27       1.0  0.23127  0.30031  0.76445  1.0000
  H   H28       1.0  0.76870  0.69970  0.23555  1.0000
  H   H29       1.0  0.99000  0.33500  0.71918  1.0000
  H   H30       1.0  0.00997  0.66503  0.28081  1.0000
  H   H31       1.0  0.09146  0.07217  0.68186  1.0000
  H   H32       1.0  0.90849  0.92785  0.31814  1.0000
  H   H33       1.0  0.33245  0.02122  0.72989  1.0000
  H   H34       1.0  0.66752  0.97880  0.27011  1.0000
  H   H35       1.0  0.31740  0.99185  0.62466  1.0000
  H   H36       1.0  0.68257  0.00816  0.37534  1.0000
  H   H37       1.0  0.39510  0.66299  0.02066  1.0000
  H   H38       1.0  0.60492  0.33702  0.97933  1.0000
  H   H39       1.0  0.47422  0.77681  0.07913  1.0000
  H   H40       1.0  0.52581  0.22318  0.92087  1.0000
  H   H41       1.0  0.27885  0.70057  0.20257  1.0000
  H   H42       1.0  0.72118  0.29943  0.79743  1.0000
  H   H43       1.0  0.18734  0.59902  0.14014  1.0000
  H   H44       1.0  0.81269  0.40097  0.85986  1.0000
  H   H45       1.0  0.03398  0.84879  0.04079  1.0000
  H   H46       1.0  0.96604  0.15120  0.95921  1.0000
  H   H47       1.0  0.92205  0.85122  0.13939  1.0000
  H   H48       1.0  0.07798  0.14876  0.86061  1.0000
  C   C1        1.0  0.19256  0.26776  0.41175  1.0000
  C   C2        1.0  0.80744  0.73225  0.58825  1.0000
  C   C3        1.0  0.01276  0.24201  0.39511  1.0000
  C   C4        1.0  0.98724  0.75800  0.60489  1.0000
  C   C5        1.0  0.95759  0.25314  0.31306  1.0000
  C   C6        1.0  0.04240  0.74687  0.68694  1.0000
  C   C7        1.0  0.24433  0.30883  0.26406  1.0000
  C   C8        1.0  0.75568  0.69115  0.73595  1.0000
  C   C9        1.0  0.31008  0.30037  0.34431  1.0000
  C   C10       1.0  0.68993  0.69961  0.65570  1.0000
  C   C11       1.0  0.25582  0.25896  0.49653  1.0000
  C   C12       1.0  0.74417  0.74105  0.50347  1.0000
  C   C13       1.0  0.45500  0.24447  0.61241  1.0000
  C   C14       1.0  0.54499  0.75552  0.38759  1.0000
  C   C15       1.0  0.46433  0.40875  0.60772  1.0000
  C   C16       1.0  0.53566  0.59124  0.39229  1.0000
  C   C17       1.0  0.63870  0.12392  0.65802  1.0000
  C   C18       1.0  0.36128  0.87607  0.34198  1.0000
  C   C19       1.0  0.24523  0.23556  0.64272  1.0000
  C   C20       1.0  0.75474  0.76445  0.35728  1.0000
  C   C21       1.0  0.14229  0.34024  0.70655  1.0000
  C   C22       1.0  0.85768  0.65978  0.29345  1.0000
  C   C23       1.0  0.24834  0.06900  0.67111  1.0000
  C   C24       1.0  0.75162  0.93102  0.32890  1.0000
  C   C25       1.0  0.60772  0.53325  0.11677  1.0000
  C   C26       1.0  0.39231  0.46674  0.88323  1.0000
  C   C27       1.0  0.42805  0.67355  0.08456  1.0000
  C   C28       1.0  0.57198  0.32645  0.91543  1.0000
  C   C29       1.0  0.23895  0.69895  0.13824  1.0000
  C   C30       1.0  0.76108  0.30104  0.86175  1.0000
  C   C31       1.0  0.06375  0.84762  0.10680  1.0000
  C   C32       1.0  0.93627  0.15238  0.89319  1.0000
  C   C33       1.0  0.09695  0.00006  0.11211  1.0000
  C   C34       1.0  0.90306  0.99994  0.88789  1.0000
  N   N1        1.0  0.06949  0.28734  0.24853  1.0000
  N   N2        1.0  0.93051  0.71266  0.75147  1.0000
  N   N3        1.0  0.45076  0.21558  0.52351  1.0000
  N   N4        1.0  0.54923  0.78442  0.47649  1.0000
  N   N5        1.0  0.12758  0.29085  0.56160  1.0000
  N   N6        1.0  0.87240  0.70915  0.43840  1.0000
  O   O1        1.0  0.61218  0.16722  0.48069  1.0000
  O   O2        1.0  0.38780  0.83279  0.51931  1.0000
  O   O3        1.0  0.93358  0.34734  0.55834  1.0000
  O   O4        1.0  0.06642  0.65266  0.44166  1.0000
  O   O5        1.0  0.60450  0.44298  0.18162  1.0000
  O   O6        1.0  0.39551  0.55703  0.81837  1.0000
  O   O7        1.0  0.77443  0.51106  0.07225  1.0000
  O   O8        1.0  0.22561  0.48893  0.92774  1.0000
  O   O9        1.0  0.27312  0.00715  0.11264  1.0000
  O   O10       1.0  0.72689  0.99284  0.88736  1.0000
  O   O11       1.0  0.93048  0.11895  0.11408  1.0000
  O   O12       1.0  0.06954  0.88104  0.88592  1.0000
  O   O13       1.0  0.23713  0.30739  0.07216  1.0000
  O   O14       1.0  0.76289  0.69261  0.92784  1.0000
