data_image0
_chemical_formula_structural       Cu6H64C36N16O26
_chemical_formula_sum              "Cu6 H64 C36 N16 O26"
_cell_length_a       11.128
_cell_length_b       11.2065
_cell_length_c       12.635
_cell_angle_alpha    105.153
_cell_angle_beta     105.262
_cell_angle_gamma    101.693

_space_group_name_H-M_alt    "P 1"
_space_group_IT_number       1

loop_
  _space_group_symop_operation_xyz
  'x, y, z'

loop_
  _atom_site_type_symbol
  _atom_site_label
  _atom_site_symmetry_multiplicity
  _atom_site_fract_x
  _atom_site_fract_y
  _atom_site_fract_z
  _atom_site_occupancy
  Cu  Cu1       1.0  0.30792  0.23917  0.21541  1.0000
  Cu  Cu2       1.0  0.75912  0.69124  0.28777  1.0000
  Cu  Cu3       1.0  0.69165  0.76077  0.78428  1.0000
  Cu  Cu4       1.0  0.24116  0.30892  0.71275  1.0000
  Cu  Cu5       1.0  0.15451  0.84700  0.75418  1.0000
  Cu  Cu6       1.0  0.84514  0.15238  0.24523  1.0000
  H   H1        1.0  0.32865  0.60352  0.03250  1.0000
  H   H2        1.0  0.38816  0.66935  0.46875  1.0000
  H   H3        1.0  0.67048  0.39688  0.96687  1.0000
  H   H4        1.0  0.61203  0.32995  0.53042  1.0000
  H   H5        1.0  0.04457  0.80797  0.05335  1.0000
  H   H6        1.0  0.19730  0.96407  0.45660  1.0000
  H   H7        1.0  0.95585  0.19364  0.94824  1.0000
  H   H8        1.0  0.80296  0.03546  0.54411  1.0000
  H   H9        1.0  0.07792  0.52950  0.22945  1.0000
  H   H10       1.0  0.47282  0.92196  0.27714  1.0000
  H   H11       1.0  0.92267  0.47129  0.77121  1.0000
  H   H12       1.0  0.52764  0.07903  0.72354  1.0000
  H   H13       1.0  0.04665  0.06289  0.80002  1.0000
  H   H14       1.0  0.92500  0.93775  0.72503  1.0000
  H   H15       1.0  0.95586  0.93907  0.19862  1.0000
  H   H16       1.0  0.07650  0.06465  0.27373  1.0000
  H   H17       1.0  0.54549  0.32450  0.34944  1.0000
  H   H18       1.0  0.67658  0.45765  0.14808  1.0000
  H   H19       1.0  0.45417  0.67538  0.64954  1.0000
  H   H20       1.0  0.32348  0.54289  0.85159  1.0000
  H   H21       1.0  0.48692  0.45056  0.35004  1.0000
  H   H22       1.0  0.54838  0.51368  0.14897  1.0000
  H   H23       1.0  0.51292  0.54947  0.64916  1.0000
  H   H24       1.0  0.45185  0.48708  0.85084  1.0000
  H   H25       1.0  0.44655  0.35511  0.42367  1.0000
  H   H26       1.0  0.64482  0.55905  0.07748  1.0000
  H   H27       1.0  0.55371  0.64512  0.57584  1.0000
  H   H28       1.0  0.35565  0.44198  0.92265  1.0000
  H   H29       1.0  0.14814  0.16457  0.00776  1.0000
  H   H30       1.0  0.82770  0.83707  0.50048  1.0000
  H   H31       1.0  0.84931  0.83508  0.99286  1.0000
  H   H32       1.0  0.17212  0.16155  0.50064  1.0000
  H   H33       1.0  0.18444  0.03619  0.03312  1.0000
  H   H34       1.0  0.96179  0.81592  0.47299  1.0000
  H   H35       1.0  0.81583  0.96400  0.96642  1.0000
  H   H36       1.0  0.03812  0.18320  0.52795  1.0000
  H   H37       1.0  0.08341  0.09721  0.09151  1.0000
  H   H38       1.0  0.88842  0.91522  0.42272  1.0000
  H   H39       1.0  0.91693  0.90062  0.90997  1.0000
  H   H40       1.0  0.11145  0.08433  0.57905  1.0000
  H   H41       1.0  0.97710  0.67122  0.76262  1.0000
  H   H42       1.0  0.32812  0.02147  0.74023  1.0000
  H   H43       1.0  0.02194  0.32840  0.23671  1.0000
  H   H44       1.0  0.67254  0.97686  0.25924  1.0000
  H   H45       1.0  0.07579  0.61203  0.70016  1.0000
  H   H46       1.0  0.39093  0.92830  0.80671  1.0000
  H   H47       1.0  0.92359  0.38752  0.29969  1.0000
  H   H48       1.0  0.60912  0.07000  0.19313  1.0000
  H   H49       1.0  0.94861  0.64810  0.62300  1.0000
  H   H50       1.0  0.35311  0.05534  0.88084  1.0000
  H   H51       1.0  0.05094  0.35118  0.37637  1.0000
  H   H52       1.0  0.64706  0.94343  0.11863  1.0000
  H   H53       1.0  0.43901  0.24967  0.90726  1.0000
  H   H54       1.0  0.75191  0.55912  0.59298  1.0000
  H   H55       1.0  0.56001  0.74927  0.09206  1.0000
  H   H56       1.0  0.24743  0.43993  0.40620  1.0000
  H   H57       1.0  0.52627  0.23748  0.02900  1.0000
  H   H58       1.0  0.76724  0.47262  0.47267  1.0000
  H   H59       1.0  0.47248  0.76254  0.97095  1.0000
  H   H60       1.0  0.23249  0.52607  0.52683  1.0000
  H   H61       1.0  0.39324  0.28319  0.02277  1.0000
  H   H62       1.0  0.71420  0.60049  0.47547  1.0000
  H   H63       1.0  0.60470  0.71563  0.97588  1.0000
  H   H64       1.0  0.28515  0.39789  0.52332  1.0000
  C   C1        1.0  0.21013  0.55475  0.13305  1.0000
  C   C2        1.0  0.44210  0.78890  0.37101  1.0000
  C   C3        1.0  0.78977  0.44584  0.86693  1.0000
  C   C4        1.0  0.55825  0.21132  0.62895  1.0000
  C   C5        1.0  0.25023  0.62218  0.06400  1.0000
  C   C6        1.0  0.37285  0.74962  0.43949  1.0000
  C   C7        1.0  0.74929  0.37844  0.93587  1.0000
  C   C8        1.0  0.62748  0.25005  0.56022  1.0000
  C   C9        1.0  0.19003  0.71159  0.03310  1.0000
  C   C10       1.0  0.28584  0.81291  0.47238  1.0000
  C   C11       1.0  0.80962  0.28931  0.96725  1.0000
  C   C12       1.0  0.71453  0.18654  0.52761  1.0000
  C   C13       1.0  0.09165  0.73794  0.07658  1.0000
  C   C14       1.0  0.26472  0.91388  0.43182  1.0000
  C   C15       1.0  0.90861  0.26338  0.92453  1.0000
  C   C16       1.0  0.73562  0.08592  0.56867  1.0000
  C   C17       1.0  0.05194  0.67295  0.14785  1.0000
  C   C18       1.0  0.33140  0.95271  0.36126  1.0000
  C   C19       1.0  0.94867  0.32833  0.85336  1.0000
  C   C20       1.0  0.66898  0.04763  0.63948  1.0000
  C   C21       1.0  0.11065  0.58057  0.17522  1.0000
  C   C22       1.0  0.42054  0.89044  0.33119  1.0000
  C   C23       1.0  0.88972  0.42029  0.82539  1.0000
  C   C24       1.0  0.57986  0.11010  0.66927  1.0000
  C   C25       1.0  0.27195  0.45240  0.15399  1.0000
  C   C26       1.0  0.54300  0.72506  0.34819  1.0000
  C   C27       1.0  0.72794  0.54796  0.84549  1.0000
  C   C28       1.0  0.45733  0.27526  0.65161  1.0000
  C   C29       1.0  0.22278  0.76563  0.94383  1.0000
  C   C30       1.0  0.22893  0.78091  0.56054  1.0000
  C   C31       1.0  0.77633  0.23493  0.05617  1.0000
  C   C32       1.0  0.77145  0.21794  0.43923  1.0000
  C   C33       1.0  0.94368  0.69925  0.19088  1.0000
  C   C34       1.0  0.30876  0.06298  0.32148  1.0000
  C   C35       1.0  0.05746  0.30237  0.81102  1.0000
  C   C36       1.0  0.69131  0.93746  0.67952  1.0000
  N   N1        1.0  0.46435  0.35604  0.34810  1.0000
  N   N2        1.0  0.64379  0.53815  0.15170  1.0000
  N   N3        1.0  0.53549  0.64403  0.65121  1.0000
  N   N4        1.0  0.35650  0.46257  0.84826  1.0000
  N   N5        1.0  0.16603  0.12110  0.07005  1.0000
  N   N6        1.0  0.87261  0.82915  0.43828  1.0000
  N   N7        1.0  0.83333  0.87830  0.93023  1.0000
  N   N8        1.0  0.12728  0.17008  0.56291  1.0000
  N   N9        1.0  0.02328  0.67729  0.70313  1.0000
  N   N10       1.0  0.32365  0.97871  0.80207  1.0000
  N   N11       1.0  0.97605  0.32222  0.29638  1.0000
  N   N12       1.0  0.67670  0.01991  0.19753  1.0000
  N   N13       1.0  0.43260  0.22169  0.97694  1.0000
  N   N14       1.0  0.77925  0.56529  0.52288  1.0000
  N   N15       1.0  0.56620  0.77745  0.02243  1.0000
  N   N16       1.0  0.22018  0.43347  0.47627  1.0000
  O   O1        1.0  0.22521  0.38289  0.20905  1.0000
  O   O2        1.0  0.61265  0.77082  0.29260  1.0000
  O   O3        1.0  0.77459  0.61704  0.79010  1.0000
  O   O4        1.0  0.38787  0.22975  0.70748  1.0000
  O   O5        1.0  0.36295  0.43615  0.11505  1.0000
  O   O6        1.0  0.55830  0.63405  0.38661  1.0000
  O   O7        1.0  0.63707  0.56460  0.88452  1.0000
  O   O8        1.0  0.44194  0.36603  0.61292  1.0000
  O   O9        1.0  0.17358  0.85584  0.92456  1.0000
  O   O10       1.0  0.14268  0.83629  0.58314  1.0000
  O   O11       1.0  0.82493  0.14421  0.07492  1.0000
  O   O12       1.0  0.85755  0.16235  0.41663  1.0000
  O   O13       1.0  0.28786  0.71494  0.88698  1.0000
  O   O14       1.0  0.27394  0.71057  0.61374  1.0000
  O   O15       1.0  0.71142  0.28578  0.11313  1.0000
  O   O16       1.0  0.72652  0.28820  0.38587  1.0000
  O   O17       1.0  0.88380  0.77572  0.15871  1.0000
  O   O18       1.0  0.23869  0.12758  0.36044  1.0000
  O   O19       1.0  0.11827  0.22722  0.84463  1.0000
  O   O20       1.0  0.76162  0.87283  0.64100  1.0000
  O   O21       1.0  0.91446  0.63990  0.25936  1.0000
  O   O22       1.0  0.36200  0.08723  0.24764  1.0000
  O   O23       1.0  0.08582  0.36032  0.74133  1.0000
  O   O24       1.0  0.63749  0.91308  0.75295  1.0000
  O   O25       1.0  0.01324  0.96866  0.78364  1.0000
  O   O26       1.0  0.98919  0.03304  0.21356  1.0000
