data_image0
_chemical_formula_structural       Gd2H48C54N2O20
_chemical_formula_sum              "Gd2 H48 C54 N2 O20"
_cell_length_a       10.6286
_cell_length_b       11.39
_cell_length_c       11.739
_cell_angle_alpha    104.869
_cell_angle_beta     106.898
_cell_angle_gamma    95.9693

_space_group_name_H-M_alt    "P 1"
_space_group_IT_number       1

loop_
  _space_group_symop_operation_xyz
  'x, y, z'

loop_
  _atom_site_type_symbol
  _atom_site_label
  _atom_site_symmetry_multiplicity
  _atom_site_fract_x
  _atom_site_fract_y
  _atom_site_fract_z
  _atom_site_occupancy
  Gd  Gd1       1.0  0.09895  0.55913  0.37540  1.0000
  Gd  Gd2       1.0  0.90105  0.44087  0.62460  1.0000
  H   H1        1.0  0.04960  0.47144  0.10723  1.0000
  H   H2        1.0  0.95040  0.52856  0.89277  1.0000
  H   H3        1.0  0.90210  0.49551  0.09304  1.0000
  H   H4        1.0  0.09790  0.50448  0.90696  1.0000
  H   H5        1.0  0.92586  0.90396  0.55035  1.0000
  H   H6        1.0  0.07415  0.09605  0.44965  1.0000
  H   H7        1.0  0.76222  0.14878  0.52139  1.0000
  H   H8        1.0  0.23778  0.85122  0.47862  1.0000
  H   H9        1.0  0.08198  0.21087  0.88814  1.0000
  H   H10       1.0  0.91802  0.78913  0.11186  1.0000
  H   H11       1.0  0.19958  0.07355  0.99831  1.0000
  H   H12       1.0  0.80043  0.92645  0.00169  1.0000
  H   H13       1.0  0.28890  0.75601  0.76583  1.0000
  H   H14       1.0  0.71110  0.24399  0.23417  1.0000
  H   H15       1.0  0.43236  0.64732  0.89231  1.0000
  H   H16       1.0  0.56763  0.35268  0.10769  1.0000
  H   H17       1.0  0.26644  0.77018  0.18588  1.0000
  H   H18       1.0  0.73355  0.22982  0.81412  1.0000
  H   H19       1.0  0.12988  0.88739  0.06334  1.0000
  H   H20       1.0  0.87011  0.11261  0.93666  1.0000
  H   H21       1.0  0.62273  0.74114  0.09068  1.0000
  H   H22       1.0  0.37727  0.25886  0.90932  1.0000
  H   H23       1.0  0.79922  0.66717  0.23103  1.0000
  H   H24       1.0  0.20078  0.33283  0.76897  1.0000
  H   H25       1.0  0.49659  0.47827  0.33188  1.0000
  H   H26       1.0  0.50341  0.52173  0.66812  1.0000
  H   H27       1.0  0.44140  0.62108  0.48691  1.0000
  H   H28       1.0  0.55860  0.37891  0.51310  1.0000
  H   H29       1.0  0.72876  0.81600  0.59092  1.0000
  H   H30       1.0  0.27123  0.18400  0.40908  1.0000
  H   H31       1.0  0.64994  0.66712  0.57991  1.0000
  H   H32       1.0  0.35006  0.33288  0.42009  1.0000
  H   H33       1.0  0.74552  0.89475  0.81423  1.0000
  H   H34       1.0  0.25448  0.10524  0.18577  1.0000
  H   H35       1.0  0.81879  0.76066  0.78798  1.0000
  H   H36       1.0  0.18121  0.23934  0.21202  1.0000
  H   H37       1.0  0.65753  0.74868  0.80581  1.0000
  H   H38       1.0  0.34247  0.25132  0.19419  1.0000
  H   H39       1.0  0.45771  0.95393  0.54961  1.0000
  H   H40       1.0  0.54229  0.04607  0.45039  1.0000
  H   H41       1.0  0.62110  0.98732  0.65940  1.0000
  H   H42       1.0  0.37890  0.01268  0.34060  1.0000
  H   H43       1.0  0.35788  0.91041  0.70676  1.0000
  H   H44       1.0  0.64212  0.08959  0.29323  1.0000
  H   H45       1.0  0.45448  0.06239  0.75972  1.0000
  H   H46       1.0  0.54552  0.93761  0.24028  1.0000
  H   H47       1.0  0.52063  0.94596  0.82067  1.0000
  H   H48       1.0  0.47937  0.05404  0.17933  1.0000
  C   C1        1.0  0.03546  0.73064  0.63648  1.0000
  C   C2        1.0  0.96455  0.26936  0.36352  1.0000
  C   C3        1.0  0.05302  0.86412  0.71015  1.0000
  C   C4        1.0  0.94698  0.13588  0.28985  1.0000
  C   C5        1.0  0.98583  0.94081  0.64894  1.0000
  C   C6        1.0  0.01417  0.05919  0.35106  1.0000
  C   C7        1.0  0.99413  0.06479  0.71290  1.0000
  C   C8        1.0  0.00587  0.93521  0.28710  1.0000
  C   C9        1.0  0.07345  0.11353  0.83915  1.0000
  C   C10       1.0  0.92654  0.88647  0.16085  1.0000
  C   C11       1.0  0.13821  0.03625  0.90037  1.0000
  C   C12       1.0  0.86179  0.96375  0.09963  1.0000
  C   C13       1.0  0.12877  0.91062  0.83830  1.0000
  C   C14       1.0  0.87123  0.08938  0.16170  1.0000
  C   C15       1.0  0.91805  0.14474  0.65063  1.0000
  C   C16       1.0  0.08195  0.85526  0.34937  1.0000
  C   C17       1.0  0.20248  0.83339  0.90731  1.0000
  C   C18       1.0  0.79752  0.16661  0.09269  1.0000
  C   C19       1.0  0.28511  0.76143  0.85871  1.0000
  C   C20       1.0  0.71489  0.23857  0.14129  1.0000
  C   C21       1.0  0.36576  0.69987  0.92973  1.0000
  C   C22       1.0  0.63424  0.30013  0.07027  1.0000
  C   C23       1.0  0.36176  0.70286  0.04872  1.0000
  C   C24       1.0  0.63823  0.29714  0.95128  1.0000
  C   C25       1.0  0.27313  0.76877  0.09450  1.0000
  C   C26       1.0  0.72687  0.23123  0.90550  1.0000
  C   C27       1.0  0.19678  0.83505  0.02584  1.0000
  C   C28       1.0  0.80322  0.16495  0.97416  1.0000
  C   C29       1.0  0.45853  0.64753  0.12715  1.0000
  C   C30       1.0  0.54147  0.35247  0.87285  1.0000
  C   C31       1.0  0.59485  0.68083  0.14169  1.0000
  C   C32       1.0  0.40515  0.31918  0.85831  1.0000
  C   C33       1.0  0.69415  0.64156  0.22152  1.0000
  C   C34       1.0  0.30585  0.35844  0.77847  1.0000
  C   C35       1.0  0.65933  0.57031  0.29285  1.0000
  C   C36       1.0  0.34067  0.42969  0.70715  1.0000
  C   C37       1.0  0.52419  0.53594  0.27858  1.0000
  C   C38       1.0  0.47581  0.46406  0.72142  1.0000
  C   C39       1.0  0.42294  0.57028  0.19418  1.0000
  C   C40       1.0  0.57706  0.42972  0.80582  1.0000
  C   C41       1.0  0.27975  0.51895  0.17693  1.0000
  C   C42       1.0  0.72025  0.48105  0.82307  1.0000
  C   C43       1.0  0.76568  0.52967  0.38095  1.0000
  C   C44       1.0  0.23432  0.47033  0.61905  1.0000
  C   C45       1.0  0.42407  0.71591  0.51428  1.0000
  C   C46       1.0  0.57593  0.28408  0.48572  1.0000
  C   C47       1.0  0.66244  0.76631  0.62707  1.0000
  C   C48       1.0  0.33756  0.23369  0.37293  1.0000
  C   C49       1.0  0.72436  0.79462  0.76757  1.0000
  C   C50       1.0  0.27564  0.20538  0.23244  1.0000
  C   C51       1.0  0.51996  0.93213  0.63122  1.0000
  C   C52       1.0  0.48003  0.06787  0.36877  1.0000
  C   C53       1.0  0.45988  0.96374  0.73600  1.0000
  C   C54       1.0  0.54012  0.03626  0.26400  1.0000
  N   N1        1.0  0.53086  0.80146  0.58966  1.0000
  N   N2        1.0  0.46914  0.19854  0.41034  1.0000
  O   O1        1.0  0.98235  0.48262  0.15182  1.0000
  O   O2        1.0  0.01765  0.51738  0.84818  1.0000
  O   O3        1.0  0.09584  0.70906  0.55710  1.0000
  O   O4        1.0  0.90416  0.29094  0.44290  1.0000
  O   O5        1.0  0.95885  0.65296  0.65833  1.0000
  O   O6        1.0  0.04115  0.34704  0.34167  1.0000
  O   O7        1.0  0.81443  0.08467  0.54912  1.0000
  O   O8        1.0  0.18557  0.91533  0.45088  1.0000
  O   O9        1.0  0.94811  0.25980  0.69348  1.0000
  O   O10       1.0  0.05189  0.74020  0.30652  1.0000
  O   O11       1.0  0.19268  0.48280  0.06916  1.0000
  O   O12       1.0  0.80732  0.51720  0.93085  1.0000
  O   O13       1.0  0.25648  0.51236  0.27669  1.0000
  O   O14       1.0  0.74352  0.48764  0.72331  1.0000
  O   O15       1.0  0.73540  0.48789  0.46236  1.0000
  O   O16       1.0  0.26460  0.51211  0.53764  1.0000
  O   O17       1.0  0.88141  0.53956  0.37020  1.0000
  O   O18       1.0  0.11859  0.46044  0.62980  1.0000
  O   O19       1.0  0.30764  0.73679  0.47347  1.0000
  O   O20       1.0  0.69236  0.26321  0.52653  1.0000
