data_image0
_chemical_formula_structural       Li2H8C14O6F6
_chemical_formula_sum              "Li2 H8 C14 O6 F6"
_cell_length_a       4.92794
_cell_length_b       5.22549
_cell_length_c       14.9677
_cell_angle_alpha    92.1701
_cell_angle_beta     89.9997
_cell_angle_gamma    89.9991

_space_group_name_H-M_alt    "P 1"
_space_group_IT_number       1

loop_
  _space_group_symop_operation_xyz
  'x, y, z'

loop_
  _atom_site_type_symbol
  _atom_site_label
  _atom_site_symmetry_multiplicity
  _atom_site_fract_x
  _atom_site_fract_y
  _atom_site_fract_z
  _atom_site_occupancy
  Li  Li1       1.0  0.74104  0.91434  0.55313  1.0000
  Li  Li2       1.0  0.24105  0.08566  0.44687  1.0000
  H   H1        1.0  0.49584  0.52206  0.50547  1.0000
  H   H2        1.0  0.99584  0.47795  0.49453  1.0000
  H   H3        1.0  0.63757  0.41855  0.58876  1.0000
  H   H4        1.0  0.13758  0.58146  0.41124  1.0000
  H   H5        1.0  0.15692  0.48207  0.92434  1.0000
  H   H6        1.0  0.65692  0.51791  0.07566  1.0000
  H   H7        1.0  0.67810  0.79999  0.86575  1.0000
  H   H8        1.0  0.17809  0.19999  0.13425  1.0000
  C   C1        1.0  0.13884  0.10030  0.73186  1.0000
  C   C2        1.0  0.63886  0.89970  0.26814  1.0000
  C   C3        1.0  0.09754  0.32479  0.87889  1.0000
  C   C4        1.0  0.59754  0.67520  0.12112  1.0000
  C   C5        1.0  0.90640  0.14438  0.90234  1.0000
  C   C6        1.0  0.40640  0.85561  0.09766  1.0000
  C   C7        1.0  0.94651  0.92610  0.76202  1.0000
  C   C8        1.0  0.44652  0.07390  0.23798  1.0000
  C   C9        1.0  0.20933  0.29662  0.79390  1.0000
  C   C10       1.0  0.70934  0.70338  0.20610  1.0000
  C   C11       1.0  0.26333  0.07837  0.63998  1.0000
  C   C12       1.0  0.76335  0.92164  0.36001  1.0000
  C   C13       1.0  0.82677  0.94096  0.84610  1.0000
  C   C14       1.0  0.32677  0.05904  0.15390  1.0000
  O   O1        1.0  0.11141  0.01965  0.57354  1.0000
  O   O2        1.0  0.61142  0.98035  0.42646  1.0000
  O   O3        1.0  0.51600  0.12056  0.63436  1.0000
  O   O4        1.0  0.01601  0.87945  0.36564  1.0000
  O   O5        1.0  0.66350  0.54453  0.54190  1.0000
  O   O6        1.0  0.16350  0.45548  0.45810  1.0000
  F   F1        1.0  0.87709  0.72402  0.70715  1.0000
  F   F2        1.0  0.37709  0.27598  0.29285  1.0000
  F   F3        1.0  0.39219  0.47639  0.77037  1.0000
  F   F4        1.0  0.89219  0.52360  0.22963  1.0000
  F   F5        1.0  0.79246  0.16852  0.98544  1.0000
  F   F6        1.0  0.29247  0.83147  0.01456  1.0000
