data_image0
_chemical_formula_structural       Cs4H20C56O16F24
_chemical_formula_sum              "Cs4 H20 C56 O16 F24"
_cell_length_a       7.20468
_cell_length_b       14.153
_cell_length_c       14.479
_cell_angle_alpha    90.0698
_cell_angle_beta     90
_cell_angle_gamma    90

_space_group_name_H-M_alt    "P 1"
_space_group_IT_number       1

loop_
  _space_group_symop_operation_xyz
  'x, y, z'

loop_
  _atom_site_type_symbol
  _atom_site_label
  _atom_site_symmetry_multiplicity
  _atom_site_fract_x
  _atom_site_fract_y
  _atom_site_fract_z
  _atom_site_occupancy
  Cs  Cs1       1.0  0.64487  0.05687  0.35147  1.0000
  Cs  Cs2       1.0  0.14487  0.44313  0.64853  1.0000
  Cs  Cs3       1.0  0.35513  0.94313  0.64853  1.0000
  Cs  Cs4       1.0  0.85513  0.55687  0.35147  1.0000
  H   H1        1.0  0.84285  0.06866  0.71076  1.0000
  H   H2        1.0  0.34284  0.43134  0.28924  1.0000
  H   H3        1.0  0.15716  0.93134  0.28924  1.0000
  H   H4        1.0  0.65716  0.56866  0.71076  1.0000
  H   H5        1.0  0.59014  0.33008  0.80208  1.0000
  H   H6        1.0  0.09013  0.16992  0.19793  1.0000
  H   H7        1.0  0.40987  0.66992  0.19792  1.0000
  H   H8        1.0  0.90987  0.83008  0.80208  1.0000
  H   H9        1.0  0.80610  0.05630  0.99342  1.0000
  H   H10       1.0  0.30610  0.44370  0.00658  1.0000
  H   H11       1.0  0.19390  0.94370  0.00658  1.0000
  H   H12       1.0  0.69390  0.55630  0.99342  1.0000
  H   H13       1.0  0.53050  0.80043  0.90456  1.0000
  H   H14       1.0  0.03049  0.69957  0.09543  1.0000
  H   H15       1.0  0.46951  0.19957  0.09543  1.0000
  H   H16       1.0  0.96951  0.30043  0.90457  1.0000
  H   H17       1.0  0.75256  0.30950  0.34836  1.0000
  H   H18       1.0  0.25256  0.19050  0.65164  1.0000
  H   H19       1.0  0.24744  0.69050  0.65164  1.0000
  H   H20       1.0  0.74743  0.80950  0.34836  1.0000
  C   C1        1.0  0.78408  0.31443  0.49263  1.0000
  C   C2        1.0  0.28408  0.18557  0.50737  1.0000
  C   C3        1.0  0.21592  0.68558  0.50737  1.0000
  C   C4        1.0  0.71592  0.81442  0.49263  1.0000
  C   C5        1.0  0.74772  0.26934  0.58516  1.0000
  C   C6        1.0  0.24772  0.23066  0.41484  1.0000
  C   C7        1.0  0.25228  0.73067  0.41484  1.0000
  C   C8        1.0  0.75228  0.76933  0.58516  1.0000
  C   C9        1.0  0.80215  0.17716  0.60748  1.0000
  C   C10       1.0  0.30215  0.32283  0.39252  1.0000
  C   C11       1.0  0.19785  0.82284  0.39252  1.0000
  C   C12       1.0  0.69785  0.67716  0.60748  1.0000
  C   C13       1.0  0.79182  0.13929  0.69577  1.0000
  C   C14       1.0  0.29182  0.36070  0.30423  1.0000
  C   C15       1.0  0.20819  0.86071  0.30423  1.0000
  C   C16       1.0  0.70819  0.63929  0.69577  1.0000
  C   C17       1.0  0.71826  0.19692  0.76427  1.0000
  C   C18       1.0  0.21826  0.30308  0.23573  1.0000
  C   C19       1.0  0.28174  0.80308  0.23573  1.0000
  C   C20       1.0  0.78174  0.69692  0.76427  1.0000
  C   C21       1.0  0.65271  0.28765  0.74777  1.0000
  C   C22       1.0  0.15271  0.21234  0.25223  1.0000
  C   C23       1.0  0.34729  0.71235  0.25223  1.0000
  C   C24       1.0  0.84729  0.78765  0.74777  1.0000
  C   C25       1.0  0.67093  0.32107  0.65834  1.0000
  C   C26       1.0  0.17093  0.17893  0.34166  1.0000
  C   C27       1.0  0.32907  0.67893  0.34166  1.0000
  C   C28       1.0  0.82907  0.82107  0.65834  1.0000
  C   C29       1.0  0.77976  0.80246  0.20545  1.0000
  C   C30       1.0  0.27976  0.69754  0.79455  1.0000
  C   C31       1.0  0.22025  0.19754  0.79455  1.0000
  C   C32       1.0  0.72024  0.30246  0.20545  1.0000
  C   C33       1.0  0.74440  0.84827  0.11310  1.0000
  C   C34       1.0  0.24440  0.65173  0.88690  1.0000
  C   C35       1.0  0.25560  0.15173  0.88690  1.0000
  C   C36       1.0  0.75560  0.34827  0.11310  1.0000
  C   C37       1.0  0.79574  0.94111  0.09157  1.0000
  C   C38       1.0  0.29574  0.55890  0.90843  1.0000
  C   C39       1.0  0.20426  0.05889  0.90843  1.0000
  C   C40       1.0  0.70426  0.44111  0.09157  1.0000
  C   C41       1.0  0.76281  0.98408  0.00689  1.0000
  C   C42       1.0  0.26282  0.51592  0.99310  1.0000
  C   C43       1.0  0.23718  0.01592  0.99311  1.0000
  C   C44       1.0  0.73717  0.48407  0.00689  1.0000
  C   C45       1.0  0.66893  0.93022  0.94155  1.0000
  C   C46       1.0  0.16893  0.56978  0.05845  1.0000
  C   C47       1.0  0.33107  0.06978  0.05845  1.0000
  C   C48       1.0  0.83106  0.43022  0.94155  1.0000
  C   C49       1.0  0.60985  0.83832  0.95700  1.0000
  C   C50       1.0  0.10985  0.66168  0.04300  1.0000
  C   C51       1.0  0.39015  0.16168  0.04300  1.0000
  C   C52       1.0  0.89015  0.33832  0.95700  1.0000
  C   C53       1.0  0.65259  0.79950  0.04217  1.0000
  C   C54       1.0  0.15258  0.70050  0.95783  1.0000
  C   C55       1.0  0.34742  0.20050  0.95783  1.0000
  C   C56       1.0  0.84742  0.29950  0.04217  1.0000
  O   O1        1.0  0.86096  0.39332  0.49085  1.0000
  O   O2        1.0  0.36097  0.10668  0.50915  1.0000
  O   O3        1.0  0.13904  0.60668  0.50915  1.0000
  O   O4        1.0  0.63905  0.89332  0.49085  1.0000
  O   O5        1.0  0.73215  0.26595  0.42102  1.0000
  O   O6        1.0  0.23215  0.23405  0.57898  1.0000
  O   O7        1.0  0.26785  0.73406  0.57897  1.0000
  O   O8        1.0  0.76784  0.76594  0.42102  1.0000
  O   O9        1.0  0.72959  0.85269  0.27664  1.0000
  O   O10       1.0  0.22959  0.64731  0.72335  1.0000
  O   O11       1.0  0.27042  0.14731  0.72336  1.0000
  O   O12       1.0  0.77041  0.35269  0.27665  1.0000
  O   O13       1.0  0.84839  0.72192  0.20895  1.0000
  O   O14       1.0  0.34840  0.77808  0.79105  1.0000
  O   O15       1.0  0.15161  0.27808  0.79105  1.0000
  O   O16       1.0  0.65161  0.22192  0.20895  1.0000
  F   F1        1.0  0.87589  0.12160  0.54002  1.0000
  F   F2        1.0  0.37589  0.37840  0.45998  1.0000
  F   F3        1.0  0.12411  0.87840  0.45998  1.0000
  F   F4        1.0  0.62411  0.62160  0.54002  1.0000
  F   F5        1.0  0.71063  0.16322  0.85203  1.0000
  F   F6        1.0  0.21063  0.33677  0.14797  1.0000
  F   F7        1.0  0.28938  0.83678  0.14797  1.0000
  F   F8        1.0  0.78938  0.66322  0.85203  1.0000
  F   F9        1.0  0.60729  0.41053  0.64126  1.0000
  F   F10       1.0  0.10728  0.08947  0.35874  1.0000
  F   F11       1.0  0.39271  0.58947  0.35874  1.0000
  F   F12       1.0  0.89272  0.91053  0.64126  1.0000
  F   F13       1.0  0.88749  0.99288  0.15698  1.0000
  F   F14       1.0  0.38750  0.50713  0.84301  1.0000
  F   F15       1.0  0.11250  0.00712  0.84302  1.0000
  F   F16       1.0  0.61250  0.49288  0.15699  1.0000
  F   F17       1.0  0.63179  0.96924  0.85739  1.0000
  F   F18       1.0  0.13179  0.53076  0.14260  1.0000
  F   F19       1.0  0.36821  0.03076  0.14261  1.0000
  F   F20       1.0  0.86819  0.46924  0.85739  1.0000
  F   F21       1.0  0.59559  0.70913  0.05813  1.0000
  F   F22       1.0  0.09559  0.79087  0.94186  1.0000
  F   F23       1.0  0.40441  0.29087  0.94186  1.0000
  F   F24       1.0  0.90441  0.20913  0.05814  1.0000
