data_image0
_chemical_formula_structural       Zn2H34C42N4O10
_chemical_formula_sum              "Zn2 H34 C42 N4 O10"
_cell_length_a       9.60913
_cell_length_b       9.75937
_cell_length_c       11.2164
_cell_angle_alpha    91.2283
_cell_angle_beta     106.644
_cell_angle_gamma    109.046

_space_group_name_H-M_alt    "P 1"
_space_group_IT_number       1

loop_
  _space_group_symop_operation_xyz
  'x, y, z'

loop_
  _atom_site_type_symbol
  _atom_site_label
  _atom_site_symmetry_multiplicity
  _atom_site_fract_x
  _atom_site_fract_y
  _atom_site_fract_z
  _atom_site_occupancy
  Zn  Zn1       1.0  0.04249  0.97717  0.88188  1.0000
  Zn  Zn2       1.0  0.95751  0.02283  0.11812  1.0000
  H   H1        1.0  0.22834  0.62885  0.98413  1.0000
  H   H2        1.0  0.77167  0.37115  0.01587  1.0000
  H   H3        1.0  0.36366  0.46844  0.09415  1.0000
  H   H4        1.0  0.63634  0.53156  0.90585  1.0000
  H   H5        1.0  0.19531  0.50881  0.40532  1.0000
  H   H6        1.0  0.80468  0.49118  0.59468  1.0000
  H   H7        1.0  0.06625  0.67665  0.29530  1.0000
  H   H8        1.0  0.93375  0.32335  0.70470  1.0000
  H   H9        1.0  0.67778  0.52204  0.42065  1.0000
  H   H10       1.0  0.32222  0.47796  0.57935  1.0000
  H   H11       1.0  0.88679  0.46554  0.36007  1.0000
  H   H12       1.0  0.11321  0.53446  0.63993  1.0000
  H   H13       1.0  0.81612  0.26731  0.18684  1.0000
  H   H14       1.0  0.18388  0.73269  0.81317  1.0000
  H   H15       1.0  0.53805  0.12832  0.07396  1.0000
  H   H16       1.0  0.46195  0.87168  0.92604  1.0000
  H   H17       1.0  0.32943  0.19182  0.84631  1.0000
  H   H18       1.0  0.67057  0.80818  0.15368  1.0000
  H   H19       1.0  0.34941  0.26075  0.70335  1.0000
  H   H20       1.0  0.65059  0.73925  0.29665  1.0000
  H   H21       1.0  0.45705  0.15174  0.77530  1.0000
  H   H22       1.0  0.54295  0.84827  0.22469  1.0000
  H   H23       1.0  0.88985  0.76801  0.62924  1.0000
  H   H24       1.0  0.11015  0.23199  0.37076  1.0000
  H   H25       1.0  0.02529  0.79344  0.43806  1.0000
  H   H26       1.0  0.97471  0.20656  0.56194  1.0000
  H   H27       1.0  0.35033  0.14615  0.51046  1.0000
  H   H28       1.0  0.64967  0.85385  0.48953  1.0000
  H   H29       1.0  0.24238  0.99117  0.39819  1.0000
  H   H30       1.0  0.75762  0.00883  0.60181  1.0000
  H   H31       1.0  0.39908  0.84928  0.52131  1.0000
  H   H32       1.0  0.60092  0.15072  0.47869  1.0000
  H   H33       1.0  0.50356  0.00112  0.63793  1.0000
  H   H34       1.0  0.49644  0.99888  0.36207  1.0000
  C   C1        1.0  0.07323  0.77423  0.07426  1.0000
  C   C2        1.0  0.92677  0.22577  0.92574  1.0000
  C   C3        1.0  0.14105  0.66421  0.13419  1.0000
  C   C4        1.0  0.85895  0.33579  0.86581  1.0000
  C   C5        1.0  0.22210  0.60265  0.07659  1.0000
  C   C6        1.0  0.77790  0.39735  0.92341  1.0000
  C   C7        1.0  0.29724  0.51228  0.13852  1.0000
  C   C8        1.0  0.70276  0.48772  0.86148  1.0000
  C   C9        1.0  0.28907  0.47842  0.25793  1.0000
  C   C10       1.0  0.71093  0.52158  0.74207  1.0000
  C   C11       1.0  0.20224  0.53565  0.31309  1.0000
  C   C12       1.0  0.79776  0.46435  0.68691  1.0000
  C   C13       1.0  0.13046  0.62840  0.25238  1.0000
  C   C14       1.0  0.86954  0.37161  0.74762  1.0000
  C   C15       1.0  0.37566  0.39010  0.33075  1.0000
  C   C16       1.0  0.62434  0.60990  0.66925  1.0000
  C   C17       1.0  0.49341  0.35404  0.28465  1.0000
  C   C18       1.0  0.50659  0.64596  0.71535  1.0000
  C   C19       1.0  0.64961  0.43507  0.34573  1.0000
  C   C20       1.0  0.35039  0.56493  0.65427  1.0000
  C   C21       1.0  0.76520  0.40353  0.31114  1.0000
  C   C22       1.0  0.23480  0.59647  0.68886  1.0000
  C   C23       1.0  0.72624  0.29246  0.21409  1.0000
  C   C24       1.0  0.27376  0.70754  0.78591  1.0000
  C   C25       1.0  0.57084  0.21425  0.15090  1.0000
  C   C26       1.0  0.42916  0.78575  0.84910  1.0000
  C   C27       1.0  0.45360  0.24372  0.18579  1.0000
  C   C28       1.0  0.54640  0.75628  0.81421  1.0000
  C   C29       1.0  0.28715  0.15583  0.11993  1.0000
  C   C30       1.0  0.71285  0.84417  0.88007  1.0000
  C   C31       1.0  0.34453  0.16667  0.75630  1.0000
  C   C32       1.0  0.65547  0.83333  0.24370  1.0000
  C   C33       1.0  0.21487  0.03374  0.68531  1.0000
  C   C34       1.0  0.78513  0.96626  0.31469  1.0000
  C   C35       1.0  0.99816  0.84470  0.62444  1.0000
  C   C36       1.0  0.00184  0.15530  0.37556  1.0000
  C   C37       1.0  0.06371  0.85521  0.52995  1.0000
  C   C38       1.0  0.93629  0.14479  0.47005  1.0000
  C   C39       1.0  0.30824  0.02617  0.49804  1.0000
  C   C40       1.0  0.69177  0.97383  0.50196  1.0000
  C   C41       1.0  0.44316  0.96959  0.53663  1.0000
  C   C42       1.0  0.55684  0.03041  0.46337  1.0000
  N   N1        1.0  0.09286  0.95597  0.72061  1.0000
  N   N2        1.0  0.90714  0.04403  0.27939  1.0000
  N   N3        1.0  0.19955  0.97419  0.56925  1.0000
  N   N4        1.0  0.80045  0.02581  0.43075  1.0000
  O   O1        1.0  0.07905  0.79749  0.96446  1.0000
  O   O2        1.0  0.92095  0.20251  0.03554  1.0000
  O   O3        1.0  0.01915  0.83783  0.14085  1.0000
  O   O4        1.0  0.98085  0.16217  0.85915  1.0000
  O   O5        1.0  0.36523  0.35913  0.43508  1.0000
  O   O6        1.0  0.63477  0.64086  0.56492  1.0000
  O   O7        1.0  0.19245  0.14719  0.18138  1.0000
  O   O8        1.0  0.80755  0.85281  0.81862  1.0000
  O   O9        1.0  0.25474  0.09683  0.00871  1.0000
  O   O10       1.0  0.74526  0.90318  0.99129  1.0000
