data_image0
_chemical_formula_structural       Zn2H40C44N4O16
_chemical_formula_sum              "Zn2 H40 C44 N4 O16"
_cell_length_a       9.24959
_cell_length_b       9.76853
_cell_length_c       11.2936
_cell_angle_alpha    90
_cell_angle_beta     90
_cell_angle_gamma    98.9987

_space_group_name_H-M_alt    "P 1"
_space_group_IT_number       1

loop_
  _space_group_symop_operation_xyz
  'x, y, z'

loop_
  _atom_site_type_symbol
  _atom_site_label
  _atom_site_symmetry_multiplicity
  _atom_site_fract_x
  _atom_site_fract_y
  _atom_site_fract_z
  _atom_site_occupancy
  Zn  Zn1       1.0  1.00000  0.00000  0.00000  1.0000
  Zn  Zn2       1.0  0.50000  0.00000  0.50000  1.0000
  H   H1        1.0  0.32235  0.11896  0.91944  1.0000
  H   H2        1.0  0.82235  0.11896  0.58056  1.0000
  H   H3        1.0  0.67765  0.88104  0.08056  1.0000
  H   H4        1.0  0.17765  0.88104  0.41944  1.0000
  H   H5        1.0  0.45989  0.18930  0.74972  1.0000
  H   H6        1.0  0.95989  0.18930  0.75028  1.0000
  H   H7        1.0  0.54010  0.81070  0.25028  1.0000
  H   H8        1.0  0.04010  0.81070  0.24972  1.0000
  H   H9        1.0  0.64070  0.36703  0.65288  1.0000
  H   H10       1.0  0.14070  0.36704  0.84712  1.0000
  H   H11       1.0  0.35930  0.63296  0.34712  1.0000
  H   H12       1.0  0.85930  0.63296  0.15288  1.0000
  H   H13       1.0  0.78634  0.55540  0.77320  1.0000
  H   H14       1.0  0.28634  0.55540  0.72680  1.0000
  H   H15       1.0  0.21366  0.44460  0.22680  1.0000
  H   H16       1.0  0.71366  0.44460  0.27320  1.0000
  H   H17       1.0  0.75112  0.55834  0.99120  1.0000
  H   H18       1.0  0.25112  0.55834  0.50880  1.0000
  H   H19       1.0  0.24888  0.44166  0.00880  1.0000
  H   H20       1.0  0.74888  0.44166  0.49120  1.0000
  H   H21       1.0  0.57813  0.37431  0.09004  1.0000
  H   H22       1.0  0.07813  0.37431  0.40996  1.0000
  H   H23       1.0  0.42187  0.62569  0.90996  1.0000
  H   H24       1.0  0.92187  0.62569  0.59004  1.0000
  H   H25       1.0  0.08721  0.21523  0.12743  1.0000
  H   H26       1.0  0.58721  0.21523  0.37257  1.0000
  H   H27       1.0  0.91279  0.78477  0.87257  1.0000
  H   H28       1.0  0.41280  0.78477  0.62743  1.0000
  H   H29       1.0  0.98445  0.40534  0.05961  1.0000
  H   H30       1.0  0.48444  0.40534  0.44039  1.0000
  H   H31       1.0  0.01556  0.59466  0.94039  1.0000
  H   H32       1.0  0.51556  0.59466  0.55961  1.0000
  H   H33       1.0  0.84873  0.25820  0.09196  1.0000
  H   H34       1.0  0.34873  0.25820  0.40804  1.0000
  H   H35       1.0  0.15127  0.74180  0.90804  1.0000
  H   H36       1.0  0.65127  0.74180  0.59196  1.0000
  H   H37       1.0  0.90231  0.29579  0.94260  1.0000
  H   H38       1.0  0.40231  0.29579  0.55740  1.0000
  H   H39       1.0  0.09769  0.70421  0.05740  1.0000
  H   H40       1.0  0.59769  0.70421  0.44260  1.0000
  C   C1        1.0  0.28173  0.01964  0.14458  1.0000
  C   C2        1.0  0.78173  0.01964  0.35542  1.0000
  C   C3        1.0  0.71827  0.98036  0.85542  1.0000
  C   C4        1.0  0.21827  0.98036  0.64458  1.0000
  C   C5        1.0  0.36596  0.03226  0.25525  1.0000
  C   C6        1.0  0.86595  0.03226  0.24475  1.0000
  C   C7        1.0  0.63404  0.96774  0.74475  1.0000
  C   C8        1.0  0.13404  0.96774  0.75525  1.0000
  C   C9        1.0  0.47986  0.13590  0.19746  1.0000
  C   C10       1.0  0.97986  0.13591  0.30254  1.0000
  C   C11       1.0  0.52014  0.86409  0.80254  1.0000
  C   C12       1.0  0.02014  0.86410  0.69746  1.0000
  C   C13       1.0  0.39470  0.11850  0.08683  1.0000
  C   C14       1.0  0.89470  0.11850  0.41317  1.0000
  C   C15       1.0  0.60530  0.88150  0.91317  1.0000
  C   C16       1.0  0.10530  0.88150  0.58683  1.0000
  C   C17       1.0  0.52594  0.26904  0.80276  1.0000
  C   C18       1.0  0.02594  0.26904  0.69724  1.0000
  C   C19       1.0  0.47406  0.73096  0.19724  1.0000
  C   C20       1.0  0.97406  0.73096  0.30276  1.0000
  C   C21       1.0  0.62678  0.37055  0.74854  1.0000
  C   C22       1.0  0.12678  0.37055  0.75146  1.0000
  C   C23       1.0  0.37322  0.62945  0.25146  1.0000
  C   C24       1.0  0.87322  0.62945  0.24854  1.0000
  C   C25       1.0  0.70927  0.47462  0.81581  1.0000
  C   C26       1.0  0.20928  0.47462  0.68418  1.0000
  C   C27       1.0  0.29072  0.52538  0.18418  1.0000
  C   C28       1.0  0.79073  0.52538  0.31581  1.0000
  C   C29       1.0  0.69050  0.47512  0.93851  1.0000
  C   C30       1.0  0.19051  0.47512  0.56148  1.0000
  C   C31       1.0  0.30950  0.52488  0.06148  1.0000
  C   C32       1.0  0.80949  0.52488  0.43851  1.0000
  C   C33       1.0  0.59232  0.37269  0.99453  1.0000
  C   C34       1.0  0.09232  0.37269  0.50547  1.0000
  C   C35       1.0  0.40768  0.62731  0.00547  1.0000
  C   C36       1.0  0.90768  0.62731  0.49453  1.0000
  C   C37       1.0  0.50995  0.26909  0.92616  1.0000
  C   C38       1.0  0.00995  0.26910  0.57384  1.0000
  C   C39       1.0  0.49005  0.73090  0.07384  1.0000
  C   C40       1.0  0.99004  0.73091  0.42616  1.0000
  C   C41       1.0  0.94125  0.29822  0.03400  1.0000
  C   C42       1.0  0.44124  0.29822  0.46600  1.0000
  C   C43       1.0  0.05876  0.70178  0.96601  1.0000
  C   C44       1.0  0.55875  0.70178  0.53400  1.0000
  N   N1        1.0  0.40444  0.16463  0.97608  1.0000
  N   N2        1.0  0.90444  0.16463  0.52392  1.0000
  N   N3        1.0  0.59556  0.83537  0.02392  1.0000
  N   N4        1.0  0.09555  0.83537  0.47608  1.0000
  O   O1        1.0  0.15935  0.95271  0.11589  1.0000
  O   O2        1.0  0.65935  0.95271  0.38411  1.0000
  O   O3        1.0  0.84065  0.04729  0.88411  1.0000
  O   O4        1.0  0.34065  0.04729  0.61589  1.0000
  O   O5        1.0  0.34518  0.97768  0.35628  1.0000
  O   O6        1.0  0.84518  0.97768  0.14372  1.0000
  O   O7        1.0  0.65482  0.02232  0.64372  1.0000
  O   O8        1.0  0.15482  0.02233  0.85628  1.0000
  O   O9        1.0  0.59591  0.20945  0.23098  1.0000
  O   O10       1.0  0.09591  0.20945  0.26902  1.0000
  O   O11       1.0  0.40409  0.79055  0.76902  1.0000
  O   O12       1.0  0.90409  0.79055  0.73098  1.0000
  O   O13       1.0  0.05695  0.21450  0.04107  1.0000
  O   O14       1.0  0.55695  0.21450  0.45894  1.0000
  O   O15       1.0  0.94305  0.78550  0.95894  1.0000
  O   O16       1.0  0.44305  0.78550  0.54107  1.0000
