data_image0
_chemical_formula_structural       Cu2H40C44N4O16
_chemical_formula_sum              "Cu2 H40 C44 N4 O16"
_cell_length_a       9.3506
_cell_length_b       9.5234
_cell_length_c       11.509
_cell_angle_alpha    90
_cell_angle_beta     90
_cell_angle_gamma    99.2509

_space_group_name_H-M_alt    "P 1"
_space_group_IT_number       1

loop_
  _space_group_symop_operation_xyz
  'x, y, z'

loop_
  _atom_site_type_symbol
  _atom_site_label
  _atom_site_symmetry_multiplicity
  _atom_site_fract_x
  _atom_site_fract_y
  _atom_site_fract_z
  _atom_site_occupancy
  Cu  Cu1       1.0  0.00000  0.00000  0.00000  1.0000
  Cu  Cu2       1.0  0.50000  1.00000  0.50000  1.0000
  H   H1        1.0  0.32332  0.11700  0.91407  1.0000
  H   H2        1.0  0.82332  0.11700  0.58593  1.0000
  H   H3        1.0  0.67668  0.88300  0.08593  1.0000
  H   H4        1.0  0.17668  0.88300  0.41407  1.0000
  H   H5        1.0  0.46038  0.18985  0.75054  1.0000
  H   H6        1.0  0.96038  0.18986  0.74946  1.0000
  H   H7        1.0  0.53962  0.81015  0.24946  1.0000
  H   H8        1.0  0.03962  0.81014  0.25054  1.0000
  H   H9        1.0  0.64287  0.37076  0.65724  1.0000
  H   H10       1.0  0.14287  0.37077  0.84276  1.0000
  H   H11       1.0  0.35714  0.62924  0.34276  1.0000
  H   H12       1.0  0.85713  0.62923  0.15724  1.0000
  H   H13       1.0  0.78996  0.56103  0.77664  1.0000
  H   H14       1.0  0.28997  0.56103  0.72336  1.0000
  H   H15       1.0  0.21004  0.43897  0.22336  1.0000
  H   H16       1.0  0.71004  0.43896  0.27664  1.0000
  H   H17       1.0  0.75522  0.56193  0.99069  1.0000
  H   H18       1.0  0.25523  0.56193  0.50931  1.0000
  H   H19       1.0  0.24478  0.43807  0.00931  1.0000
  H   H20       1.0  0.74477  0.43807  0.49069  1.0000
  H   H21       1.0  0.57922  0.37522  0.08620  1.0000
  H   H22       1.0  0.07922  0.37522  0.41380  1.0000
  H   H23       1.0  0.42078  0.62479  0.91379  1.0000
  H   H24       1.0  0.92078  0.62478  0.58620  1.0000
  H   H25       1.0  0.07556  0.20803  0.13374  1.0000
  H   H26       1.0  0.57555  0.20803  0.36626  1.0000
  H   H27       1.0  0.92444  0.79197  0.86627  1.0000
  H   H28       1.0  0.42445  0.79197  0.63374  1.0000
  H   H29       1.0  0.98071  0.40486  0.07088  1.0000
  H   H30       1.0  0.48068  0.40485  0.42912  1.0000
  H   H31       1.0  0.01929  0.59514  0.92912  1.0000
  H   H32       1.0  0.51932  0.59515  0.57088  1.0000
  H   H33       1.0  0.84179  0.25240  0.08536  1.0000
  H   H34       1.0  0.34178  0.25235  0.41464  1.0000
  H   H35       1.0  0.15820  0.74761  0.91464  1.0000
  H   H36       1.0  0.65822  0.74765  0.58536  1.0000
  H   H37       1.0  0.91218  0.30452  0.94518  1.0000
  H   H38       1.0  0.41216  0.30449  0.55481  1.0000
  H   H39       1.0  0.08782  0.69548  0.05482  1.0000
  H   H40       1.0  0.58784  0.69551  0.44519  1.0000
  C   C1        1.0  0.27008  0.02069  0.13611  1.0000
  C   C2        1.0  0.77010  0.02068  0.36389  1.0000
  C   C3        1.0  0.72992  0.97931  0.86389  1.0000
  C   C4        1.0  0.22990  0.97932  0.63611  1.0000
  C   C5        1.0  0.34969  0.03136  0.24710  1.0000
  C   C6        1.0  0.84970  0.03136  0.25289  1.0000
  C   C7        1.0  0.65031  0.96864  0.75289  1.0000
  C   C8        1.0  0.15030  0.96864  0.74711  1.0000
  C   C9        1.0  0.46698  0.13517  0.19157  1.0000
  C   C10       1.0  0.96699  0.13516  0.30843  1.0000
  C   C11       1.0  0.53302  0.86483  0.80843  1.0000
  C   C12       1.0  0.03301  0.86484  0.69157  1.0000
  C   C13       1.0  0.38618  0.11898  0.08118  1.0000
  C   C14       1.0  0.88619  0.11897  0.41882  1.0000
  C   C15       1.0  0.61382  0.88102  0.91882  1.0000
  C   C16       1.0  0.11381  0.88103  0.58118  1.0000
  C   C17       1.0  0.52647  0.27051  0.80344  1.0000
  C   C18       1.0  0.02647  0.27051  0.69656  1.0000
  C   C19       1.0  0.47353  0.72949  0.19656  1.0000
  C   C20       1.0  0.97353  0.72948  0.30344  1.0000
  C   C21       1.0  0.62862  0.37364  0.75110  1.0000
  C   C22       1.0  0.12862  0.37364  0.74890  1.0000
  C   C23       1.0  0.37138  0.62636  0.24890  1.0000
  C   C24       1.0  0.87139  0.62636  0.25110  1.0000
  C   C25       1.0  0.71211  0.47872  0.81789  1.0000
  C   C26       1.0  0.21212  0.47872  0.68211  1.0000
  C   C27       1.0  0.28789  0.52128  0.18211  1.0000
  C   C28       1.0  0.78789  0.52127  0.31789  1.0000
  C   C29       1.0  0.69333  0.47806  0.93834  1.0000
  C   C30       1.0  0.19334  0.47807  0.56166  1.0000
  C   C31       1.0  0.30667  0.52194  0.06166  1.0000
  C   C32       1.0  0.80666  0.52193  0.43833  1.0000
  C   C33       1.0  0.59369  0.37404  0.99250  1.0000
  C   C34       1.0  0.09369  0.37405  0.50750  1.0000
  C   C35       1.0  0.40631  0.62596  0.00749  1.0000
  C   C36       1.0  0.90631  0.62595  0.49250  1.0000
  C   C37       1.0  0.50970  0.26986  0.92460  1.0000
  C   C38       1.0  0.00970  0.26986  0.57540  1.0000
  C   C39       1.0  0.49030  0.73014  0.07540  1.0000
  C   C40       1.0  0.99030  0.73014  0.42460  1.0000
  C   C41       1.0  0.93966  0.29808  0.03709  1.0000
  C   C42       1.0  0.43965  0.29805  0.46291  1.0000
  C   C43       1.0  0.06034  0.70192  0.96292  1.0000
  C   C44       1.0  0.56035  0.70195  0.53709  1.0000
  N   N1        1.0  0.40199  0.16473  0.97208  1.0000
  N   N2        1.0  0.90199  0.16473  0.52791  1.0000
  N   N3        1.0  0.59801  0.83527  0.02791  1.0000
  N   N4        1.0  0.09801  0.83527  0.47209  1.0000
  O   O1        1.0  0.14796  0.95234  0.10804  1.0000
  O   O2        1.0  0.64798  0.95232  0.39194  1.0000
  O   O3        1.0  0.85204  0.04766  0.89196  1.0000
  O   O4        1.0  0.35202  0.04767  0.60806  1.0000
  O   O5        1.0  0.32733  0.97710  0.34542  1.0000
  O   O6        1.0  0.82735  0.97711  0.15457  1.0000
  O   O7        1.0  0.67267  0.02290  0.65458  1.0000
  O   O8        1.0  0.17265  0.02289  0.84543  1.0000
  O   O9        1.0  0.58218  0.20778  0.22748  1.0000
  O   O10       1.0  0.08218  0.20778  0.27253  1.0000
  O   O11       1.0  0.41782  0.79222  0.77252  1.0000
  O   O12       1.0  0.91782  0.79222  0.72748  1.0000
  O   O13       1.0  0.05196  0.21056  0.04749  1.0000
  O   O14       1.0  0.55196  0.21054  0.45251  1.0000
  O   O15       1.0  0.94804  0.78944  0.95251  1.0000
  O   O16       1.0  0.44804  0.78946  0.54749  1.0000
