data_image0
_chemical_formula_structural       Co2H40C44N4O16
_chemical_formula_sum              "Co2 H40 C44 N4 O16"
_cell_length_a       9.13146
_cell_length_b       9.76725
_cell_length_c       11.3481
_cell_angle_alpha    90.0051
_cell_angle_beta     89.9943
_cell_angle_gamma    98.4798

_space_group_name_H-M_alt    "P 1"
_space_group_IT_number       1

loop_
  _space_group_symop_operation_xyz
  'x, y, z'

loop_
  _atom_site_type_symbol
  _atom_site_label
  _atom_site_symmetry_multiplicity
  _atom_site_fract_x
  _atom_site_fract_y
  _atom_site_fract_z
  _atom_site_occupancy
  Co  Co1       1.0  1.00000  1.00000  1.00000  1.0000
  Co  Co2       1.0  0.50000  1.00000  0.50000  1.0000
  H   H1        1.0  0.32269  0.11711  0.92292  1.0000
  H   H2        1.0  0.82268  0.11710  0.57709  1.0000
  H   H3        1.0  0.67731  0.88289  0.07708  1.0000
  H   H4        1.0  0.17732  0.88289  0.42291  1.0000
  H   H5        1.0  0.46080  0.18620  0.75267  1.0000
  H   H6        1.0  0.96080  0.18619  0.74733  1.0000
  H   H7        1.0  0.53920  0.81380  0.24733  1.0000
  H   H8        1.0  0.03921  0.81381  0.25267  1.0000
  H   H9        1.0  0.64117  0.36344  0.65503  1.0000
  H   H10       1.0  0.14117  0.36345  0.84497  1.0000
  H   H11       1.0  0.35884  0.63656  0.34497  1.0000
  H   H12       1.0  0.85884  0.63655  0.15503  1.0000
  H   H13       1.0  0.78609  0.55364  0.77330  1.0000
  H   H14       1.0  0.28609  0.55365  0.72670  1.0000
  H   H15       1.0  0.21391  0.44635  0.22670  1.0000
  H   H16       1.0  0.71392  0.44635  0.27330  1.0000
  H   H17       1.0  0.75125  0.55819  0.99037  1.0000
  H   H18       1.0  0.25125  0.55820  0.50964  1.0000
  H   H19       1.0  0.24875  0.44181  0.00963  1.0000
  H   H20       1.0  0.74875  0.44180  0.49036  1.0000
  H   H21       1.0  0.57860  0.37498  0.09003  1.0000
  H   H22       1.0  0.07860  0.37498  0.40998  1.0000
  H   H23       1.0  0.42140  0.62502  0.90996  1.0000
  H   H24       1.0  0.92141  0.62502  0.59002  1.0000
  H   H25       1.0  0.08820  0.21608  0.12489  1.0000
  H   H26       1.0  0.58821  0.21606  0.37509  1.0000
  H   H27       1.0  0.91179  0.78392  0.87511  1.0000
  H   H28       1.0  0.41180  0.78394  0.62491  1.0000
  H   H29       1.0  0.98178  0.40402  0.05527  1.0000
  H   H30       1.0  0.48179  0.40402  0.44473  1.0000
  H   H31       1.0  0.01822  0.59598  0.94473  1.0000
  H   H32       1.0  0.51821  0.59598  0.55527  1.0000
  H   H33       1.0  0.84557  0.25737  0.08754  1.0000
  H   H34       1.0  0.34557  0.25736  0.41247  1.0000
  H   H35       1.0  0.15443  0.74263  0.91246  1.0000
  H   H36       1.0  0.65443  0.74264  0.58753  1.0000
  H   H37       1.0  0.90131  0.29353  0.93900  1.0000
  H   H38       1.0  0.40130  0.29355  0.56100  1.0000
  H   H39       1.0  0.09869  0.70647  0.06100  1.0000
  H   H40       1.0  0.59870  0.70645  0.43900  1.0000
  C   C1        1.0  0.28053  0.02270  0.14752  1.0000
  C   C2        1.0  0.78054  0.02270  0.35248  1.0000
  C   C3        1.0  0.71947  0.97731  0.85248  1.0000
  C   C4        1.0  0.21946  0.97730  0.64752  1.0000
  C   C5        1.0  0.36502  0.03678  0.25830  1.0000
  C   C6        1.0  0.86503  0.03679  0.24169  1.0000
  C   C7        1.0  0.63497  0.96322  0.74170  1.0000
  C   C8        1.0  0.13498  0.96321  0.75831  1.0000
  C   C9        1.0  0.47986  0.13941  0.20033  1.0000
  C   C10       1.0  0.97986  0.13942  0.29966  1.0000
  C   C11       1.0  0.52014  0.86059  0.79967  1.0000
  C   C12       1.0  0.02014  0.86059  0.70034  1.0000
  C   C13       1.0  0.39498  0.12023  0.08973  1.0000
  C   C14       1.0  0.89499  0.12024  0.41027  1.0000
  C   C15       1.0  0.60502  0.87977  0.91027  1.0000
  C   C16       1.0  0.10501  0.87977  0.58973  1.0000
  C   C17       1.0  0.52648  0.26670  0.80500  1.0000
  C   C18       1.0  0.02649  0.26669  0.69501  1.0000
  C   C19       1.0  0.47352  0.73330  0.19500  1.0000
  C   C20       1.0  0.97352  0.73331  0.30499  1.0000
  C   C21       1.0  0.62717  0.36795  0.75020  1.0000
  C   C22       1.0  0.12717  0.36795  0.74980  1.0000
  C   C23       1.0  0.37283  0.63204  0.24980  1.0000
  C   C24       1.0  0.87283  0.63205  0.25020  1.0000
  C   C25       1.0  0.70939  0.47295  0.81632  1.0000
  C   C26       1.0  0.20938  0.47295  0.68368  1.0000
  C   C27       1.0  0.29061  0.52705  0.18368  1.0000
  C   C28       1.0  0.79062  0.52705  0.31632  1.0000
  C   C29       1.0  0.69074  0.47449  0.93848  1.0000
  C   C30       1.0  0.19074  0.47450  0.56153  1.0000
  C   C31       1.0  0.30926  0.52551  0.06152  1.0000
  C   C32       1.0  0.80926  0.52550  0.43847  1.0000
  C   C33       1.0  0.59291  0.37240  0.99503  1.0000
  C   C34       1.0  0.09291  0.37240  0.50498  1.0000
  C   C35       1.0  0.40709  0.62759  0.00497  1.0000
  C   C36       1.0  0.90710  0.62760  0.49502  1.0000
  C   C37       1.0  0.51047  0.26802  0.92791  1.0000
  C   C38       1.0  0.01047  0.26802  0.57210  1.0000
  C   C39       1.0  0.48953  0.73198  0.07209  1.0000
  C   C40       1.0  0.98954  0.73198  0.42790  1.0000
  C   C41       1.0  0.93952  0.29680  0.03031  1.0000
  C   C42       1.0  0.43952  0.29680  0.46969  1.0000
  C   C43       1.0  0.06048  0.70320  0.96969  1.0000
  C   C44       1.0  0.56048  0.70320  0.53031  1.0000
  N   N1        1.0  0.40501  0.16426  0.97883  1.0000
  N   N2        1.0  0.90502  0.16426  0.52117  1.0000
  N   N3        1.0  0.59498  0.83574  0.02117  1.0000
  N   N4        1.0  0.09498  0.83574  0.47883  1.0000
  O   O1        1.0  0.15710  0.95721  0.11801  1.0000
  O   O2        1.0  0.65711  0.95720  0.38199  1.0000
  O   O3        1.0  0.84289  0.04279  0.88199  1.0000
  O   O4        1.0  0.34289  0.04280  0.61801  1.0000
  O   O5        1.0  0.34353  0.98442  0.35982  1.0000
  O   O6        1.0  0.84353  0.98443  0.14017  1.0000
  O   O7        1.0  0.65647  0.01558  0.64018  1.0000
  O   O8        1.0  0.15647  0.01558  0.85983  1.0000
  O   O9        1.0  0.59618  0.21377  0.23374  1.0000
  O   O10       1.0  0.09617  0.21377  0.26623  1.0000
  O   O11       1.0  0.40383  0.78624  0.76625  1.0000
  O   O12       1.0  0.90383  0.78623  0.73377  1.0000
  O   O13       1.0  0.05718  0.21322  0.03899  1.0000
  O   O14       1.0  0.55718  0.21322  0.46099  1.0000
  O   O15       1.0  0.94282  0.78678  0.96101  1.0000
  O   O16       1.0  0.44282  0.78678  0.53901  1.0000
