data_image0
_chemical_formula_structural       Cd4H40C36S4N8O12
_chemical_formula_sum              "Cd4 H40 C36 S4 N8 O12"
_cell_length_a       5.6918
_cell_length_b       12.8256
_cell_length_c       16.5109
_cell_angle_alpha    89.9982
_cell_angle_beta     89.999
_cell_angle_gamma    94.8904

_space_group_name_H-M_alt    "P 1"
_space_group_IT_number       1

loop_
  _space_group_symop_operation_xyz
  'x, y, z'

loop_
  _atom_site_type_symbol
  _atom_site_label
  _atom_site_symmetry_multiplicity
  _atom_site_fract_x
  _atom_site_fract_y
  _atom_site_fract_z
  _atom_site_occupancy
  Cd  Cd1       1.0  0.14340  0.17196  0.63916  1.0000
  Cd  Cd2       1.0  0.85657  0.32804  0.13915  1.0000
  Cd  Cd3       1.0  0.85659  0.82804  0.36084  1.0000
  Cd  Cd4       1.0  0.14342  0.67196  0.86085  1.0000
  H   H1        1.0  0.39781  0.19973  0.06180  1.0000
  H   H2        1.0  0.60215  0.30027  0.56180  1.0000
  H   H3        1.0  0.60218  0.80027  0.93819  1.0000
  H   H4        1.0  0.39784  0.69973  0.43820  1.0000
  H   H5        1.0  0.21508  0.16351  0.92562  1.0000
  H   H6        1.0  0.78489  0.33649  0.42561  1.0000
  H   H7        1.0  0.78492  0.83650  0.07438  1.0000
  H   H8        1.0  0.21511  0.66351  0.57440  1.0000
  H   H9        1.0  0.84149  0.31839  0.81868  1.0000
  H   H10       1.0  0.15849  0.18160  0.31869  1.0000
  H   H11       1.0  0.15851  0.68162  0.18132  1.0000
  H   H12       1.0  0.84152  0.81839  0.68131  1.0000
  H   H13       1.0  0.00029  0.34993  0.95860  1.0000
  H   H14       1.0  0.99968  0.15006  0.45861  1.0000
  H   H15       1.0  0.99970  0.65008  0.04140  1.0000
  H   H16       1.0  0.00032  0.84993  0.54139  1.0000
  H   H17       1.0  0.76818  0.29833  0.68330  1.0000
  H   H18       1.0  0.23179  0.20167  0.18330  1.0000
  H   H19       1.0  0.23182  0.70167  0.31670  1.0000
  H   H20       1.0  0.76821  0.79833  0.81671  1.0000
  H   H21       1.0  0.15628  0.44382  0.63366  1.0000
  H   H22       1.0  0.84372  0.05618  0.13368  1.0000
  H   H23       1.0  0.84373  0.55618  0.36633  1.0000
  H   H24       1.0  0.15628  0.94383  0.86632  1.0000
  H   H25       1.0  0.01235  0.44534  0.72847  1.0000
  H   H26       1.0  0.98767  0.05466  0.22848  1.0000
  H   H27       1.0  0.98769  0.55466  0.27152  1.0000
  H   H28       1.0  0.01233  0.94534  0.77152  1.0000
  H   H29       1.0  0.86123  0.57929  0.63992  1.0000
  H   H30       1.0  0.13878  0.92071  0.13992  1.0000
  H   H31       1.0  0.13878  0.42071  0.36008  1.0000
  H   H32       1.0  0.86123  0.07929  0.86007  1.0000
  H   H33       1.0  0.63070  0.47976  0.65782  1.0000
  H   H34       1.0  0.36931  0.02025  0.15781  1.0000
  H   H35       1.0  0.36931  0.52024  0.34219  1.0000
  H   H36       1.0  0.63070  0.97976  0.84218  1.0000
  H   H37       1.0  0.78244  0.48470  0.56310  1.0000
  H   H38       1.0  0.21754  0.01531  0.06309  1.0000
  H   H39       1.0  0.21755  0.51531  0.43690  1.0000
  H   H40       1.0  0.78245  0.98470  0.93690  1.0000
  C   C1        1.0  0.61663  0.04523  0.61728  1.0000
  C   C2        1.0  0.38334  0.45476  0.11728  1.0000
  C   C3        1.0  0.38336  0.95476  0.38272  1.0000
  C   C4        1.0  0.61665  0.54524  0.88273  1.0000
  C   C5        1.0  0.49224  0.22343  0.00661  1.0000
  C   C6        1.0  0.50772  0.27658  0.50661  1.0000
  C   C7        1.0  0.50775  0.77658  0.99339  1.0000
  C   C8        1.0  0.49227  0.72342  0.49339  1.0000
  C   C9        1.0  0.39043  0.20389  0.93110  1.0000
  C   C10       1.0  0.60954  0.29611  0.43109  1.0000
  C   C11       1.0  0.60957  0.79611  0.06890  1.0000
  C   C12       1.0  0.39046  0.70389  0.56891  1.0000
  C   C13       1.0  0.51275  0.23950  0.86168  1.0000
  C   C14       1.0  0.48723  0.26049  0.36168  1.0000
  C   C15       1.0  0.48724  0.76050  0.13832  1.0000
  C   C16       1.0  0.51278  0.73951  0.63833  1.0000
  C   C17       1.0  0.73793  0.29072  0.87092  1.0000
  C   C18       1.0  0.26204  0.20927  0.37092  1.0000
  C   C19       1.0  0.26206  0.70929  0.12908  1.0000
  C   C20       1.0  0.73796  0.79072  0.62908  1.0000
  C   C21       1.0  0.82835  0.30745  0.94850  1.0000
  C   C22       1.0  0.17163  0.19255  0.44851  1.0000
  C   C23       1.0  0.17165  0.69256  0.05150  1.0000
  C   C24       1.0  0.82837  0.80745  0.55149  1.0000
  C   C25       1.0  0.39648  0.22490  0.78027  1.0000
  C   C26       1.0  0.60351  0.27509  0.28027  1.0000
  C   C27       1.0  0.60353  0.77511  0.21973  1.0000
  C   C28       1.0  0.39650  0.72490  0.71973  1.0000
  C   C29       1.0  0.98430  0.42846  0.66355  1.0000
  C   C30       1.0  0.01571  0.07153  0.16356  1.0000
  C   C31       1.0  0.01572  0.57154  0.33644  1.0000
  C   C32       1.0  0.98430  0.92847  0.83644  1.0000
  C   C33       1.0  0.80364  0.49671  0.62873  1.0000
  C   C34       1.0  0.19636  0.00329  0.12873  1.0000
  C   C35       1.0  0.19637  0.50329  0.37127  1.0000
  C   C36       1.0  0.80364  0.99671  0.87127  1.0000
  S   S1        1.0  0.35498  0.99119  0.63815  1.0000
  S   S2        1.0  0.64498  0.50880  0.13816  1.0000
  S   S3        1.0  0.64501  0.00880  0.36185  1.0000
  S   S4        1.0  0.35501  0.49120  0.86185  1.0000
  N   N1        1.0  0.80673  0.08399  0.60058  1.0000
  N   N2        1.0  0.19325  0.41601  0.10057  1.0000
  N   N3        1.0  0.19326  0.91600  0.39942  1.0000
  N   N4        1.0  0.80674  0.58399  0.89943  1.0000
  N   N5        1.0  0.70726  0.27474  0.01523  1.0000
  N   N6        1.0  0.29271  0.22527  0.51524  1.0000
  N   N7        1.0  0.29273  0.72527  0.98477  1.0000
  N   N8        1.0  0.70729  0.77473  0.48476  1.0000
  O   O1        1.0  0.18864  0.17946  0.77873  1.0000
  O   O2        1.0  0.81135  0.32052  0.27872  1.0000
  O   O3        1.0  0.81136  0.82054  0.22127  1.0000
  O   O4        1.0  0.18865  0.67947  0.72128  1.0000
  O   O5        1.0  0.50444  0.25810  0.71647  1.0000
  O   O6        1.0  0.49553  0.24189  0.21647  1.0000
  O   O7        1.0  0.49555  0.74190  0.28353  1.0000
  O   O8        1.0  0.50447  0.75810  0.78353  1.0000
  O   O9        1.0  0.91584  0.31861  0.65184  1.0000
  O   O10       1.0  0.08415  0.18138  0.15184  1.0000
  O   O11       1.0  0.08416  0.68138  0.34815  1.0000
  O   O12       1.0  0.91586  0.81862  0.84816  1.0000
