data_image0
_chemical_formula_structural       Cd8H36C52N4O24
_chemical_formula_sum              "Cd8 H36 C52 N4 O24"
_cell_length_a       3.81673
_cell_length_b       15.5756
_cell_length_c       21.586
_cell_angle_alpha    102
_cell_angle_beta     90
_cell_angle_gamma    90

_space_group_name_H-M_alt    "P 1"
_space_group_IT_number       1

loop_
  _space_group_symop_operation_xyz
  'x, y, z'

loop_
  _atom_site_type_symbol
  _atom_site_label
  _atom_site_symmetry_multiplicity
  _atom_site_fract_x
  _atom_site_fract_y
  _atom_site_fract_z
  _atom_site_occupancy
  Cd  Cd1       1.0  0.38572  0.46058  0.68168  1.0000
  Cd  Cd2       1.0  0.88572  0.53942  0.81832  1.0000
  Cd  Cd3       1.0  0.61427  0.53941  0.31832  1.0000
  Cd  Cd4       1.0  0.11428  0.46059  0.18168  1.0000
  Cd  Cd5       1.0  0.03384  0.64230  0.46505  1.0000
  Cd  Cd6       1.0  0.53384  0.35770  0.03495  1.0000
  Cd  Cd7       1.0  0.96616  0.35770  0.53495  1.0000
  Cd  Cd8       1.0  0.46616  0.64230  0.96505  1.0000
  H   H1        1.0  0.79466  0.71449  0.71479  1.0000
  H   H2        1.0  0.29467  0.28551  0.78520  1.0000
  H   H3        1.0  0.20534  0.28551  0.28520  1.0000
  H   H4        1.0  0.70535  0.71449  0.21480  1.0000
  H   H5        1.0  0.57056  0.86781  0.72472  1.0000
  H   H6        1.0  0.07057  0.13219  0.77528  1.0000
  H   H7        1.0  0.42944  0.13219  0.27528  1.0000
  H   H8        1.0  0.92942  0.86782  0.22472  1.0000
  H   H9        1.0  0.69380  0.83339  0.52183  1.0000
  H   H10       1.0  0.19380  0.16661  0.97817  1.0000
  H   H11       1.0  0.30622  0.16661  0.47817  1.0000
  H   H12       1.0  0.80623  0.83339  0.02183  1.0000
  H   H13       1.0  0.74681  0.00983  0.71653  1.0000
  H   H14       1.0  0.24681  0.99017  0.78347  1.0000
  H   H15       1.0  0.25316  0.99016  0.28348  1.0000
  H   H16       1.0  0.75317  0.00984  0.21653  1.0000
  H   H17       1.0  0.59905  0.16513  0.71346  1.0000
  H   H18       1.0  0.09905  0.83487  0.78654  1.0000
  H   H19       1.0  0.40087  0.83487  0.28654  1.0000
  H   H20       1.0  0.90095  0.16513  0.21346  1.0000
  H   H21       1.0  0.09020  0.07957  0.53506  1.0000
  H   H22       1.0  0.59018  0.92043  0.96494  1.0000
  H   H23       1.0  0.90980  0.92043  0.46494  1.0000
  H   H24       1.0  0.40981  0.07957  0.03506  1.0000
  H   H25       1.0  0.25315  0.92531  0.53491  1.0000
  H   H26       1.0  0.75314  0.07468  0.96509  1.0000
  H   H27       1.0  0.74686  0.07468  0.46509  1.0000
  H   H28       1.0  0.24686  0.92532  0.03491  1.0000
  H   H29       1.0  0.43864  0.47872  0.56135  1.0000
  H   H30       1.0  0.93864  0.52128  0.93865  1.0000
  H   H31       1.0  0.56136  0.52128  0.43865  1.0000
  H   H32       1.0  0.06136  0.47872  0.06135  1.0000
  H   H33       1.0  0.88563  0.36673  0.72375  1.0000
  H   H34       1.0  0.38564  0.63327  0.77625  1.0000
  H   H35       1.0  0.11436  0.63327  0.27625  1.0000
  H   H36       1.0  0.61437  0.36673  0.22375  1.0000
  C   C1        1.0  0.03559  0.60669  0.60599  1.0000
  C   C2        1.0  0.53559  0.39331  0.89401  1.0000
  C   C3        1.0  0.96443  0.39331  0.39400  1.0000
  C   C4        1.0  0.46442  0.60669  0.10599  1.0000
  C   C5        1.0  0.87136  0.69649  0.61388  1.0000
  C   C6        1.0  0.37137  0.30351  0.88612  1.0000
  C   C7        1.0  0.12865  0.30351  0.38612  1.0000
  C   C8        1.0  0.62868  0.69649  0.11388  1.0000
  C   C9        1.0  0.76852  0.74391  0.67335  1.0000
  C   C10       1.0  0.26854  0.25609  0.82665  1.0000
  C   C11       1.0  0.23147  0.25609  0.32665  1.0000
  C   C12       1.0  0.73147  0.74392  0.17335  1.0000
  C   C13       1.0  0.64378  0.82911  0.67847  1.0000
  C   C14       1.0  0.14378  0.17089  0.82153  1.0000
  C   C15       1.0  0.35623  0.17089  0.32153  1.0000
  C   C16       1.0  0.85623  0.82912  0.17847  1.0000
  C   C17       1.0  0.61430  0.86517  0.62435  1.0000
  C   C18       1.0  0.11429  0.13483  0.87565  1.0000
  C   C19       1.0  0.38571  0.13482  0.37565  1.0000
  C   C20       1.0  0.88571  0.86518  0.12435  1.0000
  C   C21       1.0  0.71019  0.81102  0.56633  1.0000
  C   C22       1.0  0.21020  0.18898  0.93367  1.0000
  C   C23       1.0  0.28982  0.18898  0.43367  1.0000
  C   C24       1.0  0.78984  0.81102  0.06633  1.0000
  C   C25       1.0  0.50561  0.95629  0.62617  1.0000
  C   C26       1.0  0.00559  0.04371  0.87383  1.0000
  C   C27       1.0  0.49438  0.04371  0.37383  1.0000
  C   C28       1.0  0.99441  0.95629  0.12617  1.0000
  C   C29       1.0  0.59661  0.02476  0.67707  1.0000
  C   C30       1.0  0.09660  0.97524  0.82293  1.0000
  C   C31       1.0  0.40335  0.97523  0.32293  1.0000
  C   C32       1.0  0.90339  0.02476  0.17707  1.0000
  C   C33       1.0  0.51618  0.11148  0.67550  1.0000
  C   C34       1.0  0.01617  0.88852  0.82450  1.0000
  C   C35       1.0  0.48382  0.88852  0.32450  1.0000
  C   C36       1.0  0.98383  0.11148  0.17550  1.0000
  C   C37       1.0  0.33328  0.13217  0.62430  1.0000
  C   C38       1.0  0.83325  0.86783  0.87570  1.0000
  C   C39       1.0  0.66669  0.86782  0.37571  1.0000
  C   C40       1.0  0.16674  0.13217  0.12430  1.0000
  C   C41       1.0  0.24281  0.22626  0.62264  1.0000
  C   C42       1.0  0.74280  0.77374  0.87736  1.0000
  C   C43       1.0  0.75717  0.77374  0.37736  1.0000
  C   C44       1.0  0.25719  0.22626  0.12264  1.0000
  C   C45       1.0  0.23809  0.06384  0.57420  1.0000
  C   C46       1.0  0.73807  0.93616  0.92580  1.0000
  C   C47       1.0  0.76190  0.93616  0.42580  1.0000
  C   C48       1.0  0.26191  0.06384  0.07420  1.0000
  C   C49       1.0  0.32658  0.97758  0.57462  1.0000
  C   C50       1.0  0.82657  0.02242  0.92538  1.0000
  C   C51       1.0  0.67343  0.02242  0.42538  1.0000
  C   C52       1.0  0.17344  0.97759  0.07462  1.0000
  N   N1        1.0  0.84042  0.73032  0.56158  1.0000
  N   N2        1.0  0.34042  0.26968  0.93842  1.0000
  N   N3        1.0  0.15960  0.26968  0.43842  1.0000
  N   N4        1.0  0.65960  0.73033  0.06158  1.0000
  O   O1        1.0  0.19040  0.57559  0.55361  1.0000
  O   O2        1.0  0.69042  0.42441  0.94639  1.0000
  O   O3        1.0  0.80962  0.42441  0.44639  1.0000
  O   O4        1.0  0.30964  0.57559  0.05361  1.0000
  O   O5        1.0  0.01259  0.57025  0.65286  1.0000
  O   O6        1.0  0.51257  0.42974  0.84714  1.0000
  O   O7        1.0  0.98742  0.42974  0.34714  1.0000
  O   O8        1.0  0.48740  0.57026  0.15286  1.0000
  O   O9        1.0  0.34225  0.28580  0.66796  1.0000
  O   O10       1.0  0.84224  0.71420  0.83204  1.0000
  O   O11       1.0  0.65775  0.71420  0.33204  1.0000
  O   O12       1.0  0.15775  0.28580  0.16796  1.0000
  O   O13       1.0  0.06807  0.23602  0.57358  1.0000
  O   O14       1.0  0.56807  0.76398  0.92642  1.0000
  O   O15       1.0  0.93193  0.76398  0.42642  1.0000
  O   O16       1.0  0.43195  0.23602  0.07358  1.0000
  O   O17       1.0  0.47268  0.42161  0.57410  1.0000
  O   O18       1.0  0.97268  0.57839  0.92590  1.0000
  O   O19       1.0  0.52732  0.57839  0.42590  1.0000
  O   O20       1.0  0.02732  0.42161  0.07410  1.0000
  O   O21       1.0  0.88356  0.42939  0.72438  1.0000
  O   O22       1.0  0.38357  0.57061  0.77562  1.0000
  O   O23       1.0  0.11642  0.57061  0.27562  1.0000
  O   O24       1.0  0.61644  0.42939  0.22438  1.0000
