data_image0
_chemical_formula_structural       Gd2H30C36N12O24
_chemical_formula_sum              "Gd2 H30 C36 N12 O24"
_cell_length_a       9.88812
_cell_length_b       10.1824
_cell_length_c       11.3539
_cell_angle_alpha    83.0433
_cell_angle_beta     82.2321
_cell_angle_gamma    70.2637

_space_group_name_H-M_alt    "P 1"
_space_group_IT_number       1

loop_
  _space_group_symop_operation_xyz
  'x, y, z'

loop_
  _atom_site_type_symbol
  _atom_site_label
  _atom_site_symmetry_multiplicity
  _atom_site_fract_x
  _atom_site_fract_y
  _atom_site_fract_z
  _atom_site_occupancy
  Gd  Gd1       1.0  0.66012  0.04415  0.09465  1.0000
  Gd  Gd2       1.0  0.33988  0.95585  0.90535  1.0000
  H   H1        1.0  0.65026  0.63272  0.05243  1.0000
  H   H2        1.0  0.34974  0.36727  0.94757  1.0000
  H   H3        1.0  0.65668  0.44599  0.21917  1.0000
  H   H4        1.0  0.34332  0.55401  0.78083  1.0000
  H   H5        1.0  0.38079  0.77318  0.43889  1.0000
  H   H6        1.0  0.61921  0.22682  0.56111  1.0000
  H   H7        1.0  0.38789  0.94445  0.26134  1.0000
  H   H8        1.0  0.61211  0.05555  0.73866  1.0000
  H   H9        1.0  0.58439  0.37904  0.42043  1.0000
  H   H10       1.0  0.41561  0.62095  0.57957  1.0000
  H   H11       1.0  0.89860  0.02347  0.71258  1.0000
  H   H12       1.0  0.10140  0.97653  0.28742  1.0000
  H   H13       1.0  0.04102  0.84481  0.57090  1.0000
  H   H14       1.0  0.95898  0.15519  0.42910  1.0000
  H   H15       1.0  0.99485  0.52623  0.84762  1.0000
  H   H16       1.0  0.00515  0.47377  0.15238  1.0000
  H   H17       1.0  0.85365  0.72106  0.97754  1.0000
  H   H18       1.0  0.14635  0.27894  0.02246  1.0000
  H   H19       1.0  0.12193  0.44898  0.66492  1.0000
  H   H20       1.0  0.87807  0.55102  0.33508  1.0000
  H   H21       1.0  0.12576  0.67333  0.45628  1.0000
  H   H22       1.0  0.87425  0.32668  0.54372  1.0000
  H   H23       1.0  0.23750  0.59673  0.26926  1.0000
  H   H24       1.0  0.76250  0.40328  0.73074  1.0000
  H   H25       1.0  0.37083  0.40667  0.13687  1.0000
  H   H26       1.0  0.62917  0.59333  0.86313  1.0000
  H   H27       1.0  0.23917  0.27500  0.55737  1.0000
  H   H28       1.0  0.76083  0.72501  0.44263  1.0000
  H   H29       1.0  0.36343  0.09972  0.41267  1.0000
  H   H30       1.0  0.63657  0.90028  0.58733  1.0000
  C   C1        1.0  0.59337  0.65520  0.13984  1.0000
  C   C2        1.0  0.40663  0.34480  0.86016  1.0000
  C   C3        1.0  0.59545  0.55482  0.23321  1.0000
  C   C4        1.0  0.40455  0.44518  0.76679  1.0000
  C   C5        1.0  0.52160  0.59266  0.34529  1.0000
  C   C6        1.0  0.47840  0.40734  0.65471  1.0000
  C   C7        1.0  0.44251  0.73513  0.35591  1.0000
  C   C8        1.0  0.55749  0.26487  0.64409  1.0000
  C   C9        1.0  0.44204  0.83227  0.26043  1.0000
  C   C10       1.0  0.55796  0.16773  0.73957  1.0000
  C   C11       1.0  0.52853  0.48659  0.44335  1.0000
  C   C12       1.0  0.47147  0.51341  0.55665  1.0000
  C   C13       1.0  0.92159  0.91180  0.73404  1.0000
  C   C14       1.0  0.07841  0.08820  0.26596  1.0000
  C   C15       1.0  0.00040  0.81027  0.65884  1.0000
  C   C16       1.0  0.99960  0.18973  0.34116  1.0000
  C   C17       1.0  0.02858  0.66689  0.69539  1.0000
  C   C18       1.0  0.97142  0.33311  0.30461  1.0000
  C   C19       1.0  0.97618  0.63492  0.81324  1.0000
  C   C20       1.0  0.02382  0.36508  0.18676  1.0000
  C   C21       1.0  0.89703  0.73911  0.88629  1.0000
  C   C22       1.0  0.10297  0.26089  0.11371  1.0000
  C   C23       1.0  0.10455  0.55374  0.62004  1.0000
  C   C24       1.0  0.89545  0.44627  0.37996  1.0000
  C   C25       1.0  0.14853  0.56857  0.50221  1.0000
  C   C26       1.0  0.85147  0.43143  0.49779  1.0000
  C   C27       1.0  0.22388  0.45566  0.42663  1.0000
  C   C28       1.0  0.77612  0.54435  0.57337  1.0000
  C   C29       1.0  0.26482  0.48832  0.30591  1.0000
  C   C30       1.0  0.73518  0.51168  0.69409  1.0000
  C   C31       1.0  0.33724  0.38537  0.23013  1.0000
  C   C32       1.0  0.66276  0.61464  0.76987  1.0000
  C   C33       1.0  0.26342  0.31196  0.46547  1.0000
  C   C34       1.0  0.73658  0.68805  0.53453  1.0000
  C   C35       1.0  0.33415  0.21134  0.38699  1.0000
  C   C36       1.0  0.66584  0.78866  0.61301  1.0000
  N   N1        1.0  0.51923  0.79162  0.15519  1.0000
  N   N2        1.0  0.48077  0.20838  0.84481  1.0000
  N   N3        1.0  0.74311  0.29521  0.01493  1.0000
  N   N4        1.0  0.25689  0.70478  0.98507  1.0000
  N   N5        1.0  0.90517  0.81142  0.19098  1.0000
  N   N6        1.0  0.09483  0.18858  0.80902  1.0000
  N   N7        1.0  0.86777  0.87640  0.84614  1.0000
  N   N8        1.0  0.13222  0.12360  0.15386  1.0000
  N   N9        1.0  0.36857  0.24793  0.26974  1.0000
  N   N10       1.0  0.63143  0.75207  0.73026  1.0000
  N   N11       1.0  0.68860  0.06844  0.34877  1.0000
  N   N12       1.0  0.31140  0.93156  0.65123  1.0000
  O   O1        1.0  0.52477  0.88902  0.06566  1.0000
  O   O2        1.0  0.47523  0.11098  0.93434  1.0000
  O   O3        1.0  0.84025  0.17905  0.03569  1.0000
  O   O4        1.0  0.15976  0.82095  0.96431  1.0000
  O   O5        1.0  0.61143  0.29271  0.02629  1.0000
  O   O6        1.0  0.38857  0.70728  0.97371  1.0000
  O   O7        1.0  0.76992  0.40605  0.98594  1.0000
  O   O8        1.0  0.23008  0.59395  0.01407  1.0000
  O   O9        1.0  0.90417  0.93744  0.16970  1.0000
  O   O10       1.0  0.09583  0.06256  0.83030  1.0000
  O   O11       1.0  0.80324  0.78238  0.15195  1.0000
  O   O12       1.0  0.19676  0.21762  0.84805  1.0000
  O   O13       1.0  0.99724  0.72175  0.24826  1.0000
  O   O14       1.0  0.00276  0.27825  0.75174  1.0000
  O   O15       1.0  0.78816  0.97655  0.91261  1.0000
  O   O16       1.0  0.21184  0.02345  0.08739  1.0000
  O   O17       1.0  0.42436  0.15064  0.19349  1.0000
  O   O18       1.0  0.57564  0.84936  0.80651  1.0000
  O   O19       1.0  0.65492  0.96685  0.31914  1.0000
  O   O20       1.0  0.34508  0.03315  0.68086  1.0000
  O   O21       1.0  0.68576  0.16949  0.26943  1.0000
  O   O22       1.0  0.31424  0.83051  0.73057  1.0000
  O   O23       1.0  0.72366  0.06745  0.45041  1.0000
  O   O24       1.0  0.27634  0.93255  0.54958  1.0000
