data_image0
_chemical_formula_structural       Cu2H18C22N2O12
_chemical_formula_sum              "Cu2 H18 C22 N2 O12"
_cell_length_a       7.34504
_cell_length_b       7.53925
_cell_length_c       12.1259
_cell_angle_alpha    105.093
_cell_angle_beta     89.3854
_cell_angle_gamma    119.326

_space_group_name_H-M_alt    "P 1"
_space_group_IT_number       1

loop_
  _space_group_symop_operation_xyz
  'x, y, z'

loop_
  _atom_site_type_symbol
  _atom_site_label
  _atom_site_symmetry_multiplicity
  _atom_site_fract_x
  _atom_site_fract_y
  _atom_site_fract_z
  _atom_site_occupancy
  Cu  Cu1       1.0  0.32926  0.44471  0.16481  1.0000
  Cu  Cu2       1.0  0.67076  0.55531  0.83519  1.0000
  H   H1        1.0  0.72466  0.53575  0.11486  1.0000
  H   H2        1.0  0.27536  0.46425  0.88514  1.0000
  H   H3        1.0  0.79400  0.76629  0.18760  1.0000
  H   H4        1.0  0.20599  0.23371  0.81240  1.0000
  H   H5        1.0  0.27493  0.08832  0.03330  1.0000
  H   H6        1.0  0.72511  0.91172  0.96671  1.0000
  H   H7        1.0  0.44260  0.27852  0.98868  1.0000
  H   H8        1.0  0.55744  0.72151  0.01132  1.0000
  H   H9        1.0  0.17946  0.10483  0.46348  1.0000
  H   H10       1.0  0.82053  0.89515  0.53652  1.0000
  H   H11       1.0  0.20928  0.00785  0.63879  1.0000
  H   H12       1.0  0.79072  0.99214  0.36121  1.0000
  H   H13       1.0  0.24762  0.76854  0.73090  1.0000
  H   H14       1.0  0.75239  0.23146  0.26910  1.0000
  H   H15       1.0  0.30503  0.48220  0.61420  1.0000
  H   H16       1.0  0.69490  0.51774  0.38580  1.0000
  H   H17       1.0  0.32405  0.43128  0.40332  1.0000
  H   H18       1.0  0.67587  0.56865  0.59667  1.0000
  C   C1        1.0  0.16545  0.07972  0.23932  1.0000
  C   C2        1.0  0.83455  0.92028  0.76068  1.0000
  C   C3        1.0  0.20281  0.94106  0.29482  1.0000
  C   C4        1.0  0.79719  0.05894  0.70518  1.0000
  C   C5        1.0  0.20338  0.97741  0.41242  1.0000
  C   C6        1.0  0.79661  0.02257  0.58758  1.0000
  C   C7        1.0  0.23537  0.85062  0.46765  1.0000
  C   C8        1.0  0.76462  0.14937  0.53235  1.0000
  C   C9        1.0  0.23292  0.88050  0.58787  1.0000
  C   C10       1.0  0.76708  0.11949  0.41213  1.0000
  C   C11       1.0  0.25467  0.74780  0.63890  1.0000
  C   C12       1.0  0.74532  0.25219  0.36110  1.0000
  C   C13       1.0  0.28594  0.58361  0.57141  1.0000
  C   C14       1.0  0.71403  0.41636  0.42859  1.0000
  C   C15       1.0  0.29557  0.55417  0.45481  1.0000
  C   C16       1.0  0.70439  0.44580  0.54518  1.0000
  C   C17       1.0  0.26799  0.68437  0.39912  1.0000
  C   C18       1.0  0.73200  0.31562  0.60087  1.0000
  C   C19       1.0  0.24244  0.77967  0.23299  1.0000
  C   C20       1.0  0.75758  0.22035  0.76701  1.0000
  C   C21       1.0  0.26258  0.74547  0.10641  1.0000
  C   C22       1.0  0.73746  0.25457  0.89360  1.0000
  N   N1        1.0  0.27297  0.65518  0.28273  1.0000
  N   N2        1.0  0.72703  0.34482  0.71727  1.0000
  O   O1        1.0  0.23489  0.84933  0.05114  1.0000
  O   O2        1.0  0.76517  0.15071  0.94887  1.0000
  O   O3        1.0  0.31571  0.60288  0.06147  1.0000
  O   O4        1.0  0.68432  0.39716  0.93852  1.0000
  O   O5        1.0  0.98381  0.02778  0.20131  1.0000
  O   O6        1.0  0.01620  0.97223  0.79869  1.0000
  O   O7        1.0  0.33566  0.25726  0.24648  1.0000
  O   O8        1.0  0.66432  0.74274  0.75352  1.0000
  O   O9        1.0  0.70193  0.61463  0.18647  1.0000
  O   O10       1.0  0.29807  0.38537  0.81353  1.0000
  O   O11       1.0  0.30695  0.22480  0.02059  1.0000
  O   O12       1.0  0.69308  0.77523  0.97942  1.0000
