data_image0
_chemical_formula_structural       K4H28C24N16O20
_chemical_formula_sum              "K4 H28 C24 N16 O20"
_cell_length_a       4.58996
_cell_length_b       9.87303
_cell_length_c       22.3883
_cell_angle_alpha    90
_cell_angle_beta     89.9999
_cell_angle_gamma    90.0001

_space_group_name_H-M_alt    "P 1"
_space_group_IT_number       1

loop_
  _space_group_symop_operation_xyz
  'x, y, z'

loop_
  _atom_site_type_symbol
  _atom_site_label
  _atom_site_symmetry_multiplicity
  _atom_site_fract_x
  _atom_site_fract_y
  _atom_site_fract_z
  _atom_site_occupancy
  K   K1        1.0  0.09984  0.77541  0.92797  1.0000
  K   K2        1.0  0.40016  0.22458  0.42797  1.0000
  K   K3        1.0  0.90016  0.27541  0.57203  1.0000
  K   K4        1.0  0.59984  0.72459  0.07203  1.0000
  H   H1        1.0  0.42499  0.21205  0.96561  1.0000
  H   H2        1.0  0.07500  0.78795  0.46561  1.0000
  H   H3        1.0  0.57501  0.71205  0.53439  1.0000
  H   H4        1.0  0.92499  0.28795  0.03439  1.0000
  H   H5        1.0  0.10211  0.25035  0.88963  1.0000
  H   H6        1.0  0.39789  0.74965  0.38963  1.0000
  H   H7        1.0  0.89789  0.75035  0.61037  1.0000
  H   H8        1.0  0.60211  0.24965  0.11037  1.0000
  H   H9        1.0  0.68572  0.25924  0.79579  1.0000
  H   H10       1.0  0.81428  0.74076  0.29579  1.0000
  H   H11       1.0  0.31428  0.75923  0.70421  1.0000
  H   H12       1.0  0.18572  0.24076  0.20421  1.0000
  H   H13       1.0  0.42093  0.05901  0.72949  1.0000
  H   H14       1.0  0.07907  0.94099  0.22949  1.0000
  H   H15       1.0  0.57907  0.55901  0.77051  1.0000
  H   H16       1.0  0.92093  0.44099  0.27051  1.0000
  H   H17       1.0  0.66317  0.82046  0.77426  1.0000
  H   H18       1.0  0.83683  0.17954  0.27426  1.0000
  H   H19       1.0  0.33682  0.32046  0.72574  1.0000
  H   H20       1.0  0.16317  0.67954  0.22574  1.0000
  H   H21       1.0  0.83520  0.51899  0.86166  1.0000
  H   H22       1.0  0.66480  0.48101  0.36166  1.0000
  H   H23       1.0  0.16480  0.01899  0.63834  1.0000
  H   H24       1.0  0.33520  0.98101  0.13834  1.0000
  H   H25       1.0  0.07863  0.54305  0.81277  1.0000
  H   H26       1.0  0.42137  0.45695  0.31277  1.0000
  H   H27       1.0  0.92137  0.04305  0.68723  1.0000
  H   H28       1.0  0.57863  0.95695  0.18723  1.0000
  C   C1        1.0  0.09843  0.14043  0.88302  1.0000
  C   C2        1.0  0.40157  0.85957  0.38302  1.0000
  C   C3        1.0  0.90157  0.64042  0.61698  1.0000
  C   C4        1.0  0.59843  0.35957  0.11698  1.0000
  C   C5        1.0  0.72148  0.15085  0.79841  1.0000
  C   C6        1.0  0.77852  0.84915  0.29841  1.0000
  C   C7        1.0  0.27852  0.65085  0.70158  1.0000
  C   C8        1.0  0.22148  0.34915  0.20159  1.0000
  C   C9        1.0  0.90764  0.08833  0.83796  1.0000
  C   C10       1.0  0.59236  0.91167  0.33796  1.0000
  C   C11       1.0  0.09237  0.58833  0.66204  1.0000
  C   C12       1.0  0.40764  0.41167  0.16204  1.0000
  C   C13       1.0  0.61851  0.02231  0.98574  1.0000
  C   C14       1.0  0.88149  0.97769  0.48574  1.0000
  C   C15       1.0  0.38150  0.52231  0.51426  1.0000
  C   C16       1.0  0.11851  0.47769  0.01426  1.0000
  C   C17       1.0  0.58548  0.04637  0.76409  1.0000
  C   C18       1.0  0.91452  0.95363  0.26409  1.0000
  C   C19       1.0  0.41452  0.54637  0.73591  1.0000
  C   C20       1.0  0.08548  0.45363  0.23591  1.0000
  C   C21       1.0  0.69726  0.92644  0.78480  1.0000
  C   C22       1.0  0.80274  0.07357  0.28480  1.0000
  C   C23       1.0  0.30274  0.42643  0.71520  1.0000
  C   C24       1.0  0.19726  0.57357  0.21520  1.0000
  N   N1        1.0  0.43377  0.10964  0.95596  1.0000
  N   N2        1.0  0.06623  0.89036  0.45596  1.0000
  N   N3        1.0  0.56623  0.60964  0.54404  1.0000
  N   N4        1.0  0.93377  0.39036  0.04404  1.0000
  N   N5        1.0  0.25652  0.05693  0.91398  1.0000
  N   N6        1.0  0.24347  0.94307  0.41397  1.0000
  N   N7        1.0  0.74348  0.55693  0.58602  1.0000
  N   N8        1.0  0.75653  0.44307  0.08603  1.0000
  N   N9        1.0  0.78271  0.09603  0.02679  1.0000
  N   N10       1.0  0.71729  0.90397  0.52679  1.0000
  N   N11       1.0  0.21729  0.59603  0.47321  1.0000
  N   N12       1.0  0.28271  0.40397  0.97321  1.0000
  N   N13       1.0  0.97772  0.03011  0.05968  1.0000
  N   N14       1.0  0.52227  0.96989  0.55968  1.0000
  N   N15       1.0  0.02228  0.53011  0.44032  1.0000
  N   N16       1.0  0.47772  0.46989  0.94032  1.0000
  O   O1        1.0  0.61747  0.89860  0.97485  1.0000
  O   O2        1.0  0.88253  0.10140  0.47485  1.0000
  O   O3        1.0  0.38253  0.39860  0.52515  1.0000
  O   O4        1.0  0.11747  0.60140  0.02515  1.0000
  O   O5        1.0  0.89399  0.94973  0.82963  1.0000
  O   O6        1.0  0.60601  0.05027  0.32963  1.0000
  O   O7        1.0  0.10601  0.44973  0.67037  1.0000
  O   O8        1.0  0.39399  0.55027  0.17037  1.0000
  O   O9        1.0  0.94627  0.58985  0.83994  1.0000
  O   O10       1.0  0.55373  0.41015  0.33994  1.0000
  O   O11       1.0  0.05373  0.08985  0.66006  1.0000
  O   O12       1.0  0.44626  0.91015  0.16006  1.0000
  O   O13       1.0  0.09816  0.10061  0.10068  1.0000
  O   O14       1.0  0.40183  0.89939  0.60068  1.0000
  O   O15       1.0  0.90183  0.60061  0.39932  1.0000
  O   O16       1.0  0.59816  0.39939  0.89932  1.0000
  O   O17       1.0  0.05071  0.90805  0.05247  1.0000
  O   O18       1.0  0.44928  0.09195  0.55247  1.0000
  O   O19       1.0  0.94929  0.40805  0.44753  1.0000
  O   O20       1.0  0.55072  0.59195  0.94753  1.0000
