data_image0
_chemical_formula_structural       Zn2H56C48N4O12
_chemical_formula_sum              "Zn2 H56 C48 N4 O12"
_cell_length_a       8.97242
_cell_length_b       11.2734
_cell_length_c       12.1492
_cell_angle_alpha    73.0522
_cell_angle_beta     68.3639
_cell_angle_gamma    66.5558

_space_group_name_H-M_alt    "P 1"
_space_group_IT_number       1

loop_
  _space_group_symop_operation_xyz
  'x, y, z'

loop_
  _atom_site_type_symbol
  _atom_site_label
  _atom_site_symmetry_multiplicity
  _atom_site_fract_x
  _atom_site_fract_y
  _atom_site_fract_z
  _atom_site_occupancy
  Zn  Zn1       1.0  0.94855  0.24997  0.75003  1.0000
  Zn  Zn2       1.0  0.05145  0.75003  0.24997  1.0000
  H   H1        1.0  0.91191  0.97655  0.59617  1.0000
  H   H2        1.0  0.48456  0.52343  0.90394  1.0000
  H   H3        1.0  0.08809  0.02345  0.40383  1.0000
  H   H4        1.0  0.51544  0.47657  0.09606  1.0000
  H   H5        1.0  0.03723  0.82252  0.46834  1.0000
  H   H6        1.0  0.32812  0.67749  0.03170  1.0000
  H   H7        1.0  0.96277  0.17748  0.53166  1.0000
  H   H8        1.0  0.67188  0.32251  0.96830  1.0000
  H   H9        1.0  0.04324  0.65935  0.52701  1.0000
  H   H10       1.0  0.22958  0.84067  0.97301  1.0000
  H   H11       1.0  0.95676  0.34065  0.47299  1.0000
  H   H12       1.0  0.77042  0.15933  0.02699  1.0000
  H   H13       1.0  0.81004  0.97199  0.40211  1.0000
  H   H14       1.0  0.18416  0.52804  0.09794  1.0000
  H   H15       1.0  0.18996  0.02801  0.59789  1.0000
  H   H16       1.0  0.81584  0.47196  0.90206  1.0000
  H   H17       1.0  0.63605  0.92086  0.50328  1.0000
  H   H18       1.0  0.06014  0.57913  0.99674  1.0000
  H   H19       1.0  0.36395  0.07914  0.49671  1.0000
  H   H20       1.0  0.93986  0.42087  0.00326  1.0000
  H   H21       1.0  0.57869  0.88173  0.33424  1.0000
  H   H22       1.0  0.79473  0.61825  0.16568  1.0000
  H   H23       1.0  0.42131  0.11827  0.66576  1.0000
  H   H24       1.0  0.20527  0.38175  0.83432  1.0000
  H   H25       1.0  0.59174  0.04204  0.30324  1.0000
  H   H26       1.0  0.93711  0.45796  0.19674  1.0000
  H   H27       1.0  0.40825  0.95796  0.69676  1.0000
  H   H28       1.0  0.06289  0.54204  0.80326  1.0000
  H   H29       1.0  0.65724  0.69768  0.54436  1.0000
  H   H30       1.0  0.89922  0.80236  0.95560  1.0000
  H   H31       1.0  0.34276  0.30232  0.45564  1.0000
  H   H32       1.0  0.10078  0.19764  0.04440  1.0000
  H   H33       1.0  0.86345  0.58189  0.52494  1.0000
  H   H34       1.0  0.97021  0.91815  0.97508  1.0000
  H   H35       1.0  0.13655  0.41811  0.47506  1.0000
  H   H36       1.0  0.02979  0.08185  0.02492  1.0000
  H   H37       1.0  0.67877  0.97195  0.07854  1.0000
  H   H38       1.0  0.72932  0.52798  0.42142  1.0000
  H   H39       1.0  0.32123  0.02805  0.92146  1.0000
  H   H40       1.0  0.27068  0.47202  0.57858  1.0000
  H   H41       1.0  0.68982  0.81118  0.15751  1.0000
  H   H42       1.0  0.65846  0.68876  0.34243  1.0000
  H   H43       1.0  0.31019  0.18882  0.84249  1.0000
  H   H44       1.0  0.34154  0.31124  0.65757  1.0000
  H   H45       1.0  0.77075  0.62589  0.71461  1.0000
  H   H46       1.0  0.11117  0.87409  0.78532  1.0000
  H   H47       1.0  0.22925  0.37411  0.28539  1.0000
  H   H48       1.0  0.88883  0.12591  0.21468  1.0000
  H   H49       1.0  0.59320  0.69991  0.90889  1.0000
  H   H50       1.0  0.20202  0.80009  0.59101  1.0000
  H   H51       1.0  0.40680  0.30009  0.09111  1.0000
  H   H52       1.0  0.79798  0.19991  0.40899  1.0000
  H   H53       1.0  0.57503  0.90766  0.94913  1.0000
  H   H54       1.0  0.43189  0.59237  0.55077  1.0000
  H   H55       1.0  0.42497  0.09234  0.05087  1.0000
  H   H56       1.0  0.56811  0.40763  0.44923  1.0000
  C   C1        1.0  0.75153  0.07330  0.80540  1.0000
  C   C2        1.0  0.63023  0.42676  0.69461  1.0000
  C   C3        1.0  0.24847  0.92670  0.19460  1.0000
  C   C4        1.0  0.36978  0.57324  0.30539  1.0000
  C   C5        1.0  0.74396  0.95576  0.77464  1.0000
  C   C6        1.0  0.47440  0.54427  0.72536  1.0000
  C   C7        1.0  0.25604  0.04424  0.22536  1.0000
  C   C8        1.0  0.52559  0.45572  0.27464  1.0000
  C   C9        1.0  0.83923  0.91617  0.66319  1.0000
  C   C10       1.0  0.41854  0.58384  0.83685  1.0000
  C   C11       1.0  0.16077  0.08383  0.33681  1.0000
  C   C12       1.0  0.58146  0.41616  0.16315  1.0000
  C   C13       1.0  0.84815  0.79974  0.63778  1.0000
  C   C14       1.0  0.28565  0.70030  0.86223  1.0000
  C   C15       1.0  0.15185  0.20026  0.36222  1.0000
  C   C16       1.0  0.71436  0.29970  0.13777  1.0000
  C   C17       1.0  0.95681  0.76054  0.51660  1.0000
  C   C18       1.0  0.23394  0.73949  0.98342  1.0000
  C   C19       1.0  0.04319  0.23946  0.48340  1.0000
  C   C20       1.0  0.76606  0.26052  0.01658  1.0000
  C   C21       1.0  0.74022  0.90450  0.41934  1.0000
  C   C22       1.0  0.06408  0.59549  0.08071  1.0000
  C   C23       1.0  0.25978  0.09550  0.58066  1.0000
  C   C24       1.0  0.93592  0.40451  0.91930  1.0000
  C   C25       1.0  0.66517  0.93657  0.31671  1.0000
  C   C26       1.0  0.91850  0.56344  0.18329  1.0000
  C   C27       1.0  0.33483  0.06343  0.68329  1.0000
  C   C28       1.0  0.08150  0.43656  0.81671  1.0000
  C   C29       1.0  0.78180  0.66623  0.47791  1.0000
  C   C30       1.0  0.92594  0.83379  0.02210  1.0000
  C   C31       1.0  0.21820  0.33377  0.52209  1.0000
  C   C32       1.0  0.07406  0.16621  0.97790  1.0000
  C   C33       1.0  0.76120  0.88087  0.11898  1.0000
  C   C34       1.0  0.76099  0.61910  0.38101  1.0000
  C   C35       1.0  0.23880  0.11913  0.88102  1.0000
  C   C36       1.0  0.23901  0.38090  0.61899  1.0000
  C   C37       1.0  0.76049  0.72049  0.72843  1.0000
  C   C38       1.0  0.20935  0.77947  0.77152  1.0000
  C   C39       1.0  0.23951  0.27951  0.27157  1.0000
  C   C40       1.0  0.79065  0.22053  0.22848  1.0000
  C   C41       1.0  0.66166  0.76104  0.83875  1.0000
  C   C42       1.0  0.26156  0.73894  0.66116  1.0000
  C   C43       1.0  0.33834  0.23896  0.16125  1.0000
  C   C44       1.0  0.73844  0.26106  0.33884  1.0000
  C   C45       1.0  0.65127  0.87864  0.86183  1.0000
  C   C46       1.0  0.39179  0.62134  0.63811  1.0000
  C   C47       1.0  0.34873  0.12136  0.13817  1.0000
  C   C48       1.0  0.60821  0.37866  0.36189  1.0000
  N   N1        1.0  0.86250  0.76997  0.43348  1.0000
  N   N2        1.0  0.06602  0.73005  0.06653  1.0000
  N   N3        1.0  0.13750  0.23003  0.56652  1.0000
  N   N4        1.0  0.93398  0.26994  0.93347  1.0000
  O   O1        1.0  0.89625  0.09359  0.75127  1.0000
  O   O2        1.0  0.74115  0.40646  0.74876  1.0000
  O   O3        1.0  0.10375  0.90641  0.24873  1.0000
  O   O4        1.0  0.25885  0.59354  0.25124  1.0000
  O   O5        1.0  0.62963  0.13619  0.88056  1.0000
  O   O6        1.0  0.64640  0.36387  0.61938  1.0000
  O   O7        1.0  0.37037  0.86381  0.11944  1.0000
  O   O8        1.0  0.35360  0.63612  0.38062  1.0000
  O   O9        1.0  0.80327  0.90538  0.21112  1.0000
  O   O10       1.0  0.91965  0.59474  0.28893  1.0000
  O   O11       1.0  0.19673  0.09462  0.78888  1.0000
  O   O12       1.0  0.08035  0.40526  0.71107  1.0000
