data_image0
_chemical_formula_structural       Cu2H24C32N4O12
_chemical_formula_sum              "Cu2 H24 C32 N4 O12"
_cell_length_a       8.67762
_cell_length_b       8.60921
_cell_length_c       11.9421
_cell_angle_alpha    89.5664
_cell_angle_beta     72.2249
_cell_angle_gamma    69.1212

_space_group_name_H-M_alt    "P 1"
_space_group_IT_number       1

loop_
  _space_group_symop_operation_xyz
  'x, y, z'

loop_
  _atom_site_type_symbol
  _atom_site_label
  _atom_site_symmetry_multiplicity
  _atom_site_fract_x
  _atom_site_fract_y
  _atom_site_fract_z
  _atom_site_occupancy
  Cu  Cu1       1.0  0.11139  0.01526  0.29683  1.0000
  Cu  Cu2       1.0  0.88861  0.98475  0.70318  1.0000
  H   H1        1.0  0.12237  0.54075  0.52477  1.0000
  H   H2        1.0  0.87764  0.45924  0.47522  1.0000
  H   H3        1.0  0.34047  0.22690  0.54863  1.0000
  H   H4        1.0  0.65954  0.77309  0.45136  1.0000
  H   H5        1.0  0.01068  0.74357  0.22701  1.0000
  H   H6        1.0  0.98930  0.25645  0.77299  1.0000
  H   H7        1.0  0.04376  0.59995  0.03373  1.0000
  H   H8        1.0  0.95621  0.40005  0.96627  1.0000
  H   H9        1.0  0.19474  0.69321  0.84263  1.0000
  H   H10       1.0  0.80524  0.30680  0.15738  1.0000
  H   H11       1.0  0.29689  0.92383  0.85480  1.0000
  H   H12       1.0  0.70309  0.07618  0.14521  1.0000
  H   H13       1.0  0.36619  0.13808  0.88190  1.0000
  H   H14       1.0  0.63380  0.86192  0.11810  1.0000
  H   H15       1.0  0.43593  0.37187  0.93416  1.0000
  H   H16       1.0  0.56406  0.62814  0.06584  1.0000
  H   H17       1.0  0.36912  0.46484  0.15167  1.0000
  H   H18       1.0  0.63087  0.53517  0.84834  1.0000
  H   H19       1.0  0.23000  0.30942  0.30459  1.0000
  H   H20       1.0  0.77001  0.69057  0.69541  1.0000
  H   H21       1.0  0.99164  0.17594  0.49833  1.0000
  H   H22       1.0  0.00837  0.82405  0.50168  1.0000
  H   H23       1.0  0.18908  0.06787  0.47935  1.0000
  H   H24       1.0  0.81094  0.93212  0.52065  1.0000
  C   C1        1.0  0.32218  0.69553  0.33276  1.0000
  C   C2        1.0  0.67782  0.30447  0.66724  1.0000
  C   C3        1.0  0.35969  0.53796  0.38769  1.0000
  C   C4        1.0  0.64032  0.46203  0.61231  1.0000
  C   C5        1.0  0.25944  0.47589  0.47548  1.0000
  C   C6        1.0  0.74057  0.52410  0.52451  1.0000
  C   C7        1.0  0.37114  0.31545  0.48925  1.0000
  C   C8        1.0  0.62887  0.68454  0.51074  1.0000
  C   C9        1.0  0.53374  0.28863  0.40971  1.0000
  C   C10       1.0  0.46627  0.71137  0.59028  1.0000
  C   C11       1.0  0.70488  0.15103  0.39144  1.0000
  C   C12       1.0  0.29513  0.84898  0.60855  1.0000
  C   C13       1.0  0.07252  0.77880  0.14195  1.0000
  C   C14       1.0  0.92746  0.22121  0.85806  1.0000
  C   C15       1.0  0.09233  0.70019  0.03422  1.0000
  C   C16       1.0  0.90766  0.29981  0.96578  1.0000
  C   C17       1.0  0.17568  0.75080  0.92926  1.0000
  C   C18       1.0  0.82431  0.24920  0.07075  1.0000
  C   C19       1.0  0.23320  0.88128  0.93570  1.0000
  C   C20       1.0  0.76680  0.11872  0.06431  1.0000
  C   C21       1.0  0.20805  0.95673  0.04639  1.0000
  C   C22       1.0  0.79195  0.04328  0.95362  1.0000
  C   C23       1.0  0.25848  0.09817  0.06531  1.0000
  C   C24       1.0  0.74152  0.90182  0.93469  1.0000
  C   C25       1.0  0.33515  0.17804  0.97506  1.0000
  C   C26       1.0  0.66484  0.82197  0.02495  1.0000
  C   C27       1.0  0.37532  0.31143  0.00544  1.0000
  C   C28       1.0  0.62467  0.68858  0.99456  1.0000
  C   C29       1.0  0.33841  0.36192  0.12452  1.0000
  C   C30       1.0  0.66158  0.63809  0.87548  1.0000
  C   C31       1.0  0.26165  0.27711  0.21004  1.0000
  C   C32       1.0  0.73836  0.72289  0.78996  1.0000
  N   N1        1.0  0.13060  0.90239  0.14705  1.0000
  N   N2        1.0  0.86939  0.09762  0.85295  1.0000
  N   N3        1.0  0.22321  0.14880  0.18056  1.0000
  N   N4        1.0  0.77680  0.85119  0.81945  1.0000
  O   O1        1.0  0.15933  0.79947  0.37391  1.0000
  O   O2        1.0  0.84068  0.20052  0.62609  1.0000
  O   O3        1.0  0.43820  0.72151  0.25246  1.0000
  O   O4        1.0  0.56181  0.27847  0.74754  1.0000
  O   O5        1.0  0.52809  0.42386  0.34689  1.0000
  O   O6        1.0  0.47192  0.57614  0.65311  1.0000
  O   O7        1.0  0.69897  0.02511  0.44569  1.0000
  O   O8        1.0  0.30106  0.97488  0.55430  1.0000
  O   O9        1.0  0.84017  0.17310  0.32533  1.0000
  O   O10       1.0  0.15984  0.82691  0.67467  1.0000
  O   O11       1.0  0.10895  0.13941  0.43518  1.0000
  O   O12       1.0  0.89106  0.86059  0.56483  1.0000
