data_image0
_chemical_formula_structural       Zn4P4H16C8N12O16
_chemical_formula_sum              "Zn4 P4 H16 C8 N12 O16"
_cell_length_a       8.45312
_cell_length_b       8.51322
_cell_length_c       8.94528
_cell_angle_alpha    89.9999
_cell_angle_beta     90
_cell_angle_gamma    89.9998

_space_group_name_H-M_alt    "P 1"
_space_group_IT_number       1

loop_
  _space_group_symop_operation_xyz
  'x, y, z'

loop_
  _atom_site_type_symbol
  _atom_site_label
  _atom_site_symmetry_multiplicity
  _atom_site_fract_x
  _atom_site_fract_y
  _atom_site_fract_z
  _atom_site_occupancy
  Zn  Zn1       1.0  0.82572  0.16961  0.48884  1.0000
  Zn  Zn2       1.0  0.17428  0.83039  0.98884  1.0000
  Zn  Zn3       1.0  0.17428  0.66961  0.48884  1.0000
  Zn  Zn4       1.0  0.82573  0.33039  0.98884  1.0000
  P   P1        1.0  0.96271  0.04664  0.78776  1.0000
  P   P2        1.0  0.03729  0.95337  0.28776  1.0000
  P   P3        1.0  0.03729  0.54664  0.78777  1.0000
  P   P4        1.0  0.96271  0.45336  0.28776  1.0000
  H   H1        1.0  0.92881  0.80837  0.69244  1.0000
  H   H2        1.0  0.07119  0.19163  0.19245  1.0000
  H   H3        1.0  0.07119  0.30837  0.69245  1.0000
  H   H4        1.0  0.92881  0.69163  0.19244  1.0000
  H   H5        1.0  0.28527  0.05020  0.72016  1.0000
  H   H6        1.0  0.71473  0.94980  0.22016  1.0000
  H   H7        1.0  0.71474  0.55020  0.72016  1.0000
  H   H8        1.0  0.28526  0.44980  0.22016  1.0000
  H   H9        1.0  0.23639  0.20595  0.47617  1.0000
  H   H10       1.0  0.76361  0.79405  0.97617  1.0000
  H   H11       1.0  0.76361  0.70595  0.47617  1.0000
  H   H12       1.0  0.23639  0.29405  0.97617  1.0000
  H   H13       1.0  0.59033  0.01315  0.75476  1.0000
  H   H14       1.0  0.40967  0.98685  0.25476  1.0000
  H   H15       1.0  0.40967  0.51315  0.75476  1.0000
  H   H16       1.0  0.59033  0.48685  0.25476  1.0000
  C   C1        1.0  0.35126  0.17510  0.52044  1.0000
  C   C2        1.0  0.64874  0.82490  0.02044  1.0000
  C   C3        1.0  0.64874  0.67510  0.52044  1.0000
  C   C4        1.0  0.35126  0.32490  0.02044  1.0000
  C   C5        1.0  0.53154  0.07455  0.66437  1.0000
  C   C6        1.0  0.46846  0.92545  0.16437  1.0000
  C   C7        1.0  0.46846  0.57455  0.66437  1.0000
  C   C8        1.0  0.53154  0.42545  0.16437  1.0000
  N   N1        1.0  0.60204  0.14574  0.55035  1.0000
  N   N2        1.0  0.39797  0.85426  0.05035  1.0000
  N   N3        1.0  0.39796  0.64574  0.55036  1.0000
  N   N4        1.0  0.60204  0.35426  0.05035  1.0000
  N   N5        1.0  0.48790  0.21026  0.45789  1.0000
  N   N6        1.0  0.51210  0.78974  0.95790  1.0000
  N   N7        1.0  0.51210  0.71026  0.45790  1.0000
  N   N8        1.0  0.48790  0.28974  0.95789  1.0000
  N   N9        1.0  0.37364  0.09080  0.64840  1.0000
  N   N10       1.0  0.62636  0.90920  0.14840  1.0000
  N   N11       1.0  0.62636  0.59080  0.64840  1.0000
  N   N12       1.0  0.37364  0.40920  0.14840  1.0000
  O   O1        1.0  0.98447  0.15870  0.65139  1.0000
  O   O2        1.0  0.01553  0.84130  0.15139  1.0000
  O   O3        1.0  0.01553  0.65870  0.65139  1.0000
  O   O4        1.0  0.98447  0.34130  0.15139  1.0000
  O   O5        1.0  0.12995  0.99374  0.83697  1.0000
  O   O6        1.0  0.87004  0.00626  0.33697  1.0000
  O   O7        1.0  0.87004  0.49374  0.83697  1.0000
  O   O8        1.0  0.12996  0.50626  0.33697  1.0000
  O   O9        1.0  0.86529  0.12063  0.91226  1.0000
  O   O10       1.0  0.13470  0.87937  0.41226  1.0000
  O   O11       1.0  0.13471  0.62064  0.91226  1.0000
  O   O12       1.0  0.86529  0.37936  0.41226  1.0000
  O   O13       1.0  0.86273  0.90005  0.73363  1.0000
  O   O14       1.0  0.13727  0.09995  0.23363  1.0000
  O   O15       1.0  0.13727  0.40005  0.73364  1.0000
  O   O16       1.0  0.86273  0.59995  0.23363  1.0000
