data_image0
_chemical_formula_structural       Sn4H48Rh8C52N12Cl8O16
_chemical_formula_sum              "Sn4 H48 Rh8 C52 N12 Cl8 O16"
_cell_length_a       9.14179
_cell_length_b       12.823
_cell_length_c       19.775
_cell_angle_alpha    103.042
_cell_angle_beta     92.404
_cell_angle_gamma    94.8256

_space_group_name_H-M_alt    "P 1"
_space_group_IT_number       1

loop_
  _space_group_symop_operation_xyz
  'x, y, z'

loop_
  _atom_site_type_symbol
  _atom_site_label
  _atom_site_symmetry_multiplicity
  _atom_site_fract_x
  _atom_site_fract_y
  _atom_site_fract_z
  _atom_site_occupancy
  Sn  Sn1       1.0  0.90367  0.42530  0.73830  1.0000
  Sn  Sn2       1.0  0.09633  0.57470  0.26171  1.0000
  Sn  Sn3       1.0  0.72105  0.23410  0.69465  1.0000
  Sn  Sn4       1.0  0.27895  0.76590  0.30535  1.0000
  H   H1        1.0  0.01452  0.34627  0.84502  1.0000
  H   H2        1.0  0.98549  0.65373  0.15499  1.0000
  H   H3        1.0  0.15783  0.41857  0.81218  1.0000
  H   H4        1.0  0.84218  0.58143  0.18782  1.0000
  H   H5        1.0  0.06842  0.59624  0.87802  1.0000
  H   H6        1.0  0.93155  0.40376  0.12197  1.0000
  H   H7        1.0  0.92692  0.52115  0.91039  1.0000
  H   H8        1.0  0.07309  0.47884  0.08962  1.0000
  H   H9        1.0  0.04605  0.53775  0.65248  1.0000
  H   H10       1.0  0.95396  0.46225  0.34753  1.0000
  H   H11       1.0  0.17075  0.46354  0.68902  1.0000
  H   H12       1.0  0.82925  0.53646  0.31098  1.0000
  H   H13       1.0  0.05797  0.29127  0.60558  1.0000
  H   H14       1.0  0.94204  0.70873  0.39443  1.0000
  H   H15       1.0  0.93704  0.36824  0.56828  1.0000
  H   H16       1.0  0.06296  0.63176  0.43172  1.0000
  H   H17       1.0  0.66270  0.53438  0.75316  1.0000
  H   H18       1.0  0.33732  0.46562  0.24685  1.0000
  H   H19       1.0  0.78839  0.59308  0.82483  1.0000
  H   H20       1.0  0.21162  0.40691  0.17517  1.0000
  H   H21       1.0  0.93300  0.69728  0.75344  1.0000
  H   H22       1.0  0.06701  0.30272  0.24656  1.0000
  H   H23       1.0  0.82172  0.63009  0.67635  1.0000
  H   H24       1.0  0.17829  0.36990  0.32366  1.0000
  H   H25       1.0  0.79615  0.20176  0.82265  1.0000
  H   H26       1.0  0.20386  0.79824  0.17735  1.0000
  H   H27       1.0  0.64198  0.10977  0.78653  1.0000
  H   H28       1.0  0.35802  0.89024  0.21347  1.0000
  H   H29       1.0  0.80153  0.98890  0.71178  1.0000
  H   H30       1.0  0.19847  0.01111  0.28822  1.0000
  H   H31       1.0  0.95937  0.08220  0.74095  1.0000
  H   H32       1.0  0.04064  0.91780  0.25905  1.0000
  H   H33       1.0  0.48212  0.34867  0.70091  1.0000
  H   H34       1.0  0.51788  0.65133  0.29908  1.0000
  H   H35       1.0  0.45328  0.23635  0.62876  1.0000
  H   H36       1.0  0.54673  0.76365  0.37124  1.0000
  H   H37       1.0  0.40090  0.11320  0.71124  1.0000
  H   H38       1.0  0.59909  0.88680  0.28876  1.0000
  H   H39       1.0  0.42287  0.22703  0.78275  1.0000
  H   H40       1.0  0.57713  0.77297  0.21725  1.0000
  H   H41       1.0  0.78694  0.19452  0.55911  1.0000
  H   H42       1.0  0.21307  0.80548  0.44089  1.0000
  H   H43       1.0  0.89554  0.11840  0.60268  1.0000
  H   H44       1.0  0.10448  0.88160  0.39733  1.0000
  H   H45       1.0  0.66409  0.98584  0.59960  1.0000
  H   H46       1.0  0.33592  0.01416  0.40041  1.0000
  H   H47       1.0  0.56533  0.06271  0.55446  1.0000
  H   H48       1.0  0.43468  0.93729  0.44554  1.0000
  Rh  Rh1       1.0  0.38641  0.45621  0.05062  1.0000
  Rh  Rh2       1.0  0.61360  0.54379  0.94938  1.0000
  Rh  Rh3       1.0  0.40881  0.40975  0.44289  1.0000
  Rh  Rh4       1.0  0.59120  0.59025  0.55711  1.0000
  Rh  Rh5       1.0  0.46403  0.89111  0.79086  1.0000
  Rh  Rh6       1.0  0.53597  0.10889  0.20914  1.0000
  Rh  Rh7       1.0  0.92796  0.87816  0.93518  1.0000
  Rh  Rh8       1.0  0.07201  0.12185  0.06482  1.0000
  C   C1        1.0  0.52193  0.42855  0.11419  1.0000
  C   C2        1.0  0.47808  0.57145  0.88580  1.0000
  C   C3        1.0  0.39642  0.32576  0.98858  1.0000
  C   C4        1.0  0.60357  0.67425  0.01142  1.0000
  C   C5        1.0  0.53964  0.40506  0.37444  1.0000
  C   C6        1.0  0.46037  0.59495  0.62557  1.0000
  C   C7        1.0  0.47831  0.29046  0.46613  1.0000
  C   C8        1.0  0.52170  0.70954  0.53387  1.0000
  C   C9        1.0  0.31915  0.98225  0.81317  1.0000
  C   C10       1.0  0.68085  0.01775  0.18684  1.0000
  C   C11       1.0  0.46015  0.85323  0.87532  1.0000
  C   C12       1.0  0.53984  0.14677  0.12468  1.0000
  C   C13       1.0  0.78672  0.94602  0.98810  1.0000
  C   C14       1.0  0.21323  0.05400  0.01188  1.0000
  C   C15       1.0  0.96486  0.79945  0.99994  1.0000
  C   C16       1.0  0.03507  0.20053  0.00005  1.0000
  C   C17       1.0  0.04563  0.42161  0.82958  1.0000
  C   C18       1.0  0.95438  0.57839  0.17042  1.0000
  C   C19       1.0  0.03813  0.51811  0.89107  1.0000
  C   C20       1.0  0.96187  0.48189  0.10893  1.0000
  C   C21       1.0  0.13968  0.50818  0.94665  1.0000
  C   C22       1.0  0.86032  0.49183  0.05335  1.0000
  C   C23       1.0  0.06116  0.45883  0.66312  1.0000
  C   C24       1.0  0.93885  0.54117  0.33688  1.0000
  C   C25       1.0  0.04595  0.37123  0.59530  1.0000
  C   C26       1.0  0.95406  0.62877  0.40471  1.0000
  C   C27       1.0  0.15614  0.38878  0.54762  1.0000
  C   C28       1.0  0.84386  0.61122  0.45238  1.0000
  C   C29       1.0  0.77797  0.56491  0.76798  1.0000
  C   C30       1.0  0.22204  0.43508  0.23202  1.0000
  C   C31       1.0  0.82293  0.65766  0.73340  1.0000
  C   C32       1.0  0.17707  0.34234  0.26660  1.0000
  C   C33       1.0  0.71820  0.73674  0.74889  1.0000
  C   C34       1.0  0.28179  0.26326  0.25111  1.0000
  C   C35       1.0  0.75069  0.14312  0.77561  1.0000
  C   C36       1.0  0.24931  0.85689  0.22439  1.0000
  C   C37       1.0  0.85157  0.05239  0.75589  1.0000
  C   C38       1.0  0.14843  0.94761  0.24410  1.0000
  C   C39       1.0  0.87726  0.00124  0.81308  1.0000
  C   C40       1.0  0.12274  0.99876  0.18692  1.0000
  C   C41       1.0  0.48810  0.26160  0.68427  1.0000
  C   C42       1.0  0.51191  0.73840  0.31573  1.0000
  C   C43       1.0  0.39058  0.20042  0.72672  1.0000
  C   C44       1.0  0.60942  0.79959  0.27328  1.0000
  C   C45       1.0  0.23535  0.21425  0.71765  1.0000
  C   C46       1.0  0.76464  0.78575  0.28235  1.0000
  C   C47       1.0  0.78343  0.14008  0.59473  1.0000
  C   C48       1.0  0.21658  0.85992  0.40527  1.0000
  C   C49       1.0  0.67664  0.04006  0.56379  1.0000
  C   C50       1.0  0.32337  0.95994  0.43621  1.0000
  C   C51       1.0  0.72162  0.97715  0.49822  1.0000
  C   C52       1.0  0.27838  0.02283  0.50178  1.0000
  N   N1        1.0  0.22702  0.49233  0.98667  1.0000
  N   N2        1.0  0.77298  0.50767  0.01333  1.0000
  N   N3        1.0  0.24676  0.40416  0.51055  1.0000
  N   N4        1.0  0.75325  0.59584  0.48945  1.0000
  N   N5        1.0  0.62700  0.79413  0.76378  1.0000
  N   N6        1.0  0.37300  0.20586  0.23622  1.0000
  N   N7        1.0  0.89437  0.96140  0.85971  1.0000
  N   N8        1.0  0.10563  0.03861  0.14028  1.0000
  N   N9        1.0  0.11080  0.22553  0.71019  1.0000
  N   N10       1.0  0.88920  0.77447  0.28981  1.0000
  N   N11       1.0  0.75852  0.92606  0.44622  1.0000
  N   N12       1.0  0.24149  0.07393  0.55379  1.0000
  Cl  Cl1       1.0  0.35643  0.61656  0.13202  1.0000
  Cl  Cl2       1.0  0.64357  0.38344  0.86798  1.0000
  Cl  Cl3       1.0  0.31022  0.55653  0.40958  1.0000
  Cl  Cl4       1.0  0.68978  0.44347  0.59042  1.0000
  Cl  Cl5       1.0  0.46884  0.92675  0.68005  1.0000
  Cl  Cl6       1.0  0.53117  0.07324  0.31995  1.0000
  Cl  Cl7       1.0  0.09604  0.78422  0.86412  1.0000
  Cl  Cl8       1.0  0.90394  0.21578  0.13589  1.0000
  O   O1        1.0  0.60681  0.41699  0.15647  1.0000
  O   O2        1.0  0.39322  0.58302  0.84351  1.0000
  O   O3        1.0  0.39422  0.24381  0.94895  1.0000
  O   O4        1.0  0.60577  0.75619  0.05105  1.0000
  O   O5        1.0  0.61868  0.40181  0.32985  1.0000
  O   O6        1.0  0.38133  0.59819  0.67015  1.0000
  O   O7        1.0  0.51781  0.21513  0.48170  1.0000
  O   O8        1.0  0.48219  0.78486  0.51830  1.0000
  O   O9        1.0  0.22968  0.04155  0.82537  1.0000
  O   O10       1.0  0.77033  0.95845  0.17463  1.0000
  O   O11       1.0  0.46113  0.82325  0.92642  1.0000
  O   O12       1.0  0.53885  0.17675  0.07358  1.0000
  O   O13       1.0  0.69352  0.98513  0.01963  1.0000
  O   O14       1.0  0.30645  0.01491  0.98035  1.0000
  O   O15       1.0  0.99167  0.75002  0.04054  1.0000
  O   O16       1.0  0.00822  0.24994  0.95944  1.0000
