data_image0
_chemical_formula_structural       Rb4H12C24N36O2
_chemical_formula_sum              "Rb4 H12 C24 N36 O2"
_cell_length_a       4.96867
_cell_length_b       10.3815
_cell_length_c       21.0747
_cell_angle_alpha    82.8827
_cell_angle_beta     83.2238
_cell_angle_gamma    76.1168

_space_group_name_H-M_alt    "P 1"
_space_group_IT_number       1

loop_
  _space_group_symop_operation_xyz
  'x, y, z'

loop_
  _atom_site_type_symbol
  _atom_site_label
  _atom_site_symmetry_multiplicity
  _atom_site_fract_x
  _atom_site_fract_y
  _atom_site_fract_z
  _atom_site_occupancy
  Rb  Rb1       1.0  0.06557  0.46804  0.71381  1.0000
  Rb  Rb2       1.0  0.24693  0.03231  0.78608  1.0000
  Rb  Rb3       1.0  0.93444  0.53196  0.28619  1.0000
  Rb  Rb4       1.0  0.75307  0.96769  0.21391  1.0000
  H   H1        1.0  0.12868  0.35232  0.43837  1.0000
  H   H2        1.0  0.91972  0.14748  0.06161  1.0000
  H   H3        1.0  0.87131  0.64768  0.56163  1.0000
  H   H4        1.0  0.08028  0.85252  0.93839  1.0000
  H   H5        1.0  0.82896  0.10094  0.51280  1.0000
  H   H6        1.0  0.44228  0.39901  0.98710  1.0000
  H   H7        1.0  0.17104  0.89906  0.48720  1.0000
  H   H8        1.0  0.55772  0.60099  0.01290  1.0000
  H   H9        1.0  0.66333  0.23485  0.71433  1.0000
  H   H10       1.0  0.61240  0.26514  0.78563  1.0000
  H   H11       1.0  0.33667  0.76514  0.28567  1.0000
  H   H12       1.0  0.38760  0.73486  0.21437  1.0000
  C   C1        1.0  0.47779  0.23792  0.48335  1.0000
  C   C2        1.0  0.19923  0.26181  0.01659  1.0000
  C   C3        1.0  0.52220  0.76208  0.51665  1.0000
  C   C4        1.0  0.80078  0.73820  0.98340  1.0000
  C   C5        1.0  0.32582  0.18897  0.38711  1.0000
  C   C6        1.0  0.90225  0.31067  0.11291  1.0000
  C   C7        1.0  0.67417  0.81103  0.61289  1.0000
  C   C8        1.0  0.09775  0.68933  0.88709  1.0000
  C   C9        1.0  0.71343  0.04948  0.42743  1.0000
  C   C10       1.0  0.19051  0.45010  0.07258  1.0000
  C   C11       1.0  0.28657  0.95052  0.57257  1.0000
  C   C12       1.0  0.80950  0.54990  0.92742  1.0000
  C   C13       1.0  0.29469  0.41286  0.54633  1.0000
  C   C14       1.0  0.25382  0.08704  0.95356  1.0000
  C   C15       1.0  0.70530  0.58714  0.45367  1.0000
  C   C16       1.0  0.74619  0.91297  0.04644  1.0000
  C   C17       1.0  0.15323  0.16006  0.29667  1.0000
  C   C18       1.0  0.61039  0.33946  0.20338  1.0000
  C   C19       1.0  0.84677  0.83994  0.70333  1.0000
  C   C20       1.0  0.38962  0.66053  0.79662  1.0000
  C   C21       1.0  0.97175  0.86304  0.38299  1.0000
  C   C22       1.0  0.21801  0.63632  0.11711  1.0000
  C   C23       1.0  0.02825  0.13696  0.61701  1.0000
  C   C24       1.0  0.78200  0.36368  0.88289  1.0000
  N   N1        1.0  0.29697  0.26812  0.43718  1.0000
  N   N2        1.0  0.00257  0.23164  0.06277  1.0000
  N   N3        1.0  0.70302  0.73188  0.56281  1.0000
  N   N4        1.0  0.99743  0.76836  0.93723  1.0000
  N   N5        1.0  0.53632  0.08034  0.38219  1.0000
  N   N6        1.0  0.99920  0.41921  0.11787  1.0000
  N   N7        1.0  0.46367  0.91966  0.61781  1.0000
  N   N8        1.0  0.00080  0.58078  0.88213  1.0000
  N   N9        1.0  0.68607  0.12631  0.47761  1.0000
  N   N10       1.0  0.29006  0.37337  0.02234  1.0000
  N   N11       1.0  0.31392  0.87369  0.52239  1.0000
  N   N12       1.0  0.70995  0.62663  0.97766  1.0000
  N   N13       1.0  0.47161  0.30376  0.53298  1.0000
  N   N14       1.0  0.30848  0.19599  0.96695  1.0000
  N   N15       1.0  0.52837  0.69625  0.46702  1.0000
  N   N16       1.0  0.69152  0.80401  0.03305  1.0000
  N   N17       1.0  0.13174  0.22781  0.34623  1.0000
  N   N18       1.0  0.70624  0.27177  0.15379  1.0000
  N   N19       1.0  0.86826  0.77219  0.65377  1.0000
  N   N20       1.0  0.29377  0.72822  0.84621  1.0000
  N   N21       1.0  0.92717  0.94209  0.42890  1.0000
  N   N22       1.0  0.29823  0.55745  0.07112  1.0000
  N   N23       1.0  0.07283  0.05792  0.57110  1.0000
  N   N24       1.0  0.70177  0.44255  0.92888  1.0000
  N   N25       1.0  0.15218  0.51149  0.56503  1.0000
  N   N26       1.0  0.22853  0.98850  0.93485  1.0000
  N   N27       1.0  0.84781  0.48851  0.43496  1.0000
  N   N28       1.0  0.77146  0.01150  0.06515  1.0000
  N   N29       1.0  0.15498  0.10727  0.25014  1.0000
  N   N30       1.0  0.51283  0.39223  0.24993  1.0000
  N   N31       1.0  0.84503  0.89273  0.74986  1.0000
  N   N32       1.0  0.48718  0.60775  0.75008  1.0000
  N   N33       1.0  0.03044  0.78480  0.34475  1.0000
  N   N34       1.0  0.16054  0.71452  0.15537  1.0000
  N   N35       1.0  0.96957  0.21520  0.65525  1.0000
  N   N36       1.0  0.83947  0.28548  0.84463  1.0000
  O   O1        1.0  0.51449  0.24985  0.75000  1.0000
  O   O2        1.0  0.48551  0.75015  0.25001  1.0000
