data_image0
_chemical_formula_structural       Cd2H36C44S4N8
_chemical_formula_sum              "Cd2 H36 C44 S4 N8"
_cell_length_a       7.83504
_cell_length_b       12.5195
_cell_length_c       12.5192
_cell_angle_alpha    95.7796
_cell_angle_beta     101.302
_cell_angle_gamma    101.302

_space_group_name_H-M_alt    "P 1"
_space_group_IT_number       1

loop_
  _space_group_symop_operation_xyz
  'x, y, z'

loop_
  _atom_site_type_symbol
  _atom_site_label
  _atom_site_symmetry_multiplicity
  _atom_site_fract_x
  _atom_site_fract_y
  _atom_site_fract_z
  _atom_site_occupancy
  Cd  Cd1       1.0  0.75000  0.88165  0.11834  1.0000
  Cd  Cd2       1.0  0.25001  0.11835  0.88166  1.0000
  H   H1        1.0  0.35170  0.77216  0.06724  1.0000
  H   H2        1.0  0.14830  0.93275  0.22784  1.0000
  H   H3        1.0  0.64830  0.22785  0.93276  1.0000
  H   H4        1.0  0.85169  0.06725  0.77216  1.0000
  H   H5        1.0  0.00941  0.52743  0.23866  1.0000
  H   H6        1.0  0.49059  0.76133  0.47257  1.0000
  H   H7        1.0  0.99058  0.47257  0.76134  1.0000
  H   H8        1.0  0.50942  0.23867  0.52744  1.0000
  H   H9        1.0  0.90327  0.69357  0.19326  1.0000
  H   H10       1.0  0.59674  0.80674  0.30643  1.0000
  H   H11       1.0  0.09673  0.30643  0.80674  1.0000
  H   H12       1.0  0.40326  0.19326  0.69357  1.0000
  H   H13       1.0  0.12212  0.60105  0.05421  1.0000
  H   H14       1.0  0.37788  0.94579  0.39895  1.0000
  H   H15       1.0  0.87788  0.39896  0.94579  1.0000
  H   H16       1.0  0.62212  0.05422  0.60104  1.0000
  H   H17       1.0  0.22039  0.42696  0.09847  1.0000
  H   H18       1.0  0.27962  0.90153  0.57304  1.0000
  H   H19       1.0  0.77961  0.57304  0.90153  1.0000
  H   H20       1.0  0.72039  0.09847  0.42695  1.0000
  H   H21       1.0  0.47031  0.33491  0.15436  1.0000
  H   H22       1.0  0.02968  0.84564  0.66509  1.0000
  H   H23       1.0  0.52967  0.66509  0.84564  1.0000
  H   H24       1.0  0.97033  0.15436  0.33491  1.0000
  H   H25       1.0  0.71033  0.24613  0.21643  1.0000
  H   H26       1.0  0.78966  0.78357  0.75387  1.0000
  H   H27       1.0  0.28966  0.75387  0.78356  1.0000
  H   H28       1.0  0.21035  0.21643  0.24613  1.0000
  H   H29       1.0  0.89459  0.33349  0.31359  1.0000
  H   H30       1.0  0.60539  0.68641  0.66651  1.0000
  H   H31       1.0  0.10539  0.66651  0.68640  1.0000
  H   H32       1.0  0.39461  0.31359  0.33349  1.0000
  H   H33       1.0  0.90839  0.30306  0.17496  1.0000
  H   H34       1.0  0.59161  0.82505  0.69694  1.0000
  H   H35       1.0  0.09161  0.69694  0.82504  1.0000
  H   H36       1.0  0.40839  0.17496  0.30307  1.0000
  C   C1        1.0  0.62423  0.61091  0.14799  1.0000
  C   C2        1.0  0.87577  0.85201  0.38909  1.0000
  C   C3        1.0  0.37577  0.38909  0.85201  1.0000
  C   C4        1.0  0.12423  0.14798  0.61091  1.0000
  C   C5        1.0  0.39220  0.69694  0.08855  1.0000
  C   C6        1.0  0.10780  0.91144  0.30306  1.0000
  C   C7        1.0  0.60780  0.30307  0.91145  1.0000
  C   C8        1.0  0.89220  0.08856  0.69694  1.0000
  C   C9        1.0  0.50083  0.50791  0.13966  1.0000
  C   C10       1.0  0.99917  0.86034  0.49210  1.0000
  C   C11       1.0  0.49917  0.49210  0.86034  1.0000
  C   C12       1.0  0.00082  0.13965  0.50790  1.0000
  C   C13       1.0  0.86662  0.52234  0.21072  1.0000
  C   C14       1.0  0.63339  0.78928  0.47766  1.0000
  C   C15       1.0  0.13338  0.47766  0.78928  1.0000
  C   C16       1.0  0.36662  0.21072  0.52235  1.0000
  C   C17       1.0  0.80855  0.61541  0.18481  1.0000
  C   C18       1.0  0.69146  0.81518  0.38458  1.0000
  C   C19       1.0  0.19145  0.38459  0.81519  1.0000
  C   C20       1.0  0.30854  0.18481  0.61542  1.0000
  C   C21       1.0  0.47389  0.06094  0.11868  1.0000
  C   C22       1.0  0.02611  0.88133  0.93906  1.0000
  C   C23       1.0  0.52610  0.93906  0.88132  1.0000
  C   C24       1.0  0.97388  0.11867  0.06094  1.0000
  C   C25       1.0  0.74637  0.41905  0.20085  1.0000
  C   C26       1.0  0.75364  0.79915  0.58095  1.0000
  C   C27       1.0  0.25363  0.58095  0.79916  1.0000
  C   C28       1.0  0.24637  0.20084  0.41905  1.0000
  C   C29       1.0  0.26231  0.59937  0.08079  1.0000
  C   C30       1.0  0.23769  0.91921  0.40063  1.0000
  C   C31       1.0  0.73769  0.40063  0.91921  1.0000
  C   C32       1.0  0.76231  0.08079  0.59937  1.0000
  C   C33       1.0  0.31642  0.50485  0.10552  1.0000
  C   C34       1.0  0.18358  0.89448  0.49515  1.0000
  C   C35       1.0  0.68358  0.49516  0.89448  1.0000
  C   C36       1.0  0.81641  0.10552  0.50485  1.0000
  C   C37       1.0  0.56586  0.41341  0.16507  1.0000
  C   C38       1.0  0.93415  0.83493  0.58659  1.0000
  C   C39       1.0  0.43414  0.58659  0.83492  1.0000
  C   C40       1.0  0.06586  0.16507  0.41341  1.0000
  C   C41       1.0  0.81739  0.31994  0.22809  1.0000
  C   C42       1.0  0.68260  0.77191  0.68006  1.0000
  C   C43       1.0  0.18260  0.68006  0.77190  1.0000
  C   C44       1.0  0.31740  0.22809  0.31994  1.0000
  S   S1        1.0  0.53583  0.99162  0.21761  1.0000
  S   S2        1.0  0.96418  0.78240  0.00837  1.0000
  S   S3        1.0  0.46417  0.00838  0.78240  1.0000
  S   S4        1.0  0.03584  0.21760  0.99163  1.0000
  N   N1        1.0  0.43226  0.11442  0.04945  1.0000
  N   N2        1.0  0.06774  0.95057  0.88557  1.0000
  N   N3        1.0  0.56773  0.88556  0.95056  1.0000
  N   N4        1.0  0.93226  0.04944  0.11442  1.0000
  N   N5        1.0  0.56630  0.70333  0.12093  1.0000
  N   N6        1.0  0.93370  0.87906  0.29667  1.0000
  N   N7        1.0  0.43370  0.29667  0.87907  1.0000
  N   N8        1.0  0.06630  0.12093  0.70333  1.0000
