data_image0
_chemical_formula_structural       Sm2Cd3H58C30N6O35
_chemical_formula_sum              "Sm2 Cd3 H58 C30 N6 O35"
_cell_length_a       10.6277
_cell_length_b       10.637
_cell_length_c       14.846
_cell_angle_alpha    70.7488
_cell_angle_beta     70.7314
_cell_angle_gamma    85.0018

_space_group_name_H-M_alt    "P 1"
_space_group_IT_number       1

loop_
  _space_group_symop_operation_xyz
  'x, y, z'

loop_
  _atom_site_type_symbol
  _atom_site_label
  _atom_site_symmetry_multiplicity
  _atom_site_fract_x
  _atom_site_fract_y
  _atom_site_fract_z
  _atom_site_occupancy
  Sm  Sm1       1.0  0.28725  0.26954  0.31732  1.0000
  Sm  Sm2       1.0  0.73194  0.71402  0.68411  1.0000
  Cd  Cd1       1.0  0.60843  0.94795  0.37608  1.0000
  Cd  Cd2       1.0  0.05129  0.39240  0.62494  1.0000
  Cd  Cd3       1.0  0.38325  0.61491  0.99930  1.0000
  H   H1        1.0  0.28033  0.93547  0.96975  1.0000
  H   H2        1.0  0.06491  0.72126  0.02883  1.0000
  H   H3        1.0  0.12591  0.92221  0.06588  1.0000
  H   H4        1.0  0.07844  0.87577  0.93282  1.0000
  H   H5        1.0  0.07792  0.66672  0.17309  1.0000
  H   H6        1.0  0.33009  0.92459  0.82441  1.0000
  H   H7        1.0  0.13765  0.73467  0.24628  1.0000
  H   H8        1.0  0.26489  0.86146  0.75160  1.0000
  H   H9        1.0  0.37863  0.76465  0.18554  1.0000
  H   H10       1.0  0.23681  0.61826  0.81564  1.0000
  H   H11       1.0  0.33308  0.92640  0.12573  1.0000
  H   H12       1.0  0.07506  0.66945  0.87021  1.0000
  H   H13       1.0  0.76000  0.25918  0.20636  1.0000
  H   H14       1.0  0.73982  0.24266  0.79439  1.0000
  H   H15       1.0  0.91572  0.20481  0.14467  1.0000
  H   H16       1.0  0.79346  0.08664  0.85608  1.0000
  H   H17       1.0  0.62290  0.04289  0.12275  1.0000
  H   H18       1.0  0.95733  0.37547  0.88000  1.0000
  H   H19       1.0  0.70643  0.19965  0.07194  1.0000
  H   H20       1.0  0.79931  0.29429  0.92900  1.0000
  H   H21       1.0  0.92417  0.95736  0.19346  1.0000
  H   H22       1.0  0.04191  0.07729  0.80614  1.0000
  H   H23       1.0  0.88087  0.99926  0.08183  1.0000
  H   H24       1.0  0.00020  0.11901  0.91838  1.0000
  H   H25       1.0  0.68599  0.84055  0.17037  1.0000
  H   H26       1.0  0.15919  0.31422  0.83042  1.0000
  H   H27       1.0  0.84064  0.76254  0.16569  1.0000
  H   H28       1.0  0.23714  0.15971  0.83467  1.0000
  H   H29       1.0  0.91022  0.79420  0.31641  1.0000
  H   H30       1.0  0.20549  0.09040  0.68439  1.0000
  H   H31       1.0  0.85666  0.62572  0.35628  1.0000
  H   H32       1.0  0.37408  0.14399  0.64440  1.0000
  H   H33       1.0  0.60299  0.61085  0.42227  1.0000
  H   H34       1.0  0.38937  0.39706  0.57837  1.0000
  H   H35       1.0  0.64417  0.60027  0.29858  1.0000
  H   H36       1.0  0.39950  0.35637  0.70216  1.0000
  H   H37       1.0  0.61102  0.47206  0.94275  1.0000
  H   H38       1.0  0.51109  0.36951  0.04616  1.0000
  H   H39       1.0  0.44183  0.49610  0.32826  1.0000
  H   H40       1.0  0.50483  0.55944  0.67270  1.0000
  H   H41       1.0  0.51361  0.35866  0.36571  1.0000
  H   H42       1.0  0.64233  0.48703  0.63667  1.0000
  H   H43       1.0  0.18187  0.34998  0.13603  1.0000
  H   H44       1.0  0.65462  0.81489  0.86648  1.0000
  H   H45       1.0  0.06911  0.26833  0.23577  1.0000
  H   H46       1.0  0.72887  0.93339  0.76633  1.0000
  H   H47       1.0  0.99363  0.19194  0.40053  1.0000
  H   H48       1.0  0.80796  0.00735  0.60014  1.0000
  H   H49       1.0  0.02744  0.17570  0.50275  1.0000
  H   H50       1.0  0.82509  0.97279  0.49804  1.0000
  H   H51       1.0  0.17266  0.00508  0.39238  1.0000
  H   H52       1.0  0.99696  0.82869  0.60677  1.0000
  H   H53       1.0  0.31585  0.95181  0.34364  1.0000
  H   H54       1.0  0.04993  0.68551  0.65587  1.0000
  H   H55       1.0  0.44042  0.06076  0.50605  1.0000
  H   H56       1.0  0.94033  0.56077  0.49378  1.0000
  H   H57       1.0  0.52342  0.96073  0.57288  1.0000
  H   H58       1.0  0.04163  0.47809  0.42710  1.0000
  C   C1        1.0  0.20140  0.86378  0.02580  1.0000
  C   C2        1.0  0.13674  0.79993  0.97271  1.0000
  C   C3        1.0  0.16846  0.68572  0.18748  1.0000
  C   C4        1.0  0.31359  0.83290  0.81050  1.0000
  C   C5        1.0  0.22065  0.54871  0.23120  1.0000
  C   C6        1.0  0.45230  0.78314  0.76728  1.0000
  C   C7        1.0  0.36581  0.82972  0.11437  1.0000
  C   C8        1.0  0.16975  0.63495  0.88481  1.0000
  C   C9        1.0  0.50505  0.84952  0.03463  1.0000
  C   C10       1.0  0.14392  0.49847  0.96797  1.0000
  C   C11       1.0  0.85609  0.13574  0.30737  1.0000
  C   C12       1.0  0.86279  0.14590  0.69341  1.0000
  C   C13       1.0  0.82294  0.17124  0.20890  1.0000
  C   C14       1.0  0.82746  0.17924  0.79182  1.0000
  C   C15       1.0  0.53717  0.17692  0.20400  1.0000
  C   C16       1.0  0.82493  0.46556  0.79836  1.0000
  C   C17       1.0  0.65887  0.12054  0.14343  1.0000
  C   C18       1.0  0.87952  0.34180  0.85816  1.0000
  C   C19       1.0  0.83950  0.96589  0.16502  1.0000
  C   C20       1.0  0.03351  0.16127  0.83524  1.0000
  C   C21       1.0  0.77025  0.83011  0.19960  1.0000
  C   C22       1.0  0.16950  0.23025  0.80093  1.0000
  C   C23       1.0  0.82273  0.72676  0.35730  1.0000
  C   C24       1.0  0.27295  0.17783  0.64337  1.0000
  C   C25       1.0  0.61530  0.66927  0.34324  1.0000
  C   C26       1.0  0.33069  0.38515  0.65730  1.0000
  C   C27       1.0  0.47595  0.72242  0.34218  1.0000
  C   C28       1.0  0.27792  0.52467  0.65784  1.0000
  C   C29       1.0  0.77923  0.72907  0.46554  1.0000
  C   C30       1.0  0.27077  0.22085  0.53520  1.0000
  N   N1        1.0  0.26398  0.76717  0.09404  1.0000
  N   N2        1.0  0.23292  0.73724  0.90431  1.0000
  N   N3        1.0  0.71889  0.77222  0.31007  1.0000
  N   N4        1.0  0.22748  0.28176  0.69045  1.0000
  N   N5        1.0  0.75084  0.06554  0.20065  1.0000
  N   N6        1.0  0.93376  0.25054  0.80015  1.0000
  O   O1        1.0  0.32741  0.50729  0.18071  1.0000
  O   O2        1.0  0.49439  0.67749  0.81815  1.0000
  O   O3        1.0  0.15178  0.47468  0.31778  1.0000
  O   O4        1.0  0.52683  0.85247  0.68110  1.0000
  O   O5        1.0  0.52835  0.78595  0.97033  1.0000
  O   O6        1.0  0.19689  0.48079  0.03786  1.0000
  O   O7        1.0  0.58717  0.92291  0.03877  1.0000
  O   O8        1.0  0.07565  0.41400  0.96141  1.0000
  O   O9        1.0  0.82259  0.02146  0.37261  1.0000
  O   O10       1.0  0.97719  0.17937  0.62806  1.0000
  O   O11       1.0  0.91459  0.22746  0.31668  1.0000
  O   O12       1.0  0.77105  0.08731  0.68417  1.0000
  O   O13       1.0  0.86134  0.68730  0.51475  1.0000
  O   O14       1.0  0.31242  0.13840  0.48633  1.0000
  O   O15       1.0  0.66666  0.77170  0.50456  1.0000
  O   O16       1.0  0.22856  0.33341  0.49582  1.0000
  O   O17       1.0  0.39707  0.64415  0.33824  1.0000
  O   O18       1.0  0.35648  0.60350  0.66146  1.0000
  O   O19       1.0  0.44854  0.83973  0.34794  1.0000
  O   O20       1.0  0.16059  0.55225  0.65185  1.0000
  O   O21       1.0  0.50765  0.14381  0.29959  1.0000
  O   O22       1.0  0.85592  0.49470  0.70280  1.0000
  O   O23       1.0  0.46297  0.25465  0.15957  1.0000
  O   O24       1.0  0.75091  0.54116  0.84352  1.0000
  O   O25       1.0  0.51738  0.44236  0.98224  1.0000
  O   O26       1.0  0.46642  0.40563  0.31878  1.0000
  O   O27       1.0  0.59527  0.53584  0.68239  1.0000
  O   O28       1.0  0.16741  0.27888  0.20362  1.0000
  O   O29       1.0  0.72202  0.83488  0.79698  1.0000
  O   O30       1.0  0.06651  0.17433  0.43216  1.0000
  O   O31       1.0  0.82650  0.93440  0.56865  1.0000
  O   O32       1.0  0.25454  0.02791  0.33513  1.0000
  O   O33       1.0  0.97419  0.74731  0.66438  1.0000
  O   O34       1.0  0.53182  0.02831  0.50594  1.0000
  O   O35       1.0  0.97343  0.46961  0.49373  1.0000
