data_image0
_chemical_formula_structural       Zn6H36C40N8O16
_chemical_formula_sum              "Zn6 H36 C40 N8 O16"
_cell_length_a       9.01144
_cell_length_b       11.2024
_cell_length_c       16.6912
_cell_angle_alpha    108.205
_cell_angle_beta     90
_cell_angle_gamma    113.716

_space_group_name_H-M_alt    "P 1"
_space_group_IT_number       1

loop_
  _space_group_symop_operation_xyz
  'x, y, z'

loop_
  _atom_site_type_symbol
  _atom_site_label
  _atom_site_symmetry_multiplicity
  _atom_site_fract_x
  _atom_site_fract_y
  _atom_site_fract_z
  _atom_site_occupancy
  Zn  Zn1       1.0  0.84873  0.32320  0.77105  1.0000
  Zn  Zn2       1.0  0.52548  0.67663  0.72894  1.0000
  Zn  Zn3       1.0  0.15127  0.67680  0.22895  1.0000
  Zn  Zn4       1.0  0.47451  0.32337  0.27106  1.0000
  Zn  Zn5       1.0  0.75200  0.99991  0.74998  1.0000
  Zn  Zn6       1.0  0.24800  0.00009  0.25002  1.0000
  H   H1        1.0  0.45696  0.57143  0.37156  1.0000
  H   H2        1.0  0.88556  0.42862  0.12839  1.0000
  H   H3        1.0  0.54304  0.42857  0.62844  1.0000
  H   H4        1.0  0.11444  0.57138  0.87160  1.0000
  H   H5        1.0  0.07955  0.47435  0.02960  1.0000
  H   H6        1.0  0.60546  0.52563  0.47039  1.0000
  H   H7        1.0  0.92045  0.52565  0.97040  1.0000
  H   H8        1.0  0.39454  0.47437  0.52961  1.0000
  H   H9        1.0  0.10639  0.07858  0.94254  1.0000
  H   H10       1.0  0.02792  0.92150  0.55749  1.0000
  H   H11       1.0  0.89361  0.92143  0.05746  1.0000
  H   H12       1.0  0.97208  0.07850  0.44251  1.0000
  H   H13       1.0  0.27367  0.13652  0.07998  1.0000
  H   H14       1.0  0.13719  0.86370  0.42003  1.0000
  H   H15       1.0  0.72632  0.86348  0.92002  1.0000
  H   H16       1.0  0.86280  0.13630  0.57997  1.0000
  H   H17       1.0  0.54954  0.80573  0.29650  1.0000
  H   H18       1.0  0.74435  0.19440  0.20355  1.0000
  H   H19       1.0  0.45046  0.19427  0.70350  1.0000
  H   H20       1.0  0.25565  0.80560  0.79644  1.0000
  H   H21       1.0  0.66294  0.70550  0.29157  1.0000
  H   H22       1.0  0.95793  0.29482  0.20842  1.0000
  H   H23       1.0  0.33706  0.29450  0.70843  1.0000
  H   H24       1.0  0.04207  0.70518  0.79158  1.0000
  H   H25       1.0  0.64732  0.81230  0.39256  1.0000
  H   H26       1.0  0.83543  0.18787  0.10747  1.0000
  H   H27       1.0  0.35268  0.18770  0.60744  1.0000
  H   H28       1.0  0.16457  0.81213  0.89253  1.0000
  H   H29       1.0  0.65472  0.10872  0.65819  1.0000
  H   H30       1.0  0.54588  0.89107  0.84173  1.0000
  H   H31       1.0  0.34528  0.89128  0.34181  1.0000
  H   H32       1.0  0.45412  0.10893  0.15827  1.0000
  H   H33       1.0  0.23605  0.61860  0.39579  1.0000
  H   H34       1.0  0.61748  0.38117  0.10409  1.0000
  H   H35       1.0  0.76395  0.38141  0.60421  1.0000
  H   H36       1.0  0.38251  0.61883  0.89591  1.0000
  C   C1        1.0  0.42629  0.62574  0.33405  1.0000
  C   C2        1.0  0.80068  0.37431  0.16595  1.0000
  C   C3        1.0  0.57371  0.37427  0.66595  1.0000
  C   C4        1.0  0.19932  0.62569  0.83405  1.0000
  C   C5        1.0  0.34274  0.52186  0.24697  1.0000
  C   C6        1.0  0.82098  0.47824  0.25300  1.0000
  C   C7        1.0  0.65727  0.47814  0.75303  1.0000
  C   C8        1.0  0.17902  0.52175  0.74700  1.0000
  C   C9        1.0  0.21116  0.43219  0.11795  1.0000
  C   C10       1.0  0.77921  0.56792  0.38205  1.0000
  C   C11       1.0  0.78884  0.56781  0.88205  1.0000
  C   C12       1.0  0.22079  0.43207  0.61796  1.0000
  C   C13       1.0  0.27018  0.33926  0.13202  1.0000
  C   C14       1.0  0.93116  0.66084  0.36797  1.0000
  C   C15       1.0  0.72982  0.66074  0.86798  1.0000
  C   C16       1.0  0.06884  0.33916  0.63203  1.0000
  C   C17       1.0  0.12178  0.40156  0.04039  1.0000
  C   C18       1.0  0.72052  0.59844  0.45962  1.0000
  C   C19       1.0  0.87822  0.59844  0.95961  1.0000
  C   C20       1.0  0.27948  0.40155  0.54038  1.0000
  C   C21       1.0  0.14034  0.17848  0.99270  1.0000
  C   C22       1.0  0.96206  0.82158  0.50735  1.0000
  C   C23       1.0  0.85966  0.82152  0.00730  1.0000
  C   C24       1.0  0.03794  0.17842  0.49266  1.0000
  C   C25       1.0  0.98302  0.23246  0.89524  1.0000
  C   C26       1.0  0.75068  0.76735  0.60478  1.0000
  C   C27       1.0  0.01698  0.76755  0.10475  1.0000
  C   C28       1.0  0.24932  0.23265  0.39523  1.0000
  C   C29       1.0  0.08563  0.27290  0.97770  1.0000
  C   C30       1.0  0.81299  0.72707  0.52234  1.0000
  C   C31       1.0  0.91437  0.72710  0.02230  1.0000
  C   C32       1.0  0.18701  0.27292  0.47766  1.0000
  C   C33       1.0  0.23375  0.21046  0.06896  1.0000
  C   C34       1.0  0.02341  0.78967  0.43106  1.0000
  C   C35       1.0  0.76625  0.78955  0.93105  1.0000
  C   C36       1.0  0.97659  0.21033  0.56894  1.0000
  C   C37       1.0  0.58140  0.74507  0.32828  1.0000
  C   C38       1.0  0.83675  0.25510  0.17174  1.0000
  C   C39       1.0  0.41860  0.25493  0.67171  1.0000
  C   C40       1.0  0.16325  0.74490  0.82825  1.0000
  N   N1        1.0  0.25674  0.54583  0.19246  1.0000
  N   N2        1.0  0.71105  0.45429  0.30753  1.0000
  N   N3        1.0  0.74326  0.45417  0.80754  1.0000
  N   N4        1.0  0.28895  0.54571  0.69247  1.0000
  N   N5        1.0  0.35453  0.39950  0.21422  1.0000
  N   N6        1.0  0.95517  0.60059  0.28575  1.0000
  N   N7        1.0  0.64546  0.60050  0.78578  1.0000
  N   N8        1.0  0.04483  0.39941  0.71425  1.0000
  O   O1        1.0  0.93411  0.10679  0.84553  1.0000
  O   O2        1.0  0.82737  0.89300  0.65453  1.0000
  O   O3        1.0  0.06589  0.89322  0.15447  1.0000
  O   O4        1.0  0.17263  0.10700  0.34547  1.0000
  O   O5        1.0  0.94949  0.32493  0.88046  1.0000
  O   O6        1.0  0.62475  0.67481  0.61956  1.0000
  O   O7        1.0  0.05051  0.67508  0.11954  1.0000
  O   O8        1.0  0.37525  0.32519  0.38044  1.0000
  O   O9        1.0  0.69698  0.13002  0.71679  1.0000
  O   O10       1.0  0.56679  0.86982  0.78312  1.0000
  O   O11       1.0  0.30301  0.86998  0.28321  1.0000
  O   O12       1.0  0.43321  0.13018  0.21688  1.0000
  O   O13       1.0  0.32158  0.68672  0.37713  1.0000
  O   O14       1.0  0.63493  0.31317  0.12289  1.0000
  O   O15       1.0  0.67843  0.31329  0.62287  1.0000
  O   O16       1.0  0.36507  0.68683  0.87711  1.0000
