data_image0
_chemical_formula_structural       Cd2H40C44N4O8
_chemical_formula_sum              "Cd2 H40 C44 N4 O8"
_cell_length_a       10.0743
_cell_length_b       10.8311
_cell_length_c       11.2862
_cell_angle_alpha    112.905
_cell_angle_beta     98.8732
_cell_angle_gamma    106.594

_space_group_name_H-M_alt    "P 1"
_space_group_IT_number       1

loop_
  _space_group_symop_operation_xyz
  'x, y, z'

loop_
  _atom_site_type_symbol
  _atom_site_label
  _atom_site_symmetry_multiplicity
  _atom_site_fract_x
  _atom_site_fract_y
  _atom_site_fract_z
  _atom_site_occupancy
  Cd  Cd1       1.0  0.93571  0.11198  0.14584  1.0000
  Cd  Cd2       1.0  0.06429  0.88802  0.85416  1.0000
  H   H1        1.0  0.27040  0.16424  0.24040  1.0000
  H   H2        1.0  0.72960  0.83576  0.75960  1.0000
  H   H3        1.0  0.46034  0.20721  0.43792  1.0000
  H   H4        1.0  0.53966  0.79279  0.56209  1.0000
  H   H5        1.0  0.12937  0.15767  0.63587  1.0000
  H   H6        1.0  0.87063  0.84233  0.36414  1.0000
  H   H7        1.0  0.95262  0.12138  0.42945  1.0000
  H   H8        1.0  0.04738  0.87862  0.57055  1.0000
  H   H9        1.0  0.52591  0.27784  0.68245  1.0000
  H   H10       1.0  0.47410  0.72216  0.31756  1.0000
  H   H11       1.0  0.39022  0.25721  0.76502  1.0000
  H   H12       1.0  0.60978  0.74279  0.23498  1.0000
  H   H13       1.0  0.43648  0.99987  0.56089  1.0000
  H   H14       1.0  0.56353  0.00013  0.43911  1.0000
  H   H15       1.0  0.31788  0.99278  0.65976  1.0000
  H   H16       1.0  0.68213  0.00722  0.34024  1.0000
  H   H17       1.0  0.71319  0.25570  0.77733  1.0000
  H   H18       1.0  0.28681  0.74430  0.22268  1.0000
  H   H19       1.0  0.89696  0.26476  0.95860  1.0000
  H   H20       1.0  0.10304  0.73524  0.04140  1.0000
  H   H21       1.0  0.60469  0.91409  0.96742  1.0000
  H   H22       1.0  0.39531  0.08591  0.03258  1.0000
  H   H23       1.0  0.40503  0.89173  0.78797  1.0000
  H   H24       1.0  0.59497  0.10827  0.21203  1.0000
  H   H25       1.0  0.19633  0.40426  0.11544  1.0000
  H   H26       1.0  0.80367  0.59574  0.88456  1.0000
  H   H27       1.0  0.26927  0.41035  0.98121  1.0000
  H   H28       1.0  0.73073  0.58965  0.01879  1.0000
  H   H29       1.0  0.50675  0.36854  0.97487  1.0000
  H   H30       1.0  0.49325  0.63146  0.02512  1.0000
  H   H31       1.0  0.74918  0.41624  0.11266  1.0000
  H   H32       1.0  0.25082  0.58376  0.88733  1.0000
  H   H33       1.0  0.59148  0.47545  0.45521  1.0000
  H   H34       1.0  0.40851  0.52455  0.54479  1.0000
  H   H35       1.0  0.34963  0.43308  0.31831  1.0000
  H   H36       1.0  0.65036  0.56691  0.68168  1.0000
  H   H37       1.0  0.83353  0.48687  0.47659  1.0000
  H   H38       1.0  0.16647  0.51313  0.52341  1.0000
  H   H39       1.0  0.91648  0.57960  0.39100  1.0000
  H   H40       1.0  0.08352  0.42040  0.60900  1.0000
  C   C1        1.0  0.24376  0.16272  0.32977  1.0000
  C   C2        1.0  0.75624  0.83728  0.67024  1.0000
  C   C3        1.0  0.34842  0.18579  0.44009  1.0000
  C   C4        1.0  0.65158  0.81421  0.55992  1.0000
  C   C5        1.0  0.30953  0.18415  0.55338  1.0000
  C   C6        1.0  0.69048  0.81585  0.44663  1.0000
  C   C7        1.0  0.16422  0.15906  0.54943  1.0000
  C   C8        1.0  0.83578  0.84094  0.45058  1.0000
  C   C9        1.0  0.06594  0.13805  0.43564  1.0000
  C   C10       1.0  0.93406  0.86196  0.56437  1.0000
  C   C11       1.0  0.41884  0.20553  0.67313  1.0000
  C   C12       1.0  0.58117  0.79447  0.32688  1.0000
  C   C13       1.0  0.42272  0.05979  0.65972  1.0000
  C   C14       1.0  0.57728  0.94021  0.34028  1.0000
  C   C15       1.0  0.54130  0.07310  0.76836  1.0000
  C   C16       1.0  0.45871  0.92690  0.23164  1.0000
  C   C17       1.0  0.68270  0.17767  0.81652  1.0000
  C   C18       1.0  0.31731  0.82233  0.18349  1.0000
  C   C19       1.0  0.78667  0.18331  0.91722  1.0000
  C   C20       1.0  0.21333  0.81669  0.08278  1.0000
  C   C21       1.0  0.62361  0.98816  0.92282  1.0000
  C   C22       1.0  0.37639  0.01185  0.07718  1.0000
  C   C23       1.0  0.51319  0.97597  0.82321  1.0000
  C   C24       1.0  0.48681  0.02403  0.17680  1.0000
  C   C25       1.0  0.18739  0.19881  0.96949  1.0000
  C   C26       1.0  0.81260  0.80119  0.03050  1.0000
  C   C27       1.0  0.26136  0.36354  0.05167  1.0000
  C   C28       1.0  0.73863  0.63646  0.94832  1.0000
  C   C29       1.0  0.41111  0.39895  0.13727  1.0000
  C   C30       1.0  0.58889  0.60104  0.86273  1.0000
  C   C31       1.0  0.52549  0.39414  0.08094  1.0000
  C   C32       1.0  0.47451  0.60586  0.91906  1.0000
  C   C33       1.0  0.66166  0.42048  0.15837  1.0000
  C   C34       1.0  0.33833  0.57951  0.84162  1.0000
  C   C35       1.0  0.68827  0.45011  0.29434  1.0000
  C   C36       1.0  0.31173  0.54989  0.70565  1.0000
  C   C37       1.0  0.57361  0.45303  0.34985  1.0000
  C   C38       1.0  0.42638  0.54696  0.65015  1.0000
  C   C39       1.0  0.43763  0.42930  0.27301  1.0000
  C   C40       1.0  0.56237  0.57070  0.72698  1.0000
  C   C41       1.0  0.83664  0.47765  0.37672  1.0000
  C   C42       1.0  0.16335  0.52235  0.62328  1.0000
  C   C43       1.0  0.88577  0.35449  0.30515  1.0000
  C   C44       1.0  0.11423  0.64551  0.69485  1.0000
  N   N1        1.0  0.10480  0.13940  0.32714  1.0000
  N   N2        1.0  0.89520  0.86060  0.67286  1.0000
  N   N3        1.0  0.75791  0.09093  0.97064  1.0000
  N   N4        1.0  0.24209  0.90907  0.02936  1.0000
  O   O1        1.0  0.10037  0.13003  0.01524  1.0000
  O   O2        1.0  0.89963  0.86997  0.98476  1.0000
  O   O3        1.0  0.21904  0.13398  0.86474  1.0000
  O   O4        1.0  0.78094  0.86602  0.13525  1.0000
  O   O5        1.0  0.82563  0.23407  0.30664  1.0000
  O   O6        1.0  0.17437  0.76594  0.69336  1.0000
  O   O7        1.0  0.97882  0.37411  0.24302  1.0000
  O   O8        1.0  0.02118  0.62590  0.75698  1.0000
