data_image0
_chemical_formula_structural       Pr2H26C36N4O14
_chemical_formula_sum              "Pr2 H26 C36 N4 O14"
_cell_length_a       8.9889
_cell_length_b       10.055
_cell_length_c       10.5256
_cell_angle_alpha    72.3577
_cell_angle_beta     77.7656
_cell_angle_gamma    69.9238

_space_group_name_H-M_alt    "P 1"
_space_group_IT_number       1

loop_
  _space_group_symop_operation_xyz
  'x, y, z'

loop_
  _atom_site_type_symbol
  _atom_site_label
  _atom_site_symmetry_multiplicity
  _atom_site_fract_x
  _atom_site_fract_y
  _atom_site_fract_z
  _atom_site_occupancy
  Pr  Pr1       1.0  0.58448  0.41211  0.33483  1.0000
  Pr  Pr2       1.0  0.41552  0.58790  0.66517  1.0000
  H   H1        1.0  0.73226  0.04201  0.50702  1.0000
  H   H2        1.0  0.26774  0.95800  0.49298  1.0000
  H   H3        1.0  0.94799  0.80512  0.50306  1.0000
  H   H4        1.0  0.05201  0.19489  0.49694  1.0000
  H   H5        1.0  0.14847  0.78979  0.29576  1.0000
  H   H6        1.0  0.85153  0.21021  0.70425  1.0000
  H   H7        1.0  0.24528  0.91327  0.06566  1.0000
  H   H8        1.0  0.75472  0.08673  0.93434  1.0000
  H   H9        1.0  0.21265  0.13245  0.87537  1.0000
  H   H10       1.0  0.78735  0.86755  0.12463  1.0000
  H   H11       1.0  0.07365  0.39315  0.77897  1.0000
  H   H12       1.0  0.92635  0.60685  0.22103  1.0000
  H   H13       1.0  0.86354  0.62411  0.81061  1.0000
  H   H14       1.0  0.13647  0.37589  0.18939  1.0000
  H   H15       1.0  0.68798  0.62101  0.02892  1.0000
  H   H16       1.0  0.31203  0.37899  0.97108  1.0000
  H   H17       1.0  0.51519  0.92857  0.13171  1.0000
  H   H18       1.0  0.48481  0.07143  0.86829  1.0000
  H   H19       1.0  0.48770  0.03758  0.38288  1.0000
  H   H20       1.0  0.51230  0.96242  0.61712  1.0000
  H   H21       1.0  0.12537  0.43752  0.39072  1.0000
  H   H22       1.0  0.87463  0.56248  0.60928  1.0000
  H   H23       1.0  0.43722  0.66707  0.06963  1.0000
  H   H24       1.0  0.56278  0.33294  0.93038  1.0000
  H   H25       1.0  0.38027  0.52371  0.11942  1.0000
  H   H26       1.0  0.61973  0.47629  0.88058  1.0000
  C   C1        1.0  0.82044  0.03073  0.41910  1.0000
  C   C2        1.0  0.17956  0.96928  0.58091  1.0000
  C   C3        1.0  0.94113  0.89806  0.41583  1.0000
  C   C4        1.0  0.05887  0.10194  0.58418  1.0000
  C   C5        1.0  0.05157  0.88983  0.30299  1.0000
  C   C6        1.0  0.94843  0.11017  0.69701  1.0000
  C   C7        1.0  0.03917  0.01454  0.19356  1.0000
  C   C8        1.0  0.96083  0.98547  0.80644  1.0000
  C   C9        1.0  0.14841  0.01288  0.07318  1.0000
  C   C10       1.0  0.85159  0.98712  0.92683  1.0000
  C   C11       1.0  0.13099  0.13386  0.96784  1.0000
  C   C12       1.0  0.86901  0.86614  0.03216  1.0000
  C   C13       1.0  0.00679  0.26636  0.97648  1.0000
  C   C14       1.0  0.99320  0.73364  0.02351  1.0000
  C   C15       1.0  0.99112  0.39466  0.87105  1.0000
  C   C16       1.0  0.00888  0.60534  0.12895  1.0000
  C   C17       1.0  0.87609  0.52232  0.88857  1.0000
  C   C18       1.0  0.12391  0.47768  0.11143  1.0000
  C   C19       1.0  0.77656  0.52061  0.01123  1.0000
  C   C20       1.0  0.22344  0.47939  0.98876  1.0000
  C   C21       1.0  0.89810  0.27351  0.09585  1.0000
  C   C22       1.0  0.10189  0.72649  0.90416  1.0000
  C   C23       1.0  0.91247  0.14415  0.20570  1.0000
  C   C24       1.0  0.08753  0.85585  0.79430  1.0000
  C   C25       1.0  0.51866  0.77640  0.33305  1.0000
  C   C26       1.0  0.48134  0.22360  0.66695  1.0000
  C   C27       1.0  0.50598  0.92337  0.23817  1.0000
  C   C28       1.0  0.49402  0.07663  0.76183  1.0000
  C   C29       1.0  0.49558  0.04206  0.27681  1.0000
  C   C30       1.0  0.50442  0.95795  0.72319  1.0000
  C   C31       1.0  0.49668  0.18580  0.18042  1.0000
  C   C32       1.0  0.50332  0.81420  0.81957  1.0000
  C   C33       1.0  0.18739  0.54228  0.51941  1.0000
  C   C34       1.0  0.81261  0.45773  0.48059  1.0000
  C   C35       1.0  0.07643  0.49111  0.47283  1.0000
  C   C36       1.0  0.92357  0.50890  0.52717  1.0000
  N   N1        1.0  0.80554  0.15090  0.31818  1.0000
  N   N2        1.0  0.19446  0.84911  0.68182  1.0000
  N   N3        1.0  0.78405  0.39989  0.11096  1.0000
  N   N4        1.0  0.21595  0.60011  0.88904  1.0000
  O   O1        1.0  0.59142  0.66772  0.28248  1.0000
  O   O2        1.0  0.40859  0.33228  0.71752  1.0000
  O   O3        1.0  0.46006  0.76922  0.45559  1.0000
  O   O4        1.0  0.53994  0.23078  0.54441  1.0000
  O   O5        1.0  0.52694  0.19441  0.05595  1.0000
  O   O6        1.0  0.47306  0.80560  0.94405  1.0000
  O   O7        1.0  0.46431  0.29387  0.23348  1.0000
  O   O8        1.0  0.53569  0.70613  0.76652  1.0000
  O   O9        1.0  0.32897  0.52677  0.45678  1.0000
  O   O10       1.0  0.67103  0.47323  0.54322  1.0000
  O   O11       1.0  0.14183  0.59913  0.61895  1.0000
  O   O12       1.0  0.85817  0.40087  0.38105  1.0000
  O   O13       1.0  0.41276  0.59025  0.15088  1.0000
  O   O14       1.0  0.58724  0.40975  0.84912  1.0000
