data_image0
_chemical_formula_structural       La2H26C36N4O14
_chemical_formula_sum              "La2 H26 C36 N4 O14"
_cell_length_a       9.00855
_cell_length_b       10.0949
_cell_length_c       10.591
_cell_angle_alpha    72.2567
_cell_angle_beta     77.8511
_cell_angle_gamma    70.0325

_space_group_name_H-M_alt    "P 1"
_space_group_IT_number       1

loop_
  _space_group_symop_operation_xyz
  'x, y, z'

loop_
  _atom_site_type_symbol
  _atom_site_label
  _atom_site_symmetry_multiplicity
  _atom_site_fract_x
  _atom_site_fract_y
  _atom_site_fract_z
  _atom_site_occupancy
  La  La1       1.0  0.41733  0.58735  0.16646  1.0000
  La  La2       1.0  0.58267  0.41265  0.83354  1.0000
  H   H1        1.0  0.30781  0.38458  0.47493  1.0000
  H   H2        1.0  0.69219  0.61542  0.52507  1.0000
  H   H3        1.0  0.13138  0.38375  0.69100  1.0000
  H   H4        1.0  0.86862  0.61625  0.30900  1.0000
  H   H5        1.0  0.92191  0.61446  0.71919  1.0000
  H   H6        1.0  0.07808  0.38554  0.28081  1.0000
  H   H7        1.0  0.78410  0.87439  0.62047  1.0000
  H   H8        1.0  0.21589  0.12561  0.37953  1.0000
  H   H9        1.0  0.75422  0.09145  0.42976  1.0000
  H   H10       1.0  0.24578  0.90855  0.57024  1.0000
  H   H11       1.0  0.85288  0.21217  0.20069  1.0000
  H   H12       1.0  0.14712  0.78783  0.79931  1.0000
  H   H13       1.0  0.05345  0.19476  0.99567  1.0000
  H   H14       1.0  0.94655  0.80524  0.00432  1.0000
  H   H15       1.0  0.26734  0.95775  0.99447  1.0000
  H   H16       1.0  0.73266  0.04224  0.00553  1.0000
  H   H17       1.0  0.48623  0.07108  0.36721  1.0000
  H   H18       1.0  0.51378  0.92892  0.63279  1.0000
  H   H19       1.0  0.51313  0.96141  0.11840  1.0000
  H   H20       1.0  0.48687  0.03859  0.88160  1.0000
  H   H21       1.0  0.12514  0.43820  0.89158  1.0000
  H   H22       1.0  0.87486  0.56180  0.10842  1.0000
  H   H23       1.0  0.62012  0.47142  0.38707  1.0000
  H   H24       1.0  0.37988  0.52858  0.61293  1.0000
  H   H25       1.0  0.56053  0.32986  0.43457  1.0000
  H   H26       1.0  0.43947  0.67014  0.56543  1.0000
  C   C1        1.0  0.21899  0.48494  0.49090  1.0000
  C   C2        1.0  0.78100  0.51506  0.50910  1.0000
  C   C3        1.0  0.11921  0.48439  0.61234  1.0000
  C   C4        1.0  0.88079  0.51561  0.38766  1.0000
  C   C5        1.0  0.00439  0.61199  0.62796  1.0000
  C   C6        1.0  0.99560  0.38801  0.37204  1.0000
  C   C7        1.0  0.98928  0.73908  0.52202  1.0000
  C   C8        1.0  0.01071  0.26092  0.47798  1.0000
  C   C9        1.0  0.86612  0.87174  0.52905  1.0000
  C   C10       1.0  0.13389  0.12825  0.47095  1.0000
  C   C11       1.0  0.85010  0.99166  0.42351  1.0000
  C   C12       1.0  0.14990  0.00834  0.57649  1.0000
  C   C13       1.0  0.95962  0.98859  0.30437  1.0000
  C   C14       1.0  0.04038  0.01141  0.69563  1.0000
  C   C15       1.0  0.94884  0.11204  0.19468  1.0000
  C   C16       1.0  0.05116  0.88796  0.80532  1.0000
  C   C17       1.0  0.05932  0.10267  0.08300  1.0000
  C   C18       1.0  0.94068  0.89733  0.91700  1.0000
  C   C19       1.0  0.17888  0.96997  0.08130  1.0000
  C   C20       1.0  0.82112  0.03003  0.91870  1.0000
  C   C21       1.0  0.08516  0.85886  0.29373  1.0000
  C   C22       1.0  0.91484  0.14114  0.70627  1.0000
  C   C23       1.0  0.09827  0.73068  0.40393  1.0000
  C   C24       1.0  0.90173  0.26933  0.59607  1.0000
  C   C25       1.0  0.48119  0.22245  0.16678  1.0000
  C   C26       1.0  0.51881  0.77755  0.83322  1.0000
  C   C27       1.0  0.49509  0.07604  0.26149  1.0000
  C   C28       1.0  0.50492  0.92396  0.73851  1.0000
  C   C29       1.0  0.50567  0.95749  0.22364  1.0000
  C   C30       1.0  0.49433  0.04251  0.77636  1.0000
  C   C31       1.0  0.50538  0.81465  0.32055  1.0000
  C   C32       1.0  0.49462  0.18535  0.67945  1.0000
  C   C33       1.0  0.18620  0.54265  0.01988  1.0000
  C   C34       1.0  0.81380  0.45736  0.98012  1.0000
  C   C35       1.0  0.07618  0.49127  0.97321  1.0000
  C   C36       1.0  0.92383  0.50873  0.02679  1.0000
  N   N1        1.0  0.21181  0.60440  0.39060  1.0000
  N   N2        1.0  0.78819  0.39560  0.60940  1.0000
  N   N3        1.0  0.19238  0.85107  0.18259  1.0000
  N   N4        1.0  0.80762  0.14893  0.81741  1.0000
  O   O1        1.0  0.40932  0.33076  0.21676  1.0000
  O   O2        1.0  0.59068  0.66924  0.78324  1.0000
  O   O3        1.0  0.53774  0.23018  0.04456  1.0000
  O   O4        1.0  0.46225  0.76982  0.95544  1.0000
  O   O5        1.0  0.47711  0.80676  0.44411  1.0000
  O   O6        1.0  0.52289  0.19324  0.55589  1.0000
  O   O7        1.0  0.53616  0.70642  0.26901  1.0000
  O   O8        1.0  0.46384  0.29358  0.73099  1.0000
  O   O9        1.0  0.14074  0.59826  0.11915  1.0000
  O   O10       1.0  0.85926  0.40174  0.88084  1.0000
  O   O11       1.0  0.32688  0.52849  0.95662  1.0000
  O   O12       1.0  0.67311  0.47151  0.04337  1.0000
  O   O13       1.0  0.58549  0.40745  0.35462  1.0000
  O   O14       1.0  0.41451  0.59255  0.64538  1.0000
