data_image0
_chemical_formula_structural       Er2H22C36N4O12
_chemical_formula_sum              "Er2 H22 C36 N4 O12"
_cell_length_a       8.83799
_cell_length_b       9.36598
_cell_length_c       10.6653
_cell_angle_alpha    80.2494
_cell_angle_beta     76.6847
_cell_angle_gamma    73.3877

_space_group_name_H-M_alt    "P 1"
_space_group_IT_number       1

loop_
  _space_group_symop_operation_xyz
  'x, y, z'

loop_
  _atom_site_type_symbol
  _atom_site_label
  _atom_site_symmetry_multiplicity
  _atom_site_fract_x
  _atom_site_fract_y
  _atom_site_fract_z
  _atom_site_occupancy
  Er  Er1       1.0  0.09028  0.38393  0.35469  1.0000
  Er  Er2       1.0  0.90973  0.61607  0.64531  1.0000
  H   H1        1.0  0.24825  0.02556  0.48824  1.0000
  H   H2        1.0  0.75175  0.97444  0.51177  1.0000
  H   H3        1.0  0.49100  0.80862  0.45602  1.0000
  H   H4        1.0  0.50899  0.19138  0.54398  1.0000
  H   H5        1.0  0.69315  0.81261  0.24644  1.0000
  H   H6        1.0  0.30685  0.18738  0.75356  1.0000
  H   H7        1.0  0.77798  0.94903  0.02918  1.0000
  H   H8        1.0  0.22202  0.05096  0.97081  1.0000
  H   H9        1.0  0.71461  0.16336  0.86352  1.0000
  H   H10       1.0  0.28539  0.83664  0.13648  1.0000
  H   H11       1.0  0.53215  0.40586  0.79213  1.0000
  H   H12       1.0  0.46785  0.59414  0.20787  1.0000
  H   H13       1.0  0.27090  0.60268  0.84319  1.0000
  H   H14       1.0  0.72910  0.39732  0.15681  1.0000
  H   H15       1.0  0.10091  0.58592  0.06077  1.0000
  H   H16       1.0  0.89909  0.41408  0.93923  1.0000
  H   H17       1.0  0.99986  0.10893  0.85852  1.0000
  H   H18       1.0  0.00014  0.89106  0.14148  1.0000
  H   H19       1.0  0.03345  0.96692  0.60912  1.0000
  H   H20       1.0  0.96655  0.03308  0.39088  1.0000
  H   H21       1.0  0.62731  0.41656  0.39213  1.0000
  H   H22       1.0  0.37269  0.58344  0.60787  1.0000
  C   C1        1.0  0.33694  0.02255  0.39822  1.0000
  C   C2        1.0  0.66305  0.97746  0.60178  1.0000
  C   C3        1.0  0.47412  0.90143  0.37952  1.0000
  C   C4        1.0  0.52587  0.09857  0.62048  1.0000
  C   C5        1.0  0.58536  0.90455  0.26515  1.0000
  C   C6        1.0  0.41463  0.09545  0.73485  1.0000
  C   C7        1.0  0.55837  0.02846  0.16961  1.0000
  C   C8        1.0  0.44163  0.97154  0.83040  1.0000
  C   C9        1.0  0.66748  0.03800  0.04836  1.0000
  C   C10       1.0  0.33252  0.96200  0.95164  1.0000
  C   C11       1.0  0.63293  0.15676  0.95668  1.0000
  C   C12       1.0  0.36707  0.84324  0.04332  1.0000
  C   C13       1.0  0.48956  0.27513  0.97929  1.0000
  C   C14       1.0  0.51044  0.72487  0.02071  1.0000
  C   C15       1.0  0.44994  0.39789  0.88509  1.0000
  C   C16       1.0  0.55006  0.60211  0.11492  1.0000
  C   C17       1.0  0.30867  0.50756  0.91309  1.0000
  C   C18       1.0  0.69133  0.49244  0.08691  1.0000
  C   C19       1.0  0.21009  0.49733  0.03647  1.0000
  C   C20       1.0  0.78991  0.50267  0.96353  1.0000
  C   C21       1.0  0.38133  0.27201  0.10038  1.0000
  C   C22       1.0  0.61867  0.72798  0.89962  1.0000
  C   C23       1.0  0.41526  0.14552  0.19673  1.0000
  C   C24       1.0  0.58475  0.85448  0.80327  1.0000
  C   C25       1.0  0.01114  0.24208  0.66543  1.0000
  C   C26       1.0  0.98886  0.75793  0.33457  1.0000
  C   C27       1.0  0.01332  0.10154  0.75517  1.0000
  C   C28       1.0  0.98668  0.89846  0.24483  1.0000
  C   C29       1.0  0.02442  0.97164  0.71223  1.0000
  C   C30       1.0  0.97558  0.02836  0.28777  1.0000
  C   C31       1.0  0.02594  0.82702  0.79765  1.0000
  C   C32       1.0  0.97406  0.17298  0.20234  1.0000
  C   C33       1.0  0.69609  0.52411  0.53081  1.0000
  C   C34       1.0  0.30392  0.47589  0.46919  1.0000
  C   C35       1.0  0.57921  0.48052  0.47547  1.0000
  C   C36       1.0  0.42079  0.51947  0.52453  1.0000
  N   N1        1.0  0.30718  0.14153  0.31049  1.0000
  N   N2        1.0  0.69282  0.85847  0.68951  1.0000
  N   N3        1.0  0.24579  0.38453  0.12842  1.0000
  N   N4        1.0  0.75421  0.61547  0.87158  1.0000
  O   O1        1.0  0.06163  0.23102  0.54434  1.0000
  O   O2        1.0  0.93837  0.76899  0.45566  1.0000
  O   O3        1.0  0.95741  0.36507  0.71662  1.0000
  O   O4        1.0  0.04260  0.63492  0.28339  1.0000
  O   O5        1.0  0.05093  0.71279  0.73294  1.0000
  O   O6        1.0  0.94907  0.28721  0.26706  1.0000
  O   O7        1.0  0.00885  0.81967  0.91734  1.0000
  O   O8        1.0  0.99114  0.18034  0.08265  1.0000
  O   O9        1.0  0.84401  0.49576  0.47274  1.0000
  O   O10       1.0  0.15599  0.50424  0.52725  1.0000
  O   O11       1.0  0.65073  0.59033  0.63265  1.0000
  O   O12       1.0  0.34927  0.40967  0.36735  1.0000
