data_image0
_chemical_formula_structural       Ca2H12C16S2O16
_chemical_formula_sum              "Ca2 H12 C16 S2 O16"
_cell_length_a       6.84341
_cell_length_b       8.23109
_cell_length_c       9.47975
_cell_angle_alpha    96.5949
_cell_angle_beta     89.9985
_cell_angle_gamma    90.0009

_space_group_name_H-M_alt    "P 1"
_space_group_IT_number       1

loop_
  _space_group_symop_operation_xyz
  'x, y, z'

loop_
  _atom_site_type_symbol
  _atom_site_label
  _atom_site_symmetry_multiplicity
  _atom_site_fract_x
  _atom_site_fract_y
  _atom_site_fract_z
  _atom_site_occupancy
  Ca  Ca1       1.0  0.75000  0.76410  0.49327  1.0000
  Ca  Ca2       1.0  0.25000  0.23590  0.50673  1.0000
  H   H1        1.0  0.74999  0.71422  0.79824  1.0000
  H   H2        1.0  0.25001  0.28578  0.20176  1.0000
  H   H3        1.0  0.87154  0.50961  0.68359  1.0000
  H   H4        1.0  0.37155  0.49039  0.31641  1.0000
  H   H5        1.0  0.12847  0.49039  0.31641  1.0000
  H   H6        1.0  0.62845  0.50961  0.68359  1.0000
  H   H7        1.0  0.75000  0.26870  0.79097  1.0000
  H   H8        1.0  0.25000  0.73129  0.20902  1.0000
  H   H9        1.0  0.75001  0.51035  0.97763  1.0000
  H   H10       1.0  0.24999  0.48965  0.02236  1.0000
  H   H11       1.0  0.74999  0.94656  0.11686  1.0000
  H   H12       1.0  0.25000  0.05345  0.88314  1.0000
  C   C1        1.0  0.74999  0.95145  0.83087  1.0000
  C   C2        1.0  0.25001  0.04855  0.16913  1.0000
  C   C3        1.0  0.75000  0.09375  0.94225  1.0000
  C   C4        1.0  0.25000  0.90625  0.05776  1.0000
  C   C5        1.0  0.75000  0.25256  0.90328  1.0000
  C   C6        1.0  0.25000  0.74744  0.09671  1.0000
  C   C7        1.0  0.75001  0.38638  0.00760  1.0000
  C   C8        1.0  0.24999  0.61362  0.99240  1.0000
  C   C9        1.0  0.75001  0.36422  0.15205  1.0000
  C   C10       1.0  0.24999  0.63578  0.84795  1.0000
  C   C11       1.0  0.75000  0.20362  0.18990  1.0000
  C   C12       1.0  0.24999  0.79639  0.81010  1.0000
  C   C13       1.0  0.75000  0.06974  0.08599  1.0000
  C   C14       1.0  0.25000  0.93026  0.91401  1.0000
  C   C15       1.0  0.75001  0.51453  0.25910  1.0000
  C   C16       1.0  0.24998  0.48547  0.74090  1.0000
  S   S1        1.0  0.75000  0.16471  0.37111  1.0000
  S   S2        1.0  0.25000  0.83529  0.62889  1.0000
  O   O1        1.0  0.74999  0.80752  0.88140  1.0000
  O   O2        1.0  0.25001  0.19247  0.11861  1.0000
  O   O3        1.0  0.74999  0.57632  0.67457  1.0000
  O   O4        1.0  0.25001  0.42368  0.32544  1.0000
  O   O5        1.0  0.75000  0.96729  0.70215  1.0000
  O   O6        1.0  0.25000  0.03271  0.29785  1.0000
  O   O7        1.0  0.91220  0.57815  0.30175  1.0000
  O   O8        1.0  0.41218  0.42185  0.69824  1.0000
  O   O9        1.0  0.08781  0.42185  0.69825  1.0000
  O   O10       1.0  0.58782  0.57815  0.30176  1.0000
  O   O11       1.0  0.92598  0.24185  0.43572  1.0000
  O   O12       1.0  0.42598  0.75816  0.56428  1.0000
  O   O13       1.0  0.07402  0.75815  0.56428  1.0000
  O   O14       1.0  0.57402  0.24185  0.43572  1.0000
  O   O15       1.0  0.75000  0.98585  0.36593  1.0000
  O   O16       1.0  0.24999  0.01415  0.63408  1.0000
