data_image0
_chemical_formula_structural       Sr4H24C32S4O32
_chemical_formula_sum              "Sr4 H24 C32 S4 O32"
_cell_length_a       6.89411
_cell_length_b       12.9709
_cell_length_c       12.8638
_cell_angle_alpha    115.687
_cell_angle_beta     90.0001
_cell_angle_gamma    89.9999

_space_group_name_H-M_alt    "P 1"
_space_group_IT_number       1

loop_
  _space_group_symop_operation_xyz
  'x, y, z'

loop_
  _atom_site_type_symbol
  _atom_site_label
  _atom_site_symmetry_multiplicity
  _atom_site_fract_x
  _atom_site_fract_y
  _atom_site_fract_z
  _atom_site_occupancy
  Sr  Sr1       1.0  0.78031  0.40869  0.27098  1.0000
  Sr  Sr2       1.0  0.28031  0.59131  0.22903  1.0000
  Sr  Sr3       1.0  0.21969  0.59131  0.72903  1.0000
  Sr  Sr4       1.0  0.71969  0.40869  0.77098  1.0000
  H   H1        1.0  0.08927  0.37366  0.45218  1.0000
  H   H2        1.0  0.58927  0.62634  0.04782  1.0000
  H   H3        1.0  0.91072  0.62634  0.54782  1.0000
  H   H4        1.0  0.41072  0.37366  0.95218  1.0000
  H   H5        1.0  0.87233  0.35543  0.48516  1.0000
  H   H6        1.0  0.37233  0.64457  0.01484  1.0000
  H   H7        1.0  0.12767  0.64457  0.51484  1.0000
  H   H8        1.0  0.62767  0.35543  0.98516  1.0000
  H   H9        1.0  0.04087  0.79492  0.66242  1.0000
  H   H10       1.0  0.54087  0.20508  0.83759  1.0000
  H   H11       1.0  0.95913  0.20508  0.33758  1.0000
  H   H12       1.0  0.45913  0.79492  0.16242  1.0000
  H   H13       1.0  0.01214  0.09618  0.81962  1.0000
  H   H14       1.0  0.51214  0.90382  0.68038  1.0000
  H   H15       1.0  0.98786  0.90382  0.18038  1.0000
  H   H16       1.0  0.48786  0.09618  0.31962  1.0000
  H   H17       1.0  0.32085  0.94483  0.00967  1.0000
  H   H18       1.0  0.82085  0.05517  0.49033  1.0000
  H   H19       1.0  0.67914  0.05517  0.99033  1.0000
  H   H20       1.0  0.17914  0.94483  0.50967  1.0000
  H   H21       1.0  0.39647  0.14009  0.16448  1.0000
  H   H22       1.0  0.89647  0.85991  0.33552  1.0000
  H   H23       1.0  0.60353  0.85991  0.83552  1.0000
  H   H24       1.0  0.10353  0.14009  0.66448  1.0000
  C   C1        1.0  0.12931  0.21313  0.98418  1.0000
  C   C2        1.0  0.62931  0.78687  0.51582  1.0000
  C   C3        1.0  0.87069  0.78687  0.01582  1.0000
  C   C4        1.0  0.37069  0.21313  0.48418  1.0000
  C   C5        1.0  0.09559  0.10507  0.89488  1.0000
  C   C6        1.0  0.59559  0.89493  0.60511  1.0000
  C   C7        1.0  0.90441  0.89492  0.10511  1.0000
  C   C8        1.0  0.40441  0.10507  0.39489  1.0000
  C   C9        1.0  0.16757  0.00838  0.90409  1.0000
  C   C10       1.0  0.66757  0.99163  0.59591  1.0000
  C   C11       1.0  0.83243  0.99162  0.09591  1.0000
  C   C12       1.0  0.33243  0.00838  0.40409  1.0000
  C   C13       1.0  0.27085  0.02121  0.00281  1.0000
  C   C14       1.0  0.77085  0.97879  0.49719  1.0000
  C   C15       1.0  0.72915  0.97879  0.99719  1.0000
  C   C16       1.0  0.22915  0.02121  0.50281  1.0000
  C   C17       1.0  0.31074  0.12937  0.08934  1.0000
  C   C18       1.0  0.81074  0.87063  0.41066  1.0000
  C   C19       1.0  0.68926  0.87063  0.91066  1.0000
  C   C20       1.0  0.18926  0.12937  0.58934  1.0000
  C   C21       1.0  0.24070  0.22652  0.08094  1.0000
  C   C22       1.0  0.74069  0.77348  0.41906  1.0000
  C   C23       1.0  0.75930  0.77348  0.91906  1.0000
  C   C24       1.0  0.25931  0.22652  0.58094  1.0000
  C   C25       1.0  0.28470  0.34343  0.17481  1.0000
  C   C26       1.0  0.78470  0.65657  0.32519  1.0000
  C   C27       1.0  0.71530  0.65657  0.82519  1.0000
  C   C28       1.0  0.21530  0.34343  0.67481  1.0000
  C   C29       1.0  0.13648  0.88999  0.81435  1.0000
  C   C30       1.0  0.63648  0.11002  0.68564  1.0000
  C   C31       1.0  0.86352  0.11001  0.18564  1.0000
  C   C32       1.0  0.36352  0.88999  0.31436  1.0000
  S   S1        1.0  0.02447  0.33667  0.97872  1.0000
  S   S2        1.0  0.52447  0.66333  0.52128  1.0000
  S   S3        1.0  0.97553  0.66333  0.02128  1.0000
  S   S4        1.0  0.47553  0.33667  0.47872  1.0000
  O   O1        1.0  0.85619  0.36832  0.05757  1.0000
  O   O2        1.0  0.35619  0.63168  0.44244  1.0000
  O   O3        1.0  0.14381  0.63168  0.94244  1.0000
  O   O4        1.0  0.64381  0.36832  0.55756  1.0000
  O   O5        1.0  0.96049  0.34218  0.41962  1.0000
  O   O6        1.0  0.46049  0.65782  0.08038  1.0000
  O   O7        1.0  0.03951  0.65782  0.58038  1.0000
  O   O8        1.0  0.53951  0.34218  0.91962  1.0000
  O   O9        1.0  0.17817  0.42511  0.02036  1.0000
  O   O10       1.0  0.67817  0.57489  0.47964  1.0000
  O   O11       1.0  0.82183  0.57489  0.97964  1.0000
  O   O12       1.0  0.32183  0.42511  0.52036  1.0000
  O   O13       1.0  0.96799  0.30377  0.85911  1.0000
  O   O14       1.0  0.46799  0.69622  0.64089  1.0000
  O   O15       1.0  0.03201  0.69623  0.14089  1.0000
  O   O16       1.0  0.53201  0.30377  0.35911  1.0000
  O   O17       1.0  0.14975  0.39829  0.24299  1.0000
  O   O18       1.0  0.64975  0.60171  0.25701  1.0000
  O   O19       1.0  0.85025  0.60171  0.75701  1.0000
  O   O20       1.0  0.35026  0.39829  0.74299  1.0000
  O   O21       1.0  0.45350  0.38337  0.17660  1.0000
  O   O22       1.0  0.95350  0.61663  0.32340  1.0000
  O   O23       1.0  0.54650  0.61663  0.82340  1.0000
  O   O24       1.0  0.04650  0.38337  0.67660  1.0000
  O   O25       1.0  0.05316  0.88024  0.71714  1.0000
  O   O26       1.0  0.55316  0.11976  0.78285  1.0000
  O   O27       1.0  0.94684  0.11976  0.28286  1.0000
  O   O28       1.0  0.44684  0.88024  0.21714  1.0000
  O   O29       1.0  0.18739  0.80676  0.83102  1.0000
  O   O30       1.0  0.68739  0.19324  0.66898  1.0000
  O   O31       1.0  0.81261  0.19324  0.16898  1.0000
  O   O32       1.0  0.31261  0.80676  0.33102  1.0000
