data_image0
_chemical_formula_structural       Mn4H32C48N8O16
_chemical_formula_sum              "Mn4 H32 C48 N8 O16"
_cell_length_a       10.3111
_cell_length_b       10.3303
_cell_length_c       10.9524
_cell_angle_alpha    90
_cell_angle_beta     90
_cell_angle_gamma    107.962

_space_group_name_H-M_alt    "P 1"
_space_group_IT_number       1

loop_
  _space_group_symop_operation_xyz
  'x, y, z'

loop_
  _atom_site_type_symbol
  _atom_site_label
  _atom_site_symmetry_multiplicity
  _atom_site_fract_x
  _atom_site_fract_y
  _atom_site_fract_z
  _atom_site_occupancy
  Mn  Mn1       1.0  0.91067  0.48632  0.63871  1.0000
  Mn  Mn2       1.0  0.58933  0.51368  0.13870  1.0000
  Mn  Mn3       1.0  0.08933  0.51368  0.36130  1.0000
  Mn  Mn4       1.0  0.41066  0.48631  0.86129  1.0000
  H   H1        1.0  0.86409  0.97324  0.58342  1.0000
  H   H2        1.0  0.63591  0.02676  0.08342  1.0000
  H   H3        1.0  0.13591  0.02676  0.41658  1.0000
  H   H4        1.0  0.36409  0.97324  0.91658  1.0000
  H   H5        1.0  0.68846  0.87938  0.74799  1.0000
  H   H6        1.0  0.81154  0.12062  0.24799  1.0000
  H   H7        1.0  0.31154  0.12062  0.25201  1.0000
  H   H8        1.0  0.18846  0.87938  0.75201  1.0000
  H   H9        1.0  0.59533  0.03914  0.86363  1.0000
  H   H10       1.0  0.90467  0.96085  0.36363  1.0000
  H   H11       1.0  0.40467  0.96085  0.13637  1.0000
  H   H12       1.0  0.09533  0.03914  0.63637  1.0000
  H   H13       1.0  0.67501  0.28855  0.80571  1.0000
  H   H14       1.0  0.82499  0.71144  0.30571  1.0000
  H   H15       1.0  0.32499  0.71145  0.19429  1.0000
  H   H16       1.0  0.17501  0.28856  0.69428  1.0000
  H   H17       1.0  0.17590  0.69147  0.03174  1.0000
  H   H18       1.0  0.32410  0.30853  0.53174  1.0000
  H   H19       1.0  0.82411  0.30853  0.96826  1.0000
  H   H20       1.0  0.67589  0.69147  0.46826  1.0000
  H   H21       1.0  0.04825  0.85640  0.08959  1.0000
  H   H22       1.0  0.45175  0.14361  0.58959  1.0000
  H   H23       1.0  0.95174  0.14360  0.91042  1.0000
  H   H24       1.0  0.54825  0.85640  0.41041  1.0000
  H   H25       1.0  0.85785  0.87142  0.95165  1.0000
  H   H26       1.0  0.64215  0.12858  0.45165  1.0000
  H   H27       1.0  0.14215  0.12858  0.04836  1.0000
  H   H28       1.0  0.35785  0.87142  0.54836  1.0000
  H   H29       1.0  0.80120  0.72058  0.76804  1.0000
  H   H30       1.0  0.69880  0.27942  0.26804  1.0000
  H   H31       1.0  0.19881  0.27942  0.23196  1.0000
  H   H32       1.0  0.30119  0.72058  0.73197  1.0000
  C   C1        1.0  0.95981  0.24131  0.51035  1.0000
  C   C2        1.0  0.54019  0.75869  0.01034  1.0000
  C   C3        1.0  0.04019  0.75869  0.48964  1.0000
  C   C4        1.0  0.45981  0.24132  0.98965  1.0000
  C   C5        1.0  0.86018  0.17857  0.61184  1.0000
  C   C6        1.0  0.63983  0.82143  0.11184  1.0000
  C   C7        1.0  0.13983  0.82143  0.38816  1.0000
  C   C8        1.0  0.36016  0.17857  0.88814  1.0000
  C   C9        1.0  0.82002  0.03902  0.63576  1.0000
  C   C10       1.0  0.67998  0.96097  0.13576  1.0000
  C   C11       1.0  0.17998  0.96098  0.36424  1.0000
  C   C12       1.0  0.32002  0.03902  0.86424  1.0000
  C   C13       1.0  0.72365  0.98789  0.72740  1.0000
  C   C14       1.0  0.77635  0.01211  0.22740  1.0000
  C   C15       1.0  0.27635  0.01211  0.27260  1.0000
  C   C16       1.0  0.22365  0.98789  0.77260  1.0000
  C   C17       1.0  0.67039  0.07646  0.79159  1.0000
  C   C18       1.0  0.82962  0.92354  0.29159  1.0000
  C   C19       1.0  0.32962  0.92354  0.20841  1.0000
  C   C20       1.0  0.17039  0.07646  0.70841  1.0000
  C   C21       1.0  0.71561  0.21444  0.76160  1.0000
  C   C22       1.0  0.78439  0.78556  0.26160  1.0000
  C   C23       1.0  0.28439  0.78556  0.23840  1.0000
  C   C24       1.0  0.21562  0.21444  0.73840  1.0000
  C   C25       1.0  0.12467  0.52162  0.83631  1.0000
  C   C26       1.0  0.37533  0.47838  0.33631  1.0000
  C   C27       1.0  0.87530  0.47838  0.16368  1.0000
  C   C28       1.0  0.62469  0.52162  0.66370  1.0000
  C   C29       1.0  0.05044  0.61950  0.87546  1.0000
  C   C30       1.0  0.44957  0.38050  0.37546  1.0000
  C   C31       1.0  0.94956  0.38049  0.12452  1.0000
  C   C32       1.0  0.55043  0.61950  0.62455  1.0000
  C   C33       1.0  0.09030  0.70111  0.97868  1.0000
  C   C34       1.0  0.40970  0.29889  0.47868  1.0000
  C   C35       1.0  0.90970  0.29892  0.02133  1.0000
  C   C36       1.0  0.59030  0.70110  0.52133  1.0000
  C   C37       1.0  0.02034  0.79244  0.00860  1.0000
  C   C38       1.0  0.47966  0.20756  0.50860  1.0000
  C   C39       1.0  0.97966  0.20755  0.99141  1.0000
  C   C40       1.0  0.52034  0.79244  0.49140  1.0000
  C   C41       1.0  0.91457  0.80056  0.93264  1.0000
  C   C42       1.0  0.58543  0.19944  0.43264  1.0000
  C   C43       1.0  0.08542  0.19944  0.06735  1.0000
  C   C44       1.0  0.41457  0.80055  0.56737  1.0000
  C   C45       1.0  0.88150  0.71583  0.83076  1.0000
  C   C46       1.0  0.61850  0.28417  0.33076  1.0000
  C   C47       1.0  0.11849  0.28418  0.16925  1.0000
  C   C48       1.0  0.38150  0.71583  0.66925  1.0000
  N   N1        1.0  0.80896  0.26453  0.67429  1.0000
  N   N2        1.0  0.69104  0.73546  0.17429  1.0000
  N   N3        1.0  0.19104  0.73546  0.32571  1.0000
  N   N4        1.0  0.30896  0.26453  0.82571  1.0000
  N   N5        1.0  0.94692  0.62591  0.80264  1.0000
  N   N6        1.0  0.55308  0.37409  0.30263  1.0000
  N   N7        1.0  0.05308  0.37408  0.19736  1.0000
  N   N8        1.0  0.44694  0.62593  0.69736  1.0000
  O   O1        1.0  0.01879  0.17109  0.45407  1.0000
  O   O2        1.0  0.48122  0.82890  0.95407  1.0000
  O   O3        1.0  0.98122  0.82890  0.54593  1.0000
  O   O4        1.0  0.51878  0.17110  0.04593  1.0000
  O   O5        1.0  0.97248  0.36835  0.48973  1.0000
  O   O6        1.0  0.52752  0.63165  0.98972  1.0000
  O   O7        1.0  0.02751  0.63164  0.51026  1.0000
  O   O8        1.0  0.47250  0.36836  0.01024  1.0000
  O   O9        1.0  0.22384  0.51633  0.90300  1.0000
  O   O10       1.0  0.27614  0.48366  0.40300  1.0000
  O   O11       1.0  0.77617  0.48367  0.09700  1.0000
  O   O12       1.0  0.72383  0.51633  0.59701  1.0000
  O   O13       1.0  0.08459  0.45476  0.73881  1.0000
  O   O14       1.0  0.41542  0.54525  0.23881  1.0000
  O   O15       1.0  0.91540  0.54524  0.26118  1.0000
  O   O16       1.0  0.58460  0.45477  0.76119  1.0000
