data_image0
_chemical_formula_structural       Cu6H42C40N16
_chemical_formula_sum              "Cu6 H42 C40 N16"
_cell_length_a       11.427
_cell_length_b       11.3284
_cell_length_c       13.1199
_cell_angle_alpha    90.1782
_cell_angle_beta     115.777
_cell_angle_gamma    110.332

_space_group_name_H-M_alt    "P 1"
_space_group_IT_number       1

loop_
  _space_group_symop_operation_xyz
  'x, y, z'

loop_
  _atom_site_type_symbol
  _atom_site_label
  _atom_site_symmetry_multiplicity
  _atom_site_fract_x
  _atom_site_fract_y
  _atom_site_fract_z
  _atom_site_occupancy
  Cu  Cu1       1.0  0.17565  0.12263  0.40987  1.0000
  Cu  Cu2       1.0  0.82435  0.87736  0.59013  1.0000
  Cu  Cu3       1.0  0.86373  0.95762  0.99817  1.0000
  Cu  Cu4       1.0  0.13627  0.04237  0.00183  1.0000
  Cu  Cu5       1.0  0.64764  0.18446  0.70327  1.0000
  Cu  Cu6       1.0  0.35236  0.81554  0.29672  1.0000
  H   H1        1.0  0.43139  0.66874  0.59353  1.0000
  H   H2        1.0  0.56861  0.33126  0.40647  1.0000
  H   H3        1.0  0.40804  0.50769  0.61138  1.0000
  H   H4        1.0  0.59196  0.49231  0.38862  1.0000
  H   H5        1.0  0.51684  0.59193  0.54988  1.0000
  H   H6        1.0  0.48316  0.40807  0.45012  1.0000
  H   H7        1.0  0.62534  0.83901  0.77428  1.0000
  H   H8        1.0  0.37465  0.16099  0.22572  1.0000
  H   H9        1.0  0.88064  0.09256  0.28517  1.0000
  H   H10       1.0  0.11936  0.90745  0.71483  1.0000
  H   H11       1.0  0.01930  0.71881  0.99800  1.0000
  H   H12       1.0  0.98069  0.28119  0.00200  1.0000
  H   H13       1.0  0.90706  0.56920  0.00829  1.0000
  H   H14       1.0  0.09294  0.43080  0.99171  1.0000
  H   H15       1.0  0.93593  0.71628  0.08401  1.0000
  H   H16       1.0  0.06408  0.28373  0.91599  1.0000
  H   H17       1.0  0.58595  0.39767  0.70480  1.0000
  H   H18       1.0  0.41405  0.60233  0.29520  1.0000
  H   H19       1.0  0.72339  0.41409  0.84136  1.0000
  H   H20       1.0  0.27661  0.58591  0.15863  1.0000
  H   H21       1.0  0.87103  0.66340  0.71234  1.0000
  H   H22       1.0  0.12898  0.33661  0.28766  1.0000
  H   H23       1.0  0.01881  0.64206  0.62271  1.0000
  H   H24       1.0  0.98120  0.35794  0.37730  1.0000
  H   H25       1.0  0.01279  0.42435  0.57558  1.0000
  H   H26       1.0  0.98722  0.57565  0.42443  1.0000
  H   H27       1.0  0.91190  0.17001  0.69480  1.0000
  H   H28       1.0  0.08810  0.82999  0.30520  1.0000
  H   H29       1.0  0.74206  0.13096  0.58314  1.0000
  H   H30       1.0  0.25794  0.86904  0.41685  1.0000
  H   H31       1.0  0.65512  0.16759  0.26122  1.0000
  H   H32       1.0  0.34488  0.83241  0.73878  1.0000
  H   H33       1.0  0.62676  0.15046  0.38458  1.0000
  H   H34       1.0  0.37324  0.84954  0.61542  1.0000
  H   H35       1.0  0.59952  0.01419  0.29886  1.0000
  H   H36       1.0  0.40049  0.98581  0.70114  1.0000
  H   H37       1.0  0.24586  0.19232  0.65321  1.0000
  H   H38       1.0  0.75414  0.80768  0.34679  1.0000
  H   H39       1.0  0.14119  0.16038  0.72686  1.0000
  H   H40       1.0  0.85881  0.83963  0.27314  1.0000
  H   H41       1.0  0.20800  0.31635  0.69946  1.0000
  H   H42       1.0  0.79200  0.68365  0.30054  1.0000
  C   C1        1.0  0.48480  0.60172  0.61615  1.0000
  C   C2        1.0  0.51519  0.39828  0.38385  1.0000
  C   C3        1.0  0.60923  0.64831  0.73262  1.0000
  C   C4        1.0  0.39077  0.35169  0.26738  1.0000
  C   C5        1.0  0.69957  0.59007  0.79945  1.0000
  C   C6        1.0  0.30043  0.40992  0.20055  1.0000
  C   C7        1.0  0.79824  0.67944  0.90282  1.0000
  C   C8        1.0  0.20176  0.32056  0.09718  1.0000
  C   C9        1.0  0.92104  0.66961  0.00338  1.0000
  C   C10       1.0  0.07896  0.33039  0.99662  1.0000
  C   C11       1.0  0.69454  0.46185  0.76612  1.0000
  C   C12       1.0  0.30546  0.53815  0.23388  1.0000
  C   C13       1.0  0.78808  0.46098  0.71274  1.0000
  C   C14       1.0  0.21192  0.53902  0.28726  1.0000
  C   C15       1.0  0.87142  0.57050  0.69087  1.0000
  C   C16       1.0  0.12859  0.42950  0.30914  1.0000
  C   C17       1.0  0.95324  0.55809  0.64099  1.0000
  C   C18       1.0  0.04677  0.44192  0.35902  1.0000
  C   C19       1.0  0.95005  0.43741  0.61444  1.0000
  C   C20       1.0  0.04995  0.56260  0.38557  1.0000
  C   C21       1.0  0.86385  0.33131  0.63756  1.0000
  C   C22       1.0  0.13615  0.66869  0.36244  1.0000
  C   C23       1.0  0.85260  0.19646  0.61265  1.0000
  C   C24       1.0  0.14740  0.80354  0.38735  1.0000
  C   C25       1.0  0.66732  0.11610  0.33374  1.0000
  C   C26       1.0  0.33268  0.88390  0.66626  1.0000
  C   C27       1.0  0.81715  0.13630  0.40840  1.0000
  C   C28       1.0  0.18285  0.86371  0.59160  1.0000
  C   C29       1.0  0.89995  0.17246  0.52788  1.0000
  C   C30       1.0  0.10005  0.82755  0.47213  1.0000
  C   C31       1.0  0.03533  0.17859  0.55090  1.0000
  C   C32       1.0  0.96467  0.82141  0.44910  1.0000
  C   C33       1.0  0.16471  0.21368  0.66368  1.0000
  C   C34       1.0  0.83529  0.78633  0.33632  1.0000
  C   C35       1.0  0.98429  0.01834  0.15091  1.0000
  C   C36       1.0  0.01571  0.98165  0.84910  1.0000
  C   C37       1.0  0.70518  0.09460  0.81860  1.0000
  C   C38       1.0  0.29482  0.90539  0.18140  1.0000
  C   C39       1.0  0.35794  0.15171  0.51064  1.0000
  C   C40       1.0  0.64206  0.84828  0.48936  1.0000
  N   N1        1.0  0.76956  0.78541  0.89938  1.0000
  N   N2        1.0  0.23043  0.21459  0.10062  1.0000
  N   N3        1.0  0.65535  0.76415  0.79638  1.0000
  N   N4        1.0  0.34465  0.23585  0.20362  1.0000
  N   N5        1.0  0.78469  0.34409  0.68573  1.0000
  N   N6        1.0  0.21532  0.65591  0.31427  1.0000
  N   N7        1.0  0.90242  0.12161  0.36721  1.0000
  N   N8        1.0  0.09758  0.87839  0.63279  1.0000
  N   N9        1.0  0.03504  0.14673  0.45181  1.0000
  N   N10       1.0  0.96496  0.85327  0.54819  1.0000
  N   N11       1.0  0.05671  0.06014  0.25032  1.0000
  N   N12       1.0  0.94329  0.93986  0.74968  1.0000
  N   N13       1.0  0.74969  0.03699  0.89035  1.0000
  N   N14       1.0  0.25031  0.96301  0.10965  1.0000
  N   N15       1.0  0.47193  0.16330  0.57989  1.0000
  N   N16       1.0  0.52807  0.83670  0.42011  1.0000
