data_image0
_chemical_formula_structural       Cu6H42C40N16
_chemical_formula_sum              "Cu6 H42 C40 N16"
_cell_length_a       11.2827
_cell_length_b       11.443
_cell_length_c       12.6953
_cell_angle_alpha    88.4935
_cell_angle_beta     65.7623
_cell_angle_gamma    68.2824

_space_group_name_H-M_alt    "P 1"
_space_group_IT_number       1

loop_
  _space_group_symop_operation_xyz
  'x, y, z'

loop_
  _atom_site_type_symbol
  _atom_site_label
  _atom_site_symmetry_multiplicity
  _atom_site_fract_x
  _atom_site_fract_y
  _atom_site_fract_z
  _atom_site_occupancy
  Cu  Cu1       1.0  0.82526  0.11915  0.40488  1.0000
  Cu  Cu2       1.0  0.17474  0.88085  0.59512  1.0000
  Cu  Cu3       1.0  0.13525  0.94862  0.99264  1.0000
  Cu  Cu4       1.0  0.86475  0.05138  0.00736  1.0000
  Cu  Cu5       1.0  0.36005  0.18188  0.70814  1.0000
  Cu  Cu6       1.0  0.63995  0.81812  0.29186  1.0000
  H   H1        1.0  0.52489  0.66100  0.55865  1.0000
  H   H2        1.0  0.47511  0.33900  0.44135  1.0000
  H   H3        1.0  0.55070  0.50143  0.58267  1.0000
  H   H4        1.0  0.44930  0.49857  0.41733  1.0000
  H   H5        1.0  0.62878  0.58228  0.63302  1.0000
  H   H6        1.0  0.37122  0.41773  0.36699  1.0000
  H   H7        1.0  0.38557  0.82873  0.77788  1.0000
  H   H8        1.0  0.61442  0.17127  0.22212  1.0000
  H   H9        1.0  0.12157  0.09397  0.28697  1.0000
  H   H10       1.0  0.87843  0.90603  0.71303  1.0000
  H   H11       1.0  0.02637  0.74617  0.06283  1.0000
  H   H12       1.0  0.97362  0.25384  0.93716  1.0000
  H   H13       1.0  0.11419  0.57649  0.03862  1.0000
  H   H14       1.0  0.88580  0.42351  0.96138  1.0000
  H   H15       1.0  0.00938  0.65310  0.96472  1.0000
  H   H16       1.0  0.99061  0.34690  0.03528  1.0000
  H   H17       1.0  0.29632  0.40470  0.84088  1.0000
  H   H18       1.0  0.70367  0.59530  0.15912  1.0000
  H   H19       1.0  0.42436  0.39505  0.69999  1.0000
  H   H20       1.0  0.57563  0.60495  0.30001  1.0000
  H   H21       1.0  0.13039  0.66043  0.71017  1.0000
  H   H22       1.0  0.86961  0.33957  0.28983  1.0000
  H   H23       1.0  0.96921  0.64377  0.62698  1.0000
  H   H24       1.0  0.03079  0.35623  0.37302  1.0000
  H   H25       1.0  0.96994  0.42954  0.58806  1.0000
  H   H26       1.0  0.03006  0.57046  0.41193  1.0000
  H   H27       1.0  0.24627  0.13344  0.60570  1.0000
  H   H28       1.0  0.75373  0.86657  0.39429  1.0000
  H   H29       1.0  0.07311  0.17857  0.71251  1.0000
  H   H30       1.0  0.92689  0.82143  0.28749  1.0000
  H   H31       1.0  0.39016  0.03905  0.28423  1.0000
  H   H32       1.0  0.60984  0.96094  0.71577  1.0000
  H   H33       1.0  0.37864  0.12425  0.40434  1.0000
  H   H34       1.0  0.62136  0.87575  0.59565  1.0000
  H   H35       1.0  0.33035  0.20778  0.29821  1.0000
  H   H36       1.0  0.66966  0.79222  0.70179  1.0000
  H   H37       1.0  0.78410  0.31469  0.70176  1.0000
  H   H38       1.0  0.21590  0.68530  0.29824  1.0000
  H   H39       1.0  0.85188  0.15892  0.73364  1.0000
  H   H40       1.0  0.14812  0.84108  0.26635  1.0000
  H   H41       1.0  0.74855  0.19262  0.65242  1.0000
  H   H42       1.0  0.25145  0.80738  0.34757  1.0000
  C   C1        1.0  0.53373  0.59409  0.62143  1.0000
  C   C2        1.0  0.46627  0.40591  0.37857  1.0000
  C   C3        1.0  0.40432  0.63984  0.73452  1.0000
  C   C4        1.0  0.59568  0.36016  0.26548  1.0000
  C   C5        1.0  0.31183  0.58265  0.79803  1.0000
  C   C6        1.0  0.68817  0.41734  0.20197  1.0000
  C   C7        1.0  0.20884  0.67123  0.89976  1.0000
  C   C8        1.0  0.79115  0.32877  0.10025  1.0000
  C   C9        1.0  0.08347  0.66094  0.99682  1.0000
  C   C10       1.0  0.91652  0.33906  0.00318  1.0000
  C   C11       1.0  0.31721  0.45628  0.76483  1.0000
  C   C12       1.0  0.68279  0.54372  0.23517  1.0000
  C   C13       1.0  0.21518  0.45876  0.71533  1.0000
  C   C14       1.0  0.78482  0.54124  0.28467  1.0000
  C   C15       1.0  0.12742  0.56903  0.69259  1.0000
  C   C16       1.0  0.87259  0.43097  0.30741  1.0000
  C   C17       1.0  0.03809  0.55925  0.64628  1.0000
  C   C18       1.0  0.96191  0.44075  0.35371  1.0000
  C   C19       1.0  0.03822  0.44054  0.62432  1.0000
  C   C20       1.0  0.96178  0.55946  0.37567  1.0000
  C   C21       1.0  0.12918  0.33356  0.64805  1.0000
  C   C22       1.0  0.87082  0.66644  0.35194  1.0000
  C   C23       1.0  0.13684  0.20103  0.62834  1.0000
  C   C24       1.0  0.86316  0.79898  0.37166  1.0000
  C   C25       1.0  0.32687  0.12717  0.34710  1.0000
  C   C26       1.0  0.67314  0.87283  0.65290  1.0000
  C   C27       1.0  0.17855  0.14105  0.41786  1.0000
  C   C28       1.0  0.82145  0.85894  0.58214  1.0000
  C   C29       1.0  0.09293  0.17670  0.53798  1.0000
  C   C30       1.0  0.90708  0.82330  0.46202  1.0000
  C   C31       1.0  0.95934  0.17994  0.55551  1.0000
  C   C32       1.0  0.04067  0.82006  0.44449  1.0000
  C   C33       1.0  0.82876  0.21315  0.66676  1.0000
  C   C34       1.0  0.17124  0.78684  0.33324  1.0000
  C   C35       1.0  0.01169  0.01395  0.14506  1.0000
  C   C36       1.0  0.98831  0.98605  0.85495  1.0000
  C   C37       1.0  0.30623  0.08654  0.82336  1.0000
  C   C38       1.0  0.69376  0.91346  0.17664  1.0000
  C   C39       1.0  0.64398  0.14806  0.50756  1.0000
  C   C40       1.0  0.35602  0.85193  0.49245  1.0000
  N   N1        1.0  0.23701  0.77565  0.89838  1.0000
  N   N2        1.0  0.76298  0.22435  0.10162  1.0000
  N   N3        1.0  0.35540  0.75442  0.79864  1.0000
  N   N4        1.0  0.64459  0.24558  0.20137  1.0000
  N   N5        1.0  0.21577  0.34368  0.69243  1.0000
  N   N6        1.0  0.78423  0.65632  0.30757  1.0000
  N   N7        1.0  0.09651  0.12380  0.37111  1.0000
  N   N8        1.0  0.90349  0.87620  0.62888  1.0000
  N   N9        1.0  0.96331  0.14677  0.45275  1.0000
  N   N10       1.0  0.03670  0.85322  0.54724  1.0000
  N   N11       1.0  0.94248  0.05783  0.24478  1.0000
  N   N12       1.0  0.05751  0.94217  0.75522  1.0000
  N   N13       1.0  0.26095  0.02413  0.89117  1.0000
  N   N14       1.0  0.73904  0.97587  0.10883  1.0000
  N   N15       1.0  0.53110  0.16142  0.57988  1.0000
  N   N16       1.0  0.46889  0.83858  0.42012  1.0000
