data_image0
_chemical_formula_structural       Mn8H32C48N8Cl8O16
_chemical_formula_sum              "Mn8 H32 C48 N8 Cl8 O16"
_cell_length_a       9.67823
_cell_length_b       9.6242
_cell_length_c       15.6894
_cell_angle_alpha    90
_cell_angle_beta     90
_cell_angle_gamma    90

_space_group_name_H-M_alt    "P 1"
_space_group_IT_number       1

loop_
  _space_group_symop_operation_xyz
  'x, y, z'

loop_
  _atom_site_type_symbol
  _atom_site_label
  _atom_site_symmetry_multiplicity
  _atom_site_fract_x
  _atom_site_fract_y
  _atom_site_fract_z
  _atom_site_occupancy
  Mn  Mn1       1.0  0.26055  0.92615  0.22154  1.0000
  Mn  Mn2       1.0  0.06981  0.75936  0.72169  1.0000
  Mn  Mn3       1.0  0.43007  0.73997  0.72144  1.0000
  Mn  Mn4       1.0  0.76011  0.42741  0.77849  1.0000
  Mn  Mn5       1.0  0.73942  0.07385  0.77845  1.0000
  Mn  Mn6       1.0  0.93020  0.24066  0.27830  1.0000
  Mn  Mn7       1.0  0.56992  0.26001  0.27855  1.0000
  Mn  Mn8       1.0  0.23985  0.57266  0.22152  1.0000
  H   H1        1.0  0.87578  0.39194  0.45858  1.0000
  H   H2        1.0  0.60785  0.37515  0.95858  1.0000
  H   H3        1.0  0.89202  0.12499  0.95874  1.0000
  H   H4        1.0  0.37574  0.89181  0.54151  1.0000
  H   H5        1.0  0.12423  0.60805  0.54142  1.0000
  H   H6        1.0  0.39218  0.62483  0.04145  1.0000
  H   H7        1.0  0.10798  0.87499  0.04124  1.0000
  H   H8        1.0  0.62428  0.10820  0.45851  1.0000
  H   H9        1.0  0.94207  0.35184  0.61084  1.0000
  H   H10       1.0  0.64799  0.44197  0.11073  1.0000
  H   H11       1.0  0.85205  0.05787  0.11089  1.0000
  H   H12       1.0  0.44217  0.85183  0.38928  1.0000
  H   H13       1.0  0.05795  0.64814  0.38916  1.0000
  H   H14       1.0  0.35200  0.55805  0.88930  1.0000
  H   H15       1.0  0.14795  0.94216  0.88910  1.0000
  H   H16       1.0  0.55781  0.14820  0.61072  1.0000
  H   H17       1.0  0.11516  0.16405  0.64426  1.0000
  H   H18       1.0  0.83564  0.61490  0.14412  1.0000
  H   H19       1.0  0.66442  0.88502  0.14425  1.0000
  H   H20       1.0  0.61524  0.66400  0.35586  1.0000
  H   H21       1.0  0.88487  0.83593  0.35573  1.0000
  H   H22       1.0  0.16431  0.38517  0.85590  1.0000
  H   H23       1.0  0.33559  0.11502  0.85576  1.0000
  H   H24       1.0  0.38474  0.33604  0.64412  1.0000
  H   H25       1.0  0.21547  0.02750  0.52232  1.0000
  H   H26       1.0  0.97196  0.71507  0.02198  1.0000
  H   H27       1.0  0.52822  0.78474  0.02209  1.0000
  H   H28       1.0  0.71544  0.52734  0.47779  1.0000
  H   H29       1.0  0.78455  0.97249  0.47767  1.0000
  H   H30       1.0  0.02810  0.28488  0.97806  1.0000
  H   H31       1.0  0.47178  0.21525  0.97794  1.0000
  H   H32       1.0  0.28453  0.47266  0.52218  1.0000
  C   C1        1.0  0.95133  0.31300  0.47606  1.0000
  C   C2        1.0  0.68687  0.45061  0.97596  1.0000
  C   C3        1.0  0.81301  0.04951  0.97612  1.0000
  C   C4        1.0  0.45126  0.81286  0.52403  1.0000
  C   C5        1.0  0.04869  0.68699  0.52393  1.0000
  C   C6        1.0  0.31314  0.54939  0.02406  1.0000
  C   C7        1.0  0.18699  0.95047  0.02387  1.0000
  C   C8        1.0  0.54874  0.18714  0.47597  1.0000
  C   C9        1.0  0.98922  0.29013  0.56067  1.0000
  C   C10       1.0  0.70970  0.48886  0.06053  1.0000
  C   C11       1.0  0.79033  0.01108  0.06068  1.0000
  C   C12       1.0  0.48923  0.79003  0.43943  1.0000
  C   C13       1.0  0.01081  0.70986  0.43933  1.0000
  C   C14       1.0  0.29028  0.51116  0.93948  1.0000
  C   C15       1.0  0.20969  0.98892  0.93931  1.0000
  C   C16       1.0  0.51076  0.20999  0.56056  1.0000
  C   C17       1.0  0.08506  0.18621  0.57870  1.0000
  C   C18       1.0  0.81359  0.58469  0.07856  1.0000
  C   C19       1.0  0.68647  0.91524  0.07869  1.0000
  C   C20       1.0  0.58506  0.68608  0.42140  1.0000
  C   C21       1.0  0.91496  0.81378  0.42129  1.0000
  C   C22       1.0  0.18640  0.41535  0.92145  1.0000
  C   C23       1.0  0.31354  0.08477  0.92131  1.0000
  C   C24       1.0  0.41492  0.31394  0.57858  1.0000
  C   C25       1.0  0.14077  0.10991  0.51144  1.0000
  C   C26       1.0  0.88971  0.64018  0.01127  1.0000
  C   C27       1.0  0.61037  0.85973  0.01138  1.0000
  C   C28       1.0  0.64070  0.60972  0.48866  1.0000
  C   C29       1.0  0.85925  0.89008  0.48855  1.0000
  C   C30       1.0  0.11030  0.35981  0.98874  1.0000
  C   C31       1.0  0.38964  0.14026  0.98863  1.0000
  C   C32       1.0  0.35928  0.39027  0.51132  1.0000
  C   C33       1.0  0.09824  0.13955  0.42866  1.0000
  C   C34       1.0  0.86010  0.59728  0.92854  1.0000
  C   C35       1.0  0.63983  0.90281  0.92866  1.0000
  C   C36       1.0  0.59813  0.63935  0.57143  1.0000
  C   C37       1.0  0.90177  0.86044  0.57133  1.0000
  C   C38       1.0  0.13991  0.40274  0.07148  1.0000
  C   C39       1.0  0.36018  0.09715  0.07134  1.0000
  C   C40       1.0  0.40185  0.36062  0.42855  1.0000
  C   C41       1.0  0.15129  0.06196  0.35280  1.0000
  C   C42       1.0  0.93738  0.65065  0.85288  1.0000
  C   C43       1.0  0.56271  0.84940  0.85290  1.0000
  C   C44       1.0  0.65143  0.56203  0.64728  1.0000
  C   C45       1.0  0.84871  0.93804  0.64719  1.0000
  C   C46       1.0  0.06260  0.34934  0.14713  1.0000
  C   C47       1.0  0.43732  0.15056  0.14710  1.0000
  C   C48       1.0  0.34853  0.43796  0.35271  1.0000
  N   N1        1.0  0.00397  0.23932  0.41115  1.0000
  N   N2        1.0  0.76063  0.50278  0.91100  1.0000
  N   N3        1.0  0.73914  0.99752  0.91117  1.0000
  N   N4        1.0  0.50384  0.73909  0.58892  1.0000
  N   N5        1.0  0.99605  0.76067  0.58884  1.0000
  N   N6        1.0  0.23936  0.49724  0.08901  1.0000
  N   N7        1.0  0.26086  0.00244  0.08883  1.0000
  N   N8        1.0  0.49615  0.26089  0.41107  1.0000
  Cl  Cl1       1.0  0.43187  0.74043  0.20942  1.0000
  Cl  Cl2       1.0  0.25843  0.93048  0.70961  1.0000
  Cl  Cl3       1.0  0.24167  0.56910  0.70940  1.0000
  Cl  Cl4       1.0  0.93141  0.24122  0.79085  1.0000
  Cl  Cl5       1.0  0.56814  0.25961  0.79059  1.0000
  Cl  Cl6       1.0  0.74161  0.06953  0.29039  1.0000
  Cl  Cl7       1.0  0.75829  0.43089  0.29061  1.0000
  Cl  Cl8       1.0  0.06855  0.75882  0.20914  1.0000
  O   O1        1.0  0.24501  0.97121  0.36075  1.0000
  O   O2        1.0  0.02742  0.74497  0.86100  1.0000
  O   O3        1.0  0.47284  0.75484  0.86093  1.0000
  O   O4        1.0  0.74542  0.47162  0.63941  1.0000
  O   O5        1.0  0.75494  0.02873  0.63925  1.0000
  O   O6        1.0  0.97262  0.25501  0.13899  1.0000
  O   O7        1.0  0.52717  0.24512  0.13907  1.0000
  O   O8        1.0  0.25459  0.52839  0.36059  1.0000
  O   O9        1.0  0.09818  0.09083  0.27986  1.0000
  O   O10       1.0  0.90896  0.59742  0.77970  1.0000
  O   O11       1.0  0.59125  0.90277  0.77989  1.0000
  O   O12       1.0  0.59834  0.59081  0.72035  1.0000
  O   O13       1.0  0.90186  0.90922  0.72013  1.0000
  O   O14       1.0  0.09098  0.40261  0.22031  1.0000
  O   O15       1.0  0.40879  0.09717  0.22011  1.0000
  O   O16       1.0  0.40161  0.40916  0.27963  1.0000
