data_image0
_chemical_formula_structural       Cu6H42C40N16
_chemical_formula_sum              "Cu6 H42 C40 N16"
_cell_length_a       11.3259
_cell_length_b       11.3593
_cell_length_c       12.1912
_cell_angle_alpha    67.8129
_cell_angle_beta     87.7342
_cell_angle_gamma    69.7521

_space_group_name_H-M_alt    "P 1"
_space_group_IT_number       1

loop_
  _space_group_symop_operation_xyz
  'x, y, z'

loop_
  _atom_site_type_symbol
  _atom_site_label
  _atom_site_symmetry_multiplicity
  _atom_site_fract_x
  _atom_site_fract_y
  _atom_site_fract_z
  _atom_site_occupancy
  Cu  Cu1       1.0  0.68563  0.36691  0.72474  1.0000
  Cu  Cu2       1.0  0.31437  0.63308  0.27526  1.0000
  Cu  Cu3       1.0  0.62962  0.81244  0.41663  1.0000
  Cu  Cu4       1.0  0.37038  0.18756  0.58338  1.0000
  Cu  Cu5       1.0  0.45662  0.12303  0.01064  1.0000
  Cu  Cu6       1.0  0.54338  0.87697  0.98936  1.0000
  H   H1        1.0  0.08493  0.60188  0.66439  1.0000
  H   H2        1.0  0.91507  0.39812  0.33560  1.0000
  H   H3        1.0  0.02404  0.51075  0.60617  1.0000
  H   H4        1.0  0.97596  0.48925  0.39383  1.0000
  H   H5        1.0  0.18285  0.50180  0.58974  1.0000
  H   H6        1.0  0.81715  0.49820  0.41026  1.0000
  H   H7        1.0  0.33993  0.36857  0.80519  1.0000
  H   H8        1.0  0.66007  0.63143  0.19481  1.0000
  H   H9        1.0  0.59787  0.09899  0.27627  1.0000
  H   H10       1.0  0.40212  0.90101  0.72373  1.0000
  H   H11       1.0  0.24326  0.02930  0.09682  1.0000
  H   H12       1.0  0.75674  0.97071  0.90318  1.0000
  H   H13       1.0  0.14993  0.00733  0.99820  1.0000
  H   H14       1.0  0.85007  0.99267  0.00180  1.0000
  H   H15       1.0  0.07503  0.11202  0.07669  1.0000
  H   H16       1.0  0.92497  0.88798  0.92331  1.0000
  H   H17       1.0  0.89975  0.40748  0.74311  1.0000
  H   H18       1.0  0.10025  0.59252  0.25689  1.0000
  H   H19       1.0  0.91160  0.27414  0.87996  1.0000
  H   H20       1.0  0.08840  0.72587  0.12004  1.0000
  H   H21       1.0  0.15951  0.11137  0.74500  1.0000
  H   H22       1.0  0.84049  0.88863  0.25500  1.0000
  H   H23       1.0  0.13547  0.96759  0.63961  1.0000
  H   H24       1.0  0.86453  0.03241  0.36040  1.0000
  H   H25       1.0  0.91715  0.99694  0.57131  1.0000
  H   H26       1.0  0.08285  0.00306  0.42869  1.0000
  H   H27       1.0  0.64674  0.14089  0.68420  1.0000
  H   H28       1.0  0.35326  0.85911  0.31580  1.0000
  H   H29       1.0  0.64052  0.28841  0.56337  1.0000
  H   H30       1.0  0.35948  0.71159  0.43663  1.0000
  H   H31       1.0  0.71163  0.32835  0.27508  1.0000
  H   H32       1.0  0.28836  0.67165  0.72491  1.0000
  H   H33       1.0  0.59373  0.39271  0.35987  1.0000
  H   H34       1.0  0.40626  0.60729  0.64013  1.0000
  H   H35       1.0  0.54941  0.36244  0.23867  1.0000
  H   H36       1.0  0.45059  0.63756  0.76133  1.0000
  H   H37       1.0  0.69367  0.77896  0.66151  1.0000
  H   H38       1.0  0.30633  0.22104  0.33850  1.0000
  H   H39       1.0  0.65869  0.89552  0.73447  1.0000
  H   H40       1.0  0.34131  0.10448  0.26553  1.0000
  H   H41       1.0  0.81372  0.83047  0.69712  1.0000
  H   H42       1.0  0.18628  0.16953  0.30288  1.0000
  C   C1        1.0  0.10876  0.50622  0.65066  1.0000
  C   C2        1.0  0.89124  0.49379  0.34934  1.0000
  C   C3        1.0  0.14986  0.38512  0.76537  1.0000
  C   C4        1.0  0.85013  0.61488  0.23463  1.0000
  C   C5        1.0  0.08826  0.29757  0.83134  1.0000
  C   C6        1.0  0.91173  0.70243  0.16866  1.0000
  C   C7        1.0  0.17389  0.20077  0.93273  1.0000
  C   C8        1.0  0.82611  0.79923  0.06727  1.0000
  C   C9        1.0  0.15937  0.08152  0.03145  1.0000
  C   C10       1.0  0.84063  0.91848  0.96855  1.0000
  C   C11       1.0  0.96057  0.30256  0.79928  1.0000
  C   C12       1.0  0.03943  0.69744  0.20072  1.0000
  C   C13       1.0  0.95803  0.21246  0.73503  1.0000
  C   C14       1.0  0.04197  0.78754  0.26497  1.0000
  C   C15       1.0  0.06638  0.11982  0.71521  1.0000
  C   C16       1.0  0.93362  0.88018  0.28480  1.0000
  C   C17       1.0  0.05242  0.04074  0.65622  1.0000
  C   C18       1.0  0.94758  0.95926  0.34379  1.0000
  C   C19       1.0  0.93147  0.05673  0.61793  1.0000
  C   C20       1.0  0.06853  0.94327  0.38207  1.0000
  C   C21       1.0  0.82677  0.15208  0.63918  1.0000
  C   C22       1.0  0.17323  0.84791  0.36082  1.0000
  C   C23       1.0  0.69169  0.17733  0.60235  1.0000
  C   C24       1.0  0.30831  0.82267  0.39765  1.0000
  C   C25       1.0  0.62262  0.32344  0.31285  1.0000
  C   C26       1.0  0.37738  0.67656  0.68715  1.0000
  C   C27       1.0  0.63895  0.18236  0.39584  1.0000
  C   C28       1.0  0.36105  0.81764  0.60416  1.0000
  C   C29       1.0  0.67235  0.11601  0.51898  1.0000
  C   C30       1.0  0.32765  0.88399  0.48102  1.0000
  C   C31       1.0  0.67891  0.98053  0.54827  1.0000
  C   C32       1.0  0.32109  0.01947  0.45173  1.0000
  C   C33       1.0  0.71278  0.86511  0.66664  1.0000
  C   C34       1.0  0.28722  0.13489  0.33335  1.0000
  C   C35       1.0  0.52441  0.98680  0.15591  1.0000
  C   C36       1.0  0.47560  0.01320  0.84410  1.0000
  C   C37       1.0  0.59263  0.30351  0.84453  1.0000
  C   C38       1.0  0.40737  0.69649  0.15547  1.0000
  C   C39       1.0  0.65869  0.64186  0.52880  1.0000
  C   C40       1.0  0.34131  0.35814  0.47120  1.0000
  N   N1        1.0  0.28071  0.22812  0.92911  1.0000
  N   N2        1.0  0.71929  0.77188  0.07090  1.0000
  N   N3        1.0  0.26352  0.34018  0.82833  1.0000
  N   N4        1.0  0.73648  0.65983  0.17167  1.0000
  N   N5        1.0  0.84101  0.22769  0.69718  1.0000
  N   N6        1.0  0.15899  0.77231  0.30282  1.0000
  N   N7        1.0  0.62616  0.08842  0.35890  1.0000
  N   N8        1.0  0.37384  0.91158  0.64110  1.0000
  N   N9        1.0  0.65004  0.96540  0.44948  1.0000
  N   N10       1.0  0.34996  0.03459  0.55052  1.0000
  N   N11       1.0  0.56985  0.91041  0.25373  1.0000
  N   N12       1.0  0.43015  0.08960  0.74627  1.0000
  N   N13       1.0  0.53345  0.25128  0.91532  1.0000
  N   N14       1.0  0.46655  0.74872  0.08468  1.0000
  N   N15       1.0  0.67082  0.53515  0.60456  1.0000
  N   N16       1.0  0.32918  0.46485  0.39544  1.0000
