data_image0
_chemical_formula_structural       Cu6H42C40N16
_chemical_formula_sum              "Cu6 H42 C40 N16"
_cell_length_a       11.3651
_cell_length_b       11.3616
_cell_length_c       13.2025
_cell_angle_alpha    64.8013
_cell_angle_beta     71.2225
_cell_angle_gamma    71.0958

_space_group_name_H-M_alt    "P 1"
_space_group_IT_number       1

loop_
  _space_group_symop_operation_xyz
  'x, y, z'

loop_
  _atom_site_type_symbol
  _atom_site_label
  _atom_site_symmetry_multiplicity
  _atom_site_fract_x
  _atom_site_fract_y
  _atom_site_fract_z
  _atom_site_occupancy
  Cu  Cu1       1.0  0.61455  0.23486  0.09159  1.0000
  Cu  Cu2       1.0  0.38544  0.76514  0.90840  1.0000
  Cu  Cu3       1.0  0.46748  0.13251  0.50506  1.0000
  Cu  Cu4       1.0  0.53252  0.86749  0.49494  1.0000
  Cu  Cu5       1.0  0.69086  0.05230  0.79677  1.0000
  Cu  Cu6       1.0  0.30914  0.94770  0.20323  1.0000
  H   H1        1.0  0.15788  0.03953  0.95494  1.0000
  H   H2        1.0  0.84212  0.96047  0.04506  1.0000
  H   H3        1.0  0.00697  0.13174  0.92086  1.0000
  H   H4        1.0  0.99303  0.86826  0.07915  1.0000
  H   H5        1.0  0.12661  0.21585  0.89520  1.0000
  H   H6        1.0  0.87339  0.78415  0.10479  1.0000
  H   H7        1.0  0.35011  0.14166  0.73370  1.0000
  H   H8        1.0  0.64988  0.85835  0.26630  1.0000
  H   H9        1.0  0.58087  0.40432  0.21717  1.0000
  H   H10       1.0  0.41913  0.59568  0.78283  1.0000
  H   H11       1.0  0.21324  0.15853  0.42356  1.0000
  H   H12       1.0  0.78676  0.84148  0.57644  1.0000
  H   H13       1.0  0.07848  0.08698  0.50838  1.0000
  H   H14       1.0  0.92152  0.91302  0.49161  1.0000
  H   H15       1.0  0.23552  0.98566  0.50094  1.0000
  H   H16       1.0  0.76448  0.01435  0.49906  1.0000
  H   H17       1.0  0.90332  0.12119  0.80200  1.0000
  H   H18       1.0  0.09668  0.87881  0.19800  1.0000
  H   H19       1.0  0.92419  0.11643  0.66647  1.0000
  H   H20       1.0  0.07581  0.88357  0.33353  1.0000
  H   H21       1.0  0.16256  0.84684  0.80126  1.0000
  H   H22       1.0  0.83745  0.15316  0.19873  1.0000
  H   H23       1.0  0.13636  0.61081  0.89371  1.0000
  H   H24       1.0  0.86364  0.38919  0.10629  1.0000
  H   H25       1.0  0.91847  0.56643  0.93844  1.0000
  H   H26       1.0  0.08153  0.43357  0.06157  1.0000
  H   H27       1.0  0.67487  0.78136  0.81184  1.0000
  H   H28       1.0  0.32513  0.21864  0.18816  1.0000
  H   H29       1.0  0.63181  0.83944  0.92441  1.0000
  H   H30       1.0  0.36820  0.16056  0.07559  1.0000
  H   H31       1.0  0.51271  0.65417  0.23764  1.0000
  H   H32       1.0  0.48728  0.34583  0.76236  1.0000
  H   H33       1.0  0.59018  0.77420  0.12223  1.0000
  H   H34       1.0  0.40981  0.22580  0.87777  1.0000
  H   H35       1.0  0.67924  0.63566  0.21745  1.0000
  H   H36       1.0  0.32076  0.36434  0.78256  1.0000
  H   H37       1.0  0.82360  0.49575  0.80530  1.0000
  H   H38       1.0  0.17641  0.50425  0.19470  1.0000
  H   H39       1.0  0.67026  0.58217  0.77715  1.0000
  H   H40       1.0  0.32975  0.41783  0.22285  1.0000
  H   H41       1.0  0.70316  0.40495  0.84843  1.0000
  H   H42       1.0  0.29685  0.59504  0.15157  1.0000
  C   C1        1.0  0.10969  0.12733  0.89259  1.0000
  C   C2        1.0  0.89031  0.87267  0.10741  1.0000
  C   C3        1.0  0.15661  0.12108  0.77551  1.0000
  C   C4        1.0  0.84339  0.87892  0.22449  1.0000
  C   C5        1.0  0.09743  0.10044  0.70835  1.0000
  C   C6        1.0  0.90257  0.89956  0.29165  1.0000
  C   C7        1.0  0.18818  0.10378  0.60491  1.0000
  C   C8        1.0  0.81182  0.89622  0.39509  1.0000
  C   C9        1.0  0.17764  0.08296  0.50440  1.0000
  C   C10       1.0  0.82236  0.91704  0.49560  1.0000
  C   C11       1.0  0.96825  0.07262  0.74157  1.0000
  C   C12       1.0  0.03175  0.92738  0.25843  1.0000
  C   C13       1.0  0.96376  0.92664  0.79586  1.0000
  C   C14       1.0  0.03624  0.07336  0.20414  1.0000
  C   C15       1.0  0.06990  0.82373  0.82142  1.0000
  C   C16       1.0  0.93010  0.17627  0.17857  1.0000
  C   C17       1.0  0.05464  0.69251  0.87298  1.0000
  C   C18       1.0  0.94536  0.30748  0.12703  1.0000
  C   C19       1.0  0.93425  0.66750  0.89805  1.0000
  C   C20       1.0  0.06575  0.33251  0.10195  1.0000
  C   C21       1.0  0.83158  0.77460  0.87105  1.0000
  C   C22       1.0  0.16842  0.22539  0.12895  1.0000
  C   C23       1.0  0.69730  0.75928  0.89432  1.0000
  C   C24       1.0  0.30271  0.24072  0.10569  1.0000
  C   C25       1.0  0.60134  0.66724  0.17264  1.0000
  C   C26       1.0  0.39866  0.33276  0.82736  1.0000
  C   C27       1.0  0.62740  0.59177  0.09650  1.0000
  C   C28       1.0  0.37260  0.40823  0.90350  1.0000
  C   C29       1.0  0.66975  0.62789  0.97756  1.0000
  C   C30       1.0  0.33025  0.37210  0.02244  1.0000
  C   C31       1.0  0.67934  0.51482  0.95319  1.0000
  C   C32       1.0  0.32067  0.48518  0.04681  1.0000
  C   C33       1.0  0.72114  0.49828  0.84001  1.0000
  C   C34       1.0  0.27886  0.50172  0.15999  1.0000
  C   C35       1.0  0.51748  0.16749  0.35120  1.0000
  C   C36       1.0  0.48252  0.83251  0.64880  1.0000
  C   C37       1.0  0.60663  0.10595  0.68163  1.0000
  C   C38       1.0  0.39337  0.89405  0.31836  1.0000
  C   C39       1.0  0.64475  0.15503  0.98920  1.0000
  C   C40       1.0  0.35525  0.84497  0.01080  1.0000
  N   N1        1.0  0.29576  0.12598  0.60838  1.0000
  N   N2        1.0  0.70424  0.87402  0.39162  1.0000
  N   N3        1.0  0.27451  0.13629  0.71162  1.0000
  N   N4        1.0  0.72549  0.86371  0.28838  1.0000
  N   N5        1.0  0.84720  0.90153  0.82049  1.0000
  N   N6        1.0  0.15280  0.09847  0.17951  1.0000
  N   N7        1.0  0.61336  0.46473  0.13599  1.0000
  N   N8        1.0  0.38664  0.53526  0.86402  1.0000
  N   N9        1.0  0.64396  0.41596  0.05092  1.0000
  N   N10       1.0  0.35604  0.58403  0.94908  1.0000
  N   N11       1.0  0.55076  0.19539  0.25088  1.0000
  N   N12       1.0  0.44923  0.80461  0.74911  1.0000
  N   N13       1.0  0.55143  0.13318  0.61007  1.0000
  N   N14       1.0  0.44857  0.86681  0.38992  1.0000
  N   N15       1.0  0.66020  0.10995  0.91911  1.0000
  N   N16       1.0  0.33980  0.89005  0.08089  1.0000
