data_image0
_chemical_formula_structural       Cd2H42C46N6O22
_chemical_formula_sum              "Cd2 H42 C46 N6 O22"
_cell_length_a       10.4653
_cell_length_b       11.4286
_cell_length_c       12.491
_cell_angle_alpha    109.219
_cell_angle_beta     112.488
_cell_angle_gamma    102.373

_space_group_name_H-M_alt    "P 1"
_space_group_IT_number       1

loop_
  _space_group_symop_operation_xyz
  'x, y, z'

loop_
  _atom_site_type_symbol
  _atom_site_label
  _atom_site_symmetry_multiplicity
  _atom_site_fract_x
  _atom_site_fract_y
  _atom_site_fract_z
  _atom_site_occupancy
  Cd  Cd1       1.0  0.63926  0.94743  0.23667  1.0000
  Cd  Cd2       1.0  0.36073  0.05257  0.76332  1.0000
  H   H1        1.0  0.62556  0.34324  0.28336  1.0000
  H   H2        1.0  0.37444  0.65677  0.71663  1.0000
  H   H3        1.0  0.66583  0.44230  0.44511  1.0000
  H   H4        1.0  0.33416  0.55770  0.55488  1.0000
  H   H5        1.0  0.23391  0.72344  0.11509  1.0000
  H   H6        1.0  0.76610  0.27655  0.88490  1.0000
  H   H7        1.0  0.97276  0.21729  0.21472  1.0000
  H   H8        1.0  0.02723  0.78271  0.78530  1.0000
  H   H9        1.0  0.18632  0.93681  0.24627  1.0000
  H   H10       1.0  0.81370  0.06320  0.75374  1.0000
  H   H11       1.0  0.92201  0.58969  0.60892  1.0000
  H   H12       1.0  0.07799  0.41032  0.39108  1.0000
  H   H13       1.0  0.91811  0.68618  0.52098  1.0000
  H   H14       1.0  0.08189  0.31383  0.47902  1.0000
  H   H15       1.0  0.82073  0.27383  0.32862  1.0000
  H   H16       1.0  0.17927  0.72617  0.67138  1.0000
  H   H17       1.0  0.86126  0.34293  0.49442  1.0000
  H   H18       1.0  0.13875  0.65708  0.50558  1.0000
  H   H19       1.0  0.39367  0.28436  0.21566  1.0000
  H   H20       1.0  0.60633  0.71565  0.78435  1.0000
  H   H21       1.0  0.12218  0.23928  0.00236  1.0000
  H   H22       1.0  0.87780  0.76071  0.99765  1.0000
  H   H23       1.0  0.66073  0.67378  0.51042  1.0000
  H   H24       1.0  0.33926  0.32621  0.48957  1.0000
  H   H25       1.0  0.09003  0.31476  0.83259  1.0000
  H   H26       1.0  0.90998  0.68521  0.16741  1.0000
  H   H27       1.0  0.60350  0.44624  0.13079  1.0000
  H   H28       1.0  0.39650  0.55376  0.86920  1.0000
  H   H29       1.0  0.57991  0.64238  0.08582  1.0000
  H   H30       1.0  0.42009  0.35763  0.91418  1.0000
  H   H31       1.0  0.63018  0.85681  0.44838  1.0000
  H   H32       1.0  0.36980  0.14318  0.55162  1.0000
  H   H33       1.0  0.51367  0.84930  0.94926  1.0000
  H   H34       1.0  0.48632  0.15070  0.05073  1.0000
  H   H35       1.0  0.38620  0.77504  0.96983  1.0000
  H   H36       1.0  0.61379  0.22495  0.03016  1.0000
  H   H37       1.0  0.88808  0.06823  0.53558  1.0000
  H   H38       1.0  0.11193  0.93179  0.46440  1.0000
  H   H39       1.0  0.76802  0.12819  0.53075  1.0000
  H   H40       1.0  0.23199  0.87182  0.46925  1.0000
  H   H41       1.0  0.11960  0.50665  0.66270  1.0000
  H   H42       1.0  0.88040  0.49335  0.33730  1.0000
  C   C1        1.0  0.68558  0.44490  0.36551  1.0000
  C   C2        1.0  0.31442  0.55510  0.63449  1.0000
  C   C3        1.0  0.16075  0.52436  0.96269  1.0000
  C   C4        1.0  0.83927  0.47563  0.03731  1.0000
  C   C5        1.0  0.06749  0.06944  0.23432  1.0000
  C   C6        1.0  0.93253  0.93056  0.76570  1.0000
  C   C7        1.0  0.19462  0.43725  0.15427  1.0000
  C   C8        1.0  0.80537  0.56275  0.84573  1.0000
  C   C9        1.0  0.20796  0.61707  0.08901  1.0000
  C   C10       1.0  0.79204  0.38292  0.91098  1.0000
  C   C11       1.0  0.06677  0.18733  0.22295  1.0000
  C   C12       1.0  0.93323  0.81268  0.77708  1.0000
  C   C13       1.0  0.29873  0.10207  0.22406  1.0000
  C   C14       1.0  0.70127  0.89794  0.77595  1.0000
  C   C15       1.0  0.22383  0.57438  0.18452  1.0000
  C   C16       1.0  0.77618  0.42563  0.81548  1.0000
  C   C17       1.0  0.18412  0.02755  0.23616  1.0000
  C   C18       1.0  0.81590  0.97246  0.76387  1.0000
  C   C19       1.0  0.94661  0.60363  0.53505  1.0000
  C   C20       1.0  0.05339  0.39638  0.46495  1.0000
  C   C21       1.0  0.42297  0.05753  0.22231  1.0000
  C   C22       1.0  0.57703  0.94248  0.77769  1.0000
  C   C23       1.0  0.88871  0.36279  0.42403  1.0000
  C   C24       1.0  0.11129  0.63722  0.57597  1.0000
  C   C25       1.0  0.30258  0.22391  0.22065  1.0000
  C   C26       1.0  0.69741  0.77610  0.77935  1.0000
  C   C27       1.0  0.18900  0.26648  0.22484  1.0000
  C   C28       1.0  0.81099  0.73352  0.77517  1.0000
  C   C29       1.0  0.94411  0.99712  0.25221  1.0000
  C   C30       1.0  0.05590  0.00288  0.74781  1.0000
  C   C31       1.0  0.14806  0.34525  0.02682  1.0000
  C   C32       1.0  0.85193  0.65474  0.97318  1.0000
  C   C33       1.0  0.14108  0.56728  0.85814  1.0000
  C   C34       1.0  0.85892  0.43270  0.14185  1.0000
  C   C35       1.0  0.64286  0.66194  0.41495  1.0000
  C   C36       1.0  0.35714  0.33806  0.58505  1.0000
  C   C37       1.0  0.64197  0.54771  0.32692  1.0000
  C   C38       1.0  0.35803  0.45229  0.67307  1.0000
  C   C39       1.0  0.12986  0.38789  0.93218  1.0000
  C   C40       1.0  0.87014  0.61210  0.06782  1.0000
  C   C41       1.0  0.61178  0.53652  0.20393  1.0000
  C   C42       1.0  0.38822  0.46348  0.79607  1.0000
  C   C43       1.0  0.59677  0.64344  0.17792  1.0000
  C   C44       1.0  0.40322  0.35656  0.82207  1.0000
  C   C45       1.0  0.62549  0.76424  0.38108  1.0000
  C   C46       1.0  0.37450  0.23575  0.61891  1.0000
  N   N1        1.0  0.84962  0.47707  0.41059  1.0000
  N   N2        1.0  0.15038  0.52293  0.58941  1.0000
  N   N3        1.0  0.60710  0.75645  0.26614  1.0000
  N   N4        1.0  0.39288  0.24355  0.73385  1.0000
  N   N5        1.0  0.26509  0.67381  0.31279  1.0000
  N   N6        1.0  0.73491  0.32619  0.68721  1.0000
  O   O1        1.0  0.20386  0.39828  0.24726  1.0000
  O   O2        1.0  0.79612  0.60171  0.75275  1.0000
  O   O3        1.0  0.49719  0.80843  0.00388  1.0000
  O   O4        1.0  0.50280  0.19157  0.99611  1.0000
  O   O5        1.0  0.06520  0.47133  0.74103  1.0000
  O   O6        1.0  0.93481  0.52865  0.25896  1.0000
  O   O7        1.0  0.43552  0.96385  0.25471  1.0000
  O   O8        1.0  0.56448  0.03615  0.74529  1.0000
  O   O9        1.0  0.51248  0.11489  0.19177  1.0000
  O   O10       1.0  0.48751  0.88511  0.80822  1.0000
  O   O11       1.0  0.96324  0.92359  0.30774  1.0000
  O   O12       1.0  0.03680  0.07647  0.69233  1.0000
  O   O13       1.0  0.19958  0.69003  0.88767  1.0000
  O   O14       1.0  0.80043  0.30995  0.11232  1.0000
  O   O15       1.0  0.82605  0.02328  0.20851  1.0000
  O   O16       1.0  0.17393  0.97667  0.79146  1.0000
  O   O17       1.0  0.80660  0.08325  0.47562  1.0000
  O   O18       1.0  0.19340  0.91677  0.52437  1.0000
  O   O19       1.0  0.32337  0.65397  0.40904  1.0000
  O   O20       1.0  0.67662  0.34602  0.59095  1.0000
  O   O21       1.0  0.24080  0.77785  0.32049  1.0000
  O   O22       1.0  0.75919  0.22214  0.67949  1.0000
