data_image0
_chemical_formula_structural       Zn2H26C36N4O12F4
_chemical_formula_sum              "Zn2 H26 C36 N4 O12 F4"
_cell_length_a       7.63304
_cell_length_b       8.42172
_cell_length_c       15.3404
_cell_angle_alpha    96.2791
_cell_angle_beta     95.2531
_cell_angle_gamma    107.53

_space_group_name_H-M_alt    "P 1"
_space_group_IT_number       1

loop_
  _space_group_symop_operation_xyz
  'x, y, z'

loop_
  _atom_site_type_symbol
  _atom_site_label
  _atom_site_symmetry_multiplicity
  _atom_site_fract_x
  _atom_site_fract_y
  _atom_site_fract_z
  _atom_site_occupancy
  Zn  Zn1       1.0  0.91713  0.68729  0.67159  1.0000
  Zn  Zn2       1.0  0.08286  0.31270  0.32841  1.0000
  H   H1        1.0  0.56262  0.66526  0.73136  1.0000
  H   H2        1.0  0.43736  0.33474  0.26864  1.0000
  H   H3        1.0  0.36951  0.84756  0.76569  1.0000
  H   H4        1.0  0.63049  0.15244  0.23431  1.0000
  H   H5        1.0  0.80790  0.26529  0.70244  1.0000
  H   H6        1.0  0.19209  0.73471  0.29755  1.0000
  H   H7        1.0  0.98637  0.06218  0.67180  1.0000
  H   H8        1.0  0.01362  0.93781  0.32820  1.0000
  H   H9        1.0  0.12526  0.18599  0.87466  1.0000
  H   H10       1.0  0.87475  0.81400  0.12535  1.0000
  H   H11       1.0  0.21050  0.33489  0.80204  1.0000
  H   H12       1.0  0.78950  0.66512  0.19797  1.0000
  H   H13       1.0  0.53549  0.72275  0.52333  1.0000
  H   H14       1.0  0.46452  0.27726  0.47666  1.0000
  H   H15       1.0  0.21297  0.06323  0.53292  1.0000
  H   H16       1.0  0.78703  0.93678  0.46707  1.0000
  H   H17       1.0  0.81603  0.36279  0.85511  1.0000
  H   H18       1.0  0.18397  0.63719  0.14488  1.0000
  H   H19       1.0  0.21245  0.79427  0.01352  1.0000
  H   H20       1.0  0.78754  0.20572  0.98648  1.0000
  H   H21       1.0  0.30164  0.03042  0.82917  1.0000
  H   H22       1.0  0.69834  0.96957  0.17083  1.0000
  H   H23       1.0  0.63566  0.42062  0.63030  1.0000
  H   H24       1.0  0.36432  0.57937  0.36970  1.0000
  H   H25       1.0  0.73541  0.45546  0.53886  1.0000
  H   H26       1.0  0.26459  0.54452  0.46114  1.0000
  C   C1        1.0  0.61245  0.79909  0.72659  1.0000
  C   C2        1.0  0.38754  0.20090  0.27340  1.0000
  C   C3        1.0  0.50518  0.90231  0.74533  1.0000
  C   C4        1.0  0.49481  0.09769  0.25467  1.0000
  C   C5        1.0  0.57348  0.07255  0.73606  1.0000
  C   C6        1.0  0.42652  0.92746  0.26393  1.0000
  C   C7        1.0  0.74897  0.13277  0.70905  1.0000
  C   C8        1.0  0.25101  0.86723  0.29095  1.0000
  C   C9        1.0  0.84905  0.02182  0.69288  1.0000
  C   C10       1.0  0.15094  0.97817  0.30712  1.0000
  C   C11       1.0  0.46985  0.19529  0.75687  1.0000
  C   C12       1.0  0.53015  0.80470  0.24314  1.0000
  C   C13       1.0  0.25063  0.26346  0.85161  1.0000
  C   C14       1.0  0.74938  0.73654  0.14841  1.0000
  C   C15       1.0  0.37610  0.38495  0.92865  1.0000
  C   C16       1.0  0.62390  0.61505  0.07136  1.0000
  C   C17       1.0  0.44984  0.55624  0.92416  1.0000
  C   C18       1.0  0.55016  0.44377  0.07585  1.0000
  C   C19       1.0  0.42912  0.33159  0.00693  1.0000
  C   C20       1.0  0.57088  0.66842  0.99308  1.0000
  C   C21       1.0  0.20928  0.75331  0.56461  1.0000
  C   C22       1.0  0.79075  0.24669  0.43539  1.0000
  C   C23       1.0  0.35838  0.88009  0.52988  1.0000
  C   C24       1.0  0.64162  0.11993  0.47011  1.0000
  C   C25       1.0  0.51969  0.84338  0.51171  1.0000
  C   C26       1.0  0.48031  0.15663  0.48829  1.0000
  C   C27       1.0  0.33935  0.03702  0.51838  1.0000
  C   C28       1.0  0.66065  0.96299  0.48161  1.0000
  C   C29       1.0  0.03702  0.67468  0.84637  1.0000
  C   C30       1.0  0.96299  0.32533  0.15363  1.0000
  C   C31       1.0  0.01634  0.58618  0.92646  1.0000
  C   C32       1.0  0.98365  0.41381  0.07353  1.0000
  C   C33       1.0  0.89636  0.42079  0.91904  1.0000
  C   C34       1.0  0.10364  0.57921  0.08096  1.0000
  C   C35       1.0  0.11969  0.66564  0.00831  1.0000
  C   C36       1.0  0.88030  0.33435  0.99168  1.0000
  N   N1        1.0  0.78165  0.85786  0.70142  1.0000
  N   N2        1.0  0.21835  0.14214  0.29857  1.0000
  N   N3        1.0  0.34079  0.14908  0.81181  1.0000
  N   N4        1.0  0.65923  0.85092  0.18819  1.0000
  O   O1        1.0  0.50951  0.33320  0.72795  1.0000
  O   O2        1.0  0.49050  0.66683  0.27205  1.0000
  O   O3        1.0  0.10517  0.81725  0.60957  1.0000
  O   O4        1.0  0.89484  0.18274  0.39043  1.0000
  O   O5        1.0  0.19410  0.59966  0.55093  1.0000
  O   O6        1.0  0.80594  0.40036  0.44908  1.0000
  O   O7        1.0  0.95765  0.57775  0.77240  1.0000
  O   O8        1.0  0.04239  0.42226  0.22760  1.0000
  O   O9        1.0  0.12454  0.82836  0.85304  1.0000
  O   O10       1.0  0.87547  0.17164  0.14697  1.0000
  O   O11       1.0  0.70551  0.50699  0.59684  1.0000
  O   O12       1.0  0.29448  0.49299  0.40316  1.0000
  F   F1        1.0  0.39929  0.61746  0.85121  1.0000
  F   F2        1.0  0.60069  0.38255  0.14881  1.0000
  F   F3        1.0  0.36415  0.16634  0.01620  1.0000
  F   F4        1.0  0.63587  0.83365  0.98380  1.0000
