data_image0
_chemical_formula_structural       Cu5H34C20S4Br4N4
_chemical_formula_sum              "Cu5 H34 C20 S4 Br4 N4"
_cell_length_a       7.63611
_cell_length_b       10.0149
_cell_length_c       11.0955
_cell_angle_alpha    80.5886
_cell_angle_beta     77.6634
_cell_angle_gamma    84.0772

_space_group_name_H-M_alt    "P 1"
_space_group_IT_number       1

loop_
  _space_group_symop_operation_xyz
  'x, y, z'

loop_
  _atom_site_type_symbol
  _atom_site_label
  _atom_site_symmetry_multiplicity
  _atom_site_fract_x
  _atom_site_fract_y
  _atom_site_fract_z
  _atom_site_occupancy
  Cu  Cu1       1.0  0.49999  0.50000  0.00000  1.0000
  Cu  Cu2       1.0  0.93869  0.39859  0.95493  1.0000
  Cu  Cu3       1.0  0.06128  0.60142  0.04506  1.0000
  Cu  Cu4       1.0  0.30441  0.31397  0.85749  1.0000
  Cu  Cu5       1.0  0.69560  0.68603  0.14251  1.0000
  H   H1        1.0  0.60561  0.46111  0.40037  1.0000
  H   H2        1.0  0.39439  0.53890  0.59963  1.0000
  H   H3        1.0  0.72917  0.36509  0.59235  1.0000
  H   H4        1.0  0.27084  0.63491  0.40765  1.0000
  H   H5        1.0  0.88999  0.40614  0.45381  1.0000
  H   H6        1.0  0.11002  0.59386  0.54618  1.0000
  H   H7        1.0  0.97983  0.18270  0.56508  1.0000
  H   H8        1.0  0.02018  0.81729  0.43491  1.0000
  H   H9        1.0  0.77375  0.11877  0.56274  1.0000
  H   H10       1.0  0.22625  0.88123  0.43725  1.0000
  H   H11       1.0  0.01393  0.05262  0.38355  1.0000
  H   H12       1.0  0.98606  0.94738  0.61645  1.0000
  H   H13       1.0  0.05686  0.22572  0.33513  1.0000
  H   H14       1.0  0.94314  0.77428  0.66486  1.0000
  H   H15       1.0  0.88296  0.17623  0.20015  1.0000
  H   H16       1.0  0.11702  0.82377  0.79985  1.0000
  H   H17       1.0  0.48964  0.17882  0.52824  1.0000
  H   H18       1.0  0.51038  0.82117  0.47176  1.0000
  H   H19       1.0  0.36374  0.30031  0.43819  1.0000
  H   H20       1.0  0.63626  0.69969  0.56181  1.0000
  H   H21       1.0  0.40982  0.33528  0.57978  1.0000
  H   H22       1.0  0.59019  0.66472  0.42022  1.0000
  H   H23       1.0  0.58618  0.06703  0.27266  1.0000
  H   H24       1.0  0.41381  0.93297  0.72733  1.0000
  H   H25       1.0  0.63312  0.02804  0.42577  1.0000
  H   H26       1.0  0.36687  0.97196  0.57423  1.0000
  H   H27       1.0  0.77601  0.95765  0.30010  1.0000
  H   H28       1.0  0.22398  0.04235  0.69990  1.0000
  H   H29       1.0  0.88998  0.08587  0.83608  1.0000
  H   H30       1.0  0.11002  0.91415  0.16393  1.0000
  H   H31       1.0  0.79117  0.92636  0.84630  1.0000
  H   H32       1.0  0.20886  0.07365  0.15370  1.0000
  H   H33       1.0  0.78701  0.99669  0.98395  1.0000
  H   H34       1.0  0.21301  0.00331  0.01605  1.0000
  C   C1        1.0  0.64204  0.36541  0.20400  1.0000
  C   C2        1.0  0.35797  0.63458  0.79602  1.0000
  C   C3        1.0  0.63790  0.35204  0.42537  1.0000
  C   C4        1.0  0.36211  0.64795  0.57464  1.0000
  C   C5        1.0  0.78694  0.33517  0.50027  1.0000
  C   C6        1.0  0.21306  0.66484  0.49973  1.0000
  C   C7        1.0  0.87314  0.19079  0.51112  1.0000
  C   C8        1.0  0.12687  0.80921  0.48887  1.0000
  C   C9        1.0  0.95126  0.15653  0.38043  1.0000
  C   C10       1.0  0.04874  0.84346  0.61956  1.0000
  C   C11       1.0  0.81126  0.16987  0.29779  1.0000
  C   C12       1.0  0.18873  0.83013  0.70221  1.0000
  C   C13       1.0  0.46562  0.28725  0.49639  1.0000
  C   C14       1.0  0.53439  0.71274  0.50361  1.0000
  C   C15       1.0  0.69374  0.04916  0.32630  1.0000
  C   C16       1.0  0.30625  0.95084  0.67370  1.0000
  C   C17       1.0  0.61082  0.09669  0.87370  1.0000
  C   C18       1.0  0.38916  0.90332  0.12631  1.0000
  C   C19       1.0  0.77958  0.02199  0.88494  1.0000
  C   C20       1.0  0.22044  0.97802  0.11507  1.0000
  S   S1        1.0  0.68218  0.30668  0.06133  1.0000
  S   S2        1.0  0.31780  0.69332  0.93867  1.0000
  S   S3        1.0  0.50523  0.51470  0.20490  1.0000
  S   S4        1.0  0.49477  0.48530  0.79510  1.0000
  Br  Br1       1.0  0.16730  0.34956  0.08773  1.0000
  Br  Br2       1.0  0.83268  0.65043  0.91226  1.0000
  Br  Br3       1.0  0.05264  0.32512  0.75301  1.0000
  Br  Br4       1.0  0.94738  0.67488  0.24698  1.0000
  N   N1        1.0  0.70204  0.30113  0.30380  1.0000
  N   N2        1.0  0.29794  0.69889  0.69618  1.0000
  N   N3        1.0  0.47622  0.16029  0.86458  1.0000
  N   N4        1.0  0.52381  0.83970  0.13543  1.0000
