data_image0
_chemical_formula_structural       Cd2H16C20N10O16
_chemical_formula_sum              "Cd2 H16 C20 N10 O16"
_cell_length_a       4.81452
_cell_length_b       10.4861
_cell_length_c       13.5024
_cell_angle_alpha    103.056
_cell_angle_beta     97.3999
_cell_angle_gamma    92.435

_space_group_name_H-M_alt    "P 1"
_space_group_IT_number       1

loop_
  _space_group_symop_operation_xyz
  'x, y, z'

loop_
  _atom_site_type_symbol
  _atom_site_label
  _atom_site_symmetry_multiplicity
  _atom_site_fract_x
  _atom_site_fract_y
  _atom_site_fract_z
  _atom_site_occupancy
  Cd  Cd1       1.0  0.21418  0.14399  0.57815  1.0000
  Cd  Cd2       1.0  0.78582  0.85601  0.42185  1.0000
  H   H1        1.0  0.50096  0.21918  0.82670  1.0000
  H   H2        1.0  0.49904  0.78082  0.17330  1.0000
  H   H3        1.0  0.58257  0.36084  0.00439  1.0000
  H   H4        1.0  0.41743  0.63916  0.99561  1.0000
  H   H5        1.0  0.27559  0.43516  0.04820  1.0000
  H   H6        1.0  0.72441  0.56484  0.95180  1.0000
  H   H7        1.0  0.74438  0.32140  0.13775  1.0000
  H   H8        1.0  0.25562  0.67860  0.86225  1.0000
  H   H9        1.0  0.32883  0.02836  0.16354  1.0000
  H   H10       1.0  0.67117  0.97164  0.83646  1.0000
  H   H11       1.0  0.81068  0.39889  0.70691  1.0000
  H   H12       1.0  0.18932  0.60111  0.29309  1.0000
  H   H13       1.0  0.67177  0.28332  0.50757  1.0000
  H   H14       1.0  0.32823  0.71668  0.49243  1.0000
  H   H15       1.0  0.45865  0.38804  0.55298  1.0000
  H   H16       1.0  0.54135  0.61196  0.44702  1.0000
  C   C1        1.0  0.33590  0.28418  0.81685  1.0000
  C   C2        1.0  0.66410  0.71582  0.18315  1.0000
  C   C3        1.0  0.42728  0.43170  0.99368  1.0000
  C   C4        1.0  0.57272  0.56830  0.00632  1.0000
  C   C5        1.0  0.15356  0.10821  0.30052  1.0000
  C   C6        1.0  0.84644  0.89179  0.69948  1.0000
  C   C7        1.0  0.97283  0.20242  0.35144  1.0000
  C   C8        1.0  0.02717  0.79757  0.64856  1.0000
  C   C9        1.0  0.83432  0.28049  0.28612  1.0000
  C   C10       1.0  0.16568  0.71951  0.71388  1.0000
  C   C11       1.0  0.85529  0.26090  0.18249  1.0000
  C   C12       1.0  0.14471  0.73910  0.81751  1.0000
  C   C13       1.0  0.03463  0.17146  0.13920  1.0000
  C   C14       1.0  0.96536  0.82854  0.86080  1.0000
  C   C15       1.0  0.18694  0.09748  0.19851  1.0000
  C   C16       1.0  0.81306  0.90252  0.80149  1.0000
  C   C17       1.0  0.30835  0.01575  0.35321  1.0000
  C   C18       1.0  0.69165  0.98425  0.64679  1.0000
  C   C19       1.0  0.98476  0.37747  0.75879  1.0000
  C   C20       1.0  0.01524  0.62253  0.24121  1.0000
  N   N1        1.0  0.05641  0.44587  0.85495  1.0000
  N   N2        1.0  0.94359  0.55413  0.14505  1.0000
  N   N3        1.0  0.15184  0.27660  0.73212  1.0000
  N   N4        1.0  0.84816  0.72340  0.26788  1.0000
  N   N5        1.0  0.28025  0.38522  0.89018  1.0000
  N   N6        1.0  0.71975  0.61478  0.10982  1.0000
  N   N7        1.0  0.66934  0.38770  0.32543  1.0000
  N   N8        1.0  0.33066  0.61230  0.67457  1.0000
  N   N9        1.0  0.07093  0.15942  0.03315  1.0000
  N   N10       1.0  0.92907  0.84058  0.96685  1.0000
  O   O1        1.0  0.52422  0.96987  0.31831  1.0000
  O   O2        1.0  0.47578  0.03013  0.68169  1.0000
  O   O3        1.0  0.21781  0.98263  0.43059  1.0000
  O   O4        1.0  0.78219  0.01737  0.56941  1.0000
  O   O5        1.0  0.93381  0.21576  0.44497  1.0000
  O   O6        1.0  0.06619  0.78424  0.55503  1.0000
  O   O7        1.0  0.72321  0.44667  0.41821  1.0000
  O   O8        1.0  0.27679  0.55333  0.58179  1.0000
  O   O9        1.0  0.48588  0.42126  0.26428  1.0000
  O   O10       1.0  0.51412  0.57874  0.73571  1.0000
  O   O11       1.0  0.90455  0.21296  0.97877  1.0000
  O   O12       1.0  0.09545  0.78704  0.02124  1.0000
  O   O13       1.0  0.26823  0.09725  0.00041  1.0000
  O   O14       1.0  0.73177  0.90275  0.99959  1.0000
  O   O15       1.0  0.53491  0.30367  0.55762  1.0000
  O   O16       1.0  0.46509  0.69633  0.44238  1.0000
