data_image0
_chemical_formula_structural       Zn3H42C66N12O16
_chemical_formula_sum              "Zn3 H42 C66 N12 O16"
_cell_length_a       10.3355
_cell_length_b       10.563
_cell_length_c       14.9663
_cell_angle_alpha    99.8742
_cell_angle_beta     99.0253
_cell_angle_gamma    112.368

_space_group_name_H-M_alt    "P 1"
_space_group_IT_number       1

loop_
  _space_group_symop_operation_xyz
  'x, y, z'

loop_
  _atom_site_type_symbol
  _atom_site_label
  _atom_site_symmetry_multiplicity
  _atom_site_fract_x
  _atom_site_fract_y
  _atom_site_fract_z
  _atom_site_occupancy
  Zn  Zn1       1.0  0.61310  0.41264  0.03615  1.0000
  Zn  Zn2       1.0  0.38690  0.58736  0.96385  1.0000
  Zn  Zn3       1.0  0.50000  0.50000  0.50000  1.0000
  H   H1        1.0  0.58971  0.89133  0.07454  1.0000
  H   H2        1.0  0.41029  0.10867  0.92546  1.0000
  H   H3        1.0  0.15272  0.25173  0.76771  1.0000
  H   H4        1.0  0.84728  0.74827  0.23229  1.0000
  H   H5        1.0  0.88197  0.26960  0.81753  1.0000
  H   H6        1.0  0.11803  0.73041  0.18247  1.0000
  H   H7        1.0  0.56304  0.42320  0.69701  1.0000
  H   H8        1.0  0.43696  0.57680  0.30299  1.0000
  H   H9        1.0  0.42923  0.02610  0.78849  1.0000
  H   H10       1.0  0.57077  0.97390  0.21151  1.0000
  H   H11       1.0  0.60431  0.30661  0.20406  1.0000
  H   H12       1.0  0.39569  0.69339  0.79594  1.0000
  H   H13       1.0  0.11787  0.49218  0.20267  1.0000
  H   H14       1.0  0.88213  0.50782  0.79733  1.0000
  H   H15       1.0  0.93088  0.48767  0.07452  1.0000
  H   H16       1.0  0.06912  0.51233  0.92548  1.0000
  H   H17       1.0  0.43835  0.82812  0.67430  1.0000
  H   H18       1.0  0.56165  0.17188  0.32570  1.0000
  H   H19       1.0  0.41604  0.31550  0.80690  1.0000
  H   H20       1.0  0.58396  0.68450  0.19310  1.0000
  H   H21       1.0  0.88655  0.06968  0.70062  1.0000
  H   H22       1.0  0.11346  0.93032  0.29938  1.0000
  H   H23       1.0  0.06162  0.11120  0.23642  1.0000
  H   H24       1.0  0.93837  0.88879  0.76358  1.0000
  H   H25       1.0  0.97911  0.08036  0.39034  1.0000
  H   H26       1.0  0.02089  0.91964  0.60966  1.0000
  H   H27       1.0  0.77680  0.30536  0.33855  1.0000
  H   H28       1.0  0.22321  0.69464  0.66145  1.0000
  H   H29       1.0  0.29199  0.25433  0.19912  1.0000
  H   H30       1.0  0.70801  0.74567  0.80088  1.0000
  H   H31       1.0  0.04075  0.29514  0.62157  1.0000
  H   H32       1.0  0.95925  0.70486  0.37843  1.0000
  H   H33       1.0  0.05359  0.24781  0.93455  1.0000
  H   H34       1.0  0.94641  0.75219  0.06545  1.0000
  H   H35       1.0  0.82312  0.09762  0.96873  1.0000
  H   H36       1.0  0.17688  0.90238  0.03127  1.0000
  H   H37       1.0  0.59986  0.98305  0.50150  1.0000
  H   H38       1.0  0.40014  0.01694  0.49850  1.0000
  H   H39       1.0  0.75840  0.89854  0.42230  1.0000
  H   H40       1.0  0.24160  0.10146  0.57770  1.0000
  H   H41       1.0  0.66415  0.24419  0.54567  1.0000
  H   H42       1.0  0.33586  0.75581  0.45433  1.0000
  C   C1        1.0  0.65766  0.15867  0.81303  1.0000
  C   C2        1.0  0.34234  0.84133  0.18697  1.0000
  C   C3        1.0  0.66284  0.93624  0.68305  1.0000
  C   C4        1.0  0.33716  0.06376  0.31695  1.0000
  C   C5        1.0  0.21789  0.29764  0.72131  1.0000
  C   C6        1.0  0.78211  0.70235  0.27869  1.0000
  C   C7        1.0  0.07517  0.40939  0.35996  1.0000
  C   C8        1.0  0.92483  0.59061  0.64004  1.0000
  C   C9        1.0  0.78545  0.17185  0.78604  1.0000
  C   C10       1.0  0.21456  0.82815  0.21397  1.0000
  C   C11       1.0  0.96370  0.39852  0.28271  1.0000
  C   C12       1.0  0.03630  0.60148  0.71729  1.0000
  C   C13       1.0  0.32243  0.34111  0.03994  1.0000
  C   C14       1.0  0.67757  0.65889  0.96007  1.0000
  C   C15       1.0  0.44666  0.39172  0.68289  1.0000
  C   C16       1.0  0.55334  0.60827  0.31711  1.0000
  C   C17       1.0  0.53079  0.03521  0.77176  1.0000
  C   C18       1.0  0.46921  0.96479  0.22824  1.0000
  C   C19       1.0  0.92867  0.09473  0.10447  1.0000
  C   C20       1.0  0.07133  0.90526  0.89553  1.0000
  C   C21       1.0  0.93004  0.25109  0.45263  1.0000
  C   C22       1.0  0.06996  0.74891  0.54737  1.0000
  C   C23       1.0  0.19430  0.40275  0.49200  1.0000
  C   C24       1.0  0.80570  0.59725  0.50800  1.0000
  C   C25       1.0  0.71914  0.34576  0.20666  1.0000
  C   C26       1.0  0.28086  0.65424  0.79334  1.0000
  C   C27       1.0  0.00558  0.45025  0.20636  1.0000
  C   C28       1.0  0.99442  0.54975  0.79364  1.0000
  C   C29       1.0  0.90208  0.44882  0.13473  1.0000
  C   C30       1.0  0.09792  0.55118  0.86527  1.0000
  C   C31       1.0  0.53458  0.92535  0.70748  1.0000
  C   C32       1.0  0.46542  0.07465  0.29252  1.0000
  C   C33       1.0  0.36559  0.33359  0.74378  1.0000
  C   C34       1.0  0.63441  0.66641  0.25622  1.0000
  C   C35       1.0  0.66344  0.27531  0.88766  1.0000
  C   C36       1.0  0.33656  0.72469  0.11234  1.0000
  C   C37       1.0  0.24335  0.37541  0.58081  1.0000
  C   C38       1.0  0.75665  0.62459  0.41919  1.0000
  C   C39       1.0  0.78807  0.06181  0.72170  1.0000
  C   C40       1.0  0.21193  0.93819  0.27830  1.0000
  C   C41       1.0  0.18600  0.25882  0.06422  1.0000
  C   C42       1.0  0.81400  0.74118  0.93578  1.0000
  C   C43       1.0  0.06052  0.14034  0.16997  1.0000
  C   C44       1.0  0.93948  0.85966  0.83003  1.0000
  C   C45       1.0  0.90438  0.10933  0.42352  1.0000
  C   C46       1.0  0.09562  0.89067  0.57648  1.0000
  C   C47       1.0  0.66749  0.81454  0.61560  1.0000
  C   C48       1.0  0.33252  0.18546  0.38440  1.0000
  C   C49       1.0  0.81634  0.34410  0.28116  1.0000
  C   C50       1.0  0.18366  0.65589  0.71884  1.0000
  C   C51       1.0  0.18882  0.22071  0.14957  1.0000
  C   C52       1.0  0.81119  0.77929  0.85043  1.0000
  C   C53       1.0  0.15526  0.31981  0.63931  1.0000
  C   C54       1.0  0.84474  0.68019  0.36069  1.0000
  C   C55       1.0  0.05368  0.21678  0.00021  1.0000
  C   C56       1.0  0.94633  0.78322  0.99979  1.0000
  C   C57       1.0  0.79441  0.00225  0.12683  1.0000
  C   C58       1.0  0.20558  0.99775  0.87317  1.0000
  C   C59       1.0  0.92552  0.13386  0.01953  1.0000
  C   C60       1.0  0.07448  0.86614  0.98047  1.0000
  C   C61       1.0  0.69453  0.05773  0.48572  1.0000
  C   C62       1.0  0.30547  0.94227  0.51428  1.0000
  C   C63       1.0  0.78276  0.01057  0.44154  1.0000
  C   C64       1.0  0.21724  0.98943  0.55846  1.0000
  C   C65       1.0  0.73052  0.20261  0.51122  1.0000
  C   C66       1.0  0.26949  0.79739  0.48878  1.0000
  N   N1        1.0  0.76075  0.39870  0.13506  1.0000
  N   N2        1.0  0.23925  0.60130  0.86494  1.0000
  N   N3        1.0  0.38699  0.41089  0.60308  1.0000
  N   N4        1.0  0.61301  0.58911  0.39692  1.0000
  N   N5        1.0  0.28755  0.47864  0.44881  1.0000
  N   N6        1.0  0.71245  0.52136  0.55119  1.0000
  N   N7        1.0  0.05794  0.35694  0.43817  1.0000
  N   N8        1.0  0.94206  0.64307  0.56183  1.0000
  N   N9        1.0  0.21512  0.48221  0.36684  1.0000
  N   N10       1.0  0.78488  0.51779  0.63316  1.0000
  N   N11       1.0  0.84799  0.29954  0.49537  1.0000
  N   N12       1.0  0.15201  0.70046  0.50463  1.0000
  O   O1        1.0  0.44163  0.35968  0.09234  1.0000
  O   O2        1.0  0.55837  0.64032  0.90766  1.0000
  O   O3        1.0  0.31399  0.38640  0.96594  1.0000
  O   O4        1.0  0.68601  0.61360  0.03407  1.0000
  O   O5        1.0  0.55019  0.25157  0.92322  1.0000
  O   O6        1.0  0.44981  0.74843  0.07678  1.0000
  O   O7        1.0  0.54776  0.70344  0.58444  1.0000
  O   O8        1.0  0.45225  0.29656  0.41556  1.0000
  O   O9        1.0  0.67493  0.96344  0.05905  1.0000
  O   O10       1.0  0.32507  0.03656  0.94095  1.0000
  O   O11       1.0  0.78607  0.83207  0.59595  1.0000
  O   O12       1.0  0.21393  0.16793  0.40404  1.0000
  O   O13       1.0  0.77273  0.39042  0.91718  1.0000
  O   O14       1.0  0.22727  0.60958  0.08282  1.0000
  O   O15       1.0  0.79380  0.96458  0.20034  1.0000
  O   O16       1.0  0.20620  0.03542  0.79966  1.0000
