data_image0
_chemical_formula_structural       Zn4H36C44N12O24
_chemical_formula_sum              "Zn4 H36 C44 N12 O24"
_cell_length_a       9.85055
_cell_length_b       9.88133
_cell_length_c       15.803
_cell_angle_alpha    103.57
_cell_angle_beta     90
_cell_angle_gamma    119.897

_space_group_name_H-M_alt    "P 1"
_space_group_IT_number       1

loop_
  _space_group_symop_operation_xyz
  'x, y, z'

loop_
  _atom_site_type_symbol
  _atom_site_label
  _atom_site_symmetry_multiplicity
  _atom_site_fract_x
  _atom_site_fract_y
  _atom_site_fract_z
  _atom_site_occupancy
  Zn  Zn1       1.0  0.21021  0.27182  0.78605  1.0000
  Zn  Zn2       1.0  0.93840  0.72816  0.71396  1.0000
  Zn  Zn3       1.0  0.78979  0.72818  0.21395  1.0000
  Zn  Zn4       1.0  0.06160  0.27184  0.28604  1.0000
  H   H1        1.0  0.17962  0.30648  0.63530  1.0000
  H   H2        1.0  0.87313  0.69351  0.86470  1.0000
  H   H3        1.0  0.82038  0.69352  0.36470  1.0000
  H   H4        1.0  0.12687  0.30649  0.13530  1.0000
  H   H5        1.0  0.23837  0.48825  0.68834  1.0000
  H   H6        1.0  0.75012  0.51174  0.81167  1.0000
  H   H7        1.0  0.76163  0.51175  0.31166  1.0000
  H   H8        1.0  0.24988  0.48826  0.18833  1.0000
  H   H9        1.0  0.20373  0.04085  0.84985  1.0000
  H   H10       1.0  0.16289  0.95913  0.65016  1.0000
  H   H11       1.0  0.79627  0.95915  0.15015  1.0000
  H   H12       1.0  0.83711  0.04087  0.34984  1.0000
  H   H13       1.0  0.07530  0.06596  0.89516  1.0000
  H   H14       1.0  0.00936  0.93403  0.60485  1.0000
  H   H15       1.0  0.92470  0.93404  0.10484  1.0000
  H   H16       1.0  0.99065  0.06597  0.39515  1.0000
  H   H17       1.0  0.77013  0.28660  0.76341  1.0000
  H   H18       1.0  0.48351  0.71338  0.73660  1.0000
  H   H19       1.0  0.22987  0.71340  0.23659  1.0000
  H   H20       1.0  0.51649  0.28662  0.26340  1.0000
  H   H21       1.0  0.01606  0.52194  0.40675  1.0000
  H   H22       1.0  0.49414  0.47807  0.09325  1.0000
  H   H23       1.0  0.98394  0.47806  0.59326  1.0000
  H   H24       1.0  0.50586  0.52193  0.90675  1.0000
  H   H25       1.0  0.18261  0.77778  0.52760  1.0000
  H   H26       1.0  0.40485  0.22223  0.97239  1.0000
  H   H27       1.0  0.81739  0.22222  0.47240  1.0000
  H   H28       1.0  0.59515  0.77777  0.02761  1.0000
  H   H29       1.0  0.57673  0.70433  0.48015  1.0000
  H   H30       1.0  0.87244  0.29570  0.01983  1.0000
  H   H31       1.0  0.42327  0.29567  0.51985  1.0000
  H   H32       1.0  0.12756  0.70429  0.98017  1.0000
  H   H33       1.0  0.39310  0.45065  0.36233  1.0000
  H   H34       1.0  0.94248  0.54938  0.13765  1.0000
  H   H35       1.0  0.60690  0.54935  0.63767  1.0000
  H   H36       1.0  0.05752  0.45062  0.86235  1.0000
  C   C1        1.0  0.53409  0.13093  0.68917  1.0000
  C   C2        1.0  0.40316  0.86906  0.81083  1.0000
  C   C3        1.0  0.46591  0.86907  0.31083  1.0000
  C   C4        1.0  0.59684  0.13093  0.18917  1.0000
  C   C5        1.0  0.69204  0.17946  0.71061  1.0000
  C   C6        1.0  0.51258  0.82053  0.78939  1.0000
  C   C7        1.0  0.30796  0.82054  0.28939  1.0000
  C   C8        1.0  0.48742  0.17947  0.21061  1.0000
  C   C9        1.0  0.74592  0.08357  0.66025  1.0000
  C   C10       1.0  0.66235  0.91642  0.83974  1.0000
  C   C11       1.0  0.25409  0.91643  0.33975  1.0000
  C   C12       1.0  0.33765  0.08358  0.16026  1.0000
  C   C13       1.0  0.49939  0.91043  0.58284  1.0000
  C   C14       1.0  0.58899  0.08959  0.91715  1.0000
  C   C15       1.0  0.50061  0.08958  0.41716  1.0000
  C   C16       1.0  0.41101  0.91041  0.08285  1.0000
  C   C17       1.0  0.46418  0.22778  0.73814  1.0000
  C   C18       1.0  0.23639  0.77222  0.76187  1.0000
  C   C19       1.0  0.53583  0.77222  0.26186  1.0000
  C   C20       1.0  0.76361  0.22778  0.23813  1.0000
  C   C21       1.0  0.91697  0.13005  0.67534  1.0000
  C   C22       1.0  0.78692  0.86994  0.82465  1.0000
  C   C23       1.0  0.08303  0.86995  0.32466  1.0000
  C   C24       1.0  0.21308  0.13006  0.17535  1.0000
  C   C25       1.0  0.14051  0.56715  0.42662  1.0000
  C   C26       1.0  0.57338  0.43287  0.07336  1.0000
  C   C27       1.0  0.85949  0.43285  0.57338  1.0000
  C   C28       1.0  0.42662  0.56713  0.92664  1.0000
  C   C29       1.0  0.23368  0.70847  0.49301  1.0000
  C   C30       1.0  0.52524  0.29155  0.00698  1.0000
  C   C31       1.0  0.76632  0.29153  0.50699  1.0000
  C   C32       1.0  0.47476  0.70845  0.99302  1.0000
  C   C33       1.0  0.39325  0.75952  0.51361  1.0000
  C   C34       1.0  0.63375  0.24050  0.98637  1.0000
  C   C35       1.0  0.60675  0.24048  0.48639  1.0000
  C   C36       1.0  0.36625  0.75950  0.01363  1.0000
  C   C37       1.0  0.45273  0.66618  0.46637  1.0000
  C   C38       1.0  0.78658  0.33384  0.03361  1.0000
  C   C39       1.0  0.54727  0.33382  0.53363  1.0000
  C   C40       1.0  0.21342  0.66616  0.96639  1.0000
  C   C41       1.0  0.35193  0.52636  0.40116  1.0000
  C   C42       1.0  0.82560  0.47367  0.09881  1.0000
  C   C43       1.0  0.64807  0.47364  0.59883  1.0000
  C   C44       1.0  0.17440  0.52633  0.90119  1.0000
  N   N1        1.0  0.43661  0.99521  0.62626  1.0000
  N   N2        1.0  0.44142  0.00479  0.87374  1.0000
  N   N3        1.0  0.56339  0.00479  0.37374  1.0000
  N   N4        1.0  0.55858  0.99520  0.12626  1.0000
  N   N5        1.0  0.65116  0.95062  0.59582  1.0000
  N   N6        1.0  0.70056  0.04939  0.90416  1.0000
  N   N7        1.0  0.34884  0.04938  0.40418  1.0000
  N   N8        1.0  0.29944  0.95061  0.09584  1.0000
  N   N9        1.0  0.19825  0.47766  0.38169  1.0000
  N   N10       1.0  0.72062  0.52236  0.11829  1.0000
  N   N11       1.0  0.80175  0.52234  0.61831  1.0000
  N   N12       1.0  0.27938  0.47764  0.88171  1.0000
  O   O1        1.0  0.31368  0.16021  0.71947  1.0000
  O   O2        1.0  0.15347  0.83979  0.78055  1.0000
  O   O3        1.0  0.68632  0.83979  0.28053  1.0000
  O   O4        1.0  0.84653  0.16020  0.21945  1.0000
  O   O5        1.0  0.55187  0.36202  0.79279  1.0000
  O   O6        1.0  0.18983  0.63797  0.70723  1.0000
  O   O7        1.0  0.44813  0.63798  0.20721  1.0000
  O   O8        1.0  0.81017  0.36203  0.29277  1.0000
  O   O9        1.0  0.97994  0.19193  0.75627  1.0000
  O   O10       1.0  0.78801  0.80805  0.74373  1.0000
  O   O11       1.0  0.02006  0.80807  0.24373  1.0000
  O   O12       1.0  0.21199  0.19195  0.25627  1.0000
  O   O13       1.0  0.98361  0.10875  0.60992  1.0000
  O   O14       1.0  0.87484  0.89123  0.89009  1.0000
  O   O15       1.0  0.01639  0.89125  0.39008  1.0000
  O   O16       1.0  0.12516  0.10877  0.10991  1.0000
  O   O17       1.0  0.26659  0.40251  0.67780  1.0000
  O   O18       1.0  0.86407  0.59748  0.82221  1.0000
  O   O19       1.0  0.73341  0.59749  0.32220  1.0000
  O   O20       1.0  0.13593  0.40252  0.17779  1.0000
  O   O21       1.0  0.18033  0.12697  0.87684  1.0000
  O   O22       1.0  0.05336  0.87301  0.62317  1.0000
  O   O23       1.0  0.81967  0.87302  0.12316  1.0000
  O   O24       1.0  0.94664  0.12699  0.37684  1.0000
