data_image0
_chemical_formula_structural       Zn2H40C60N4O10
_chemical_formula_sum              "Zn2 H40 C60 N4 O10"
_cell_length_a       8.70653
_cell_length_b       10.9503
_cell_length_c       14.7344
_cell_angle_alpha    109.848
_cell_angle_beta     105.15
_cell_angle_gamma    95.5294

_space_group_name_H-M_alt    "P 1"
_space_group_IT_number       1

loop_
  _space_group_symop_operation_xyz
  'x, y, z'

loop_
  _atom_site_type_symbol
  _atom_site_label
  _atom_site_symmetry_multiplicity
  _atom_site_fract_x
  _atom_site_fract_y
  _atom_site_fract_z
  _atom_site_occupancy
  Zn  Zn1       1.0  0.63288  0.88177  0.76388  1.0000
  Zn  Zn2       1.0  0.36712  0.11823  0.23612  1.0000
  H   H1        1.0  0.44935  0.07857  0.53328  1.0000
  H   H2        1.0  0.58351  0.45506  0.53350  1.0000
  H   H3        1.0  0.55065  0.92143  0.46672  1.0000
  H   H4        1.0  0.41649  0.54495  0.46650  1.0000
  H   H5        1.0  0.26013  0.18516  0.44258  1.0000
  H   H6        1.0  0.68207  0.25874  0.44304  1.0000
  H   H7        1.0  0.73987  0.81484  0.55742  1.0000
  H   H8        1.0  0.31793  0.74126  0.55696  1.0000
  H   H9        1.0  0.95468  0.17690  0.62879  1.0000
  H   H10       1.0  0.17446  0.45238  0.62907  1.0000
  H   H11       1.0  0.04532  0.82310  0.37121  1.0000
  H   H12       1.0  0.82554  0.54762  0.37093  1.0000
  H   H13       1.0  0.14864  0.07123  0.72224  1.0000
  H   H14       1.0  0.07410  0.65066  0.72210  1.0000
  H   H15       1.0  0.85136  0.92877  0.27775  1.0000
  H   H16       1.0  0.92590  0.34934  0.27790  1.0000
  H   H17       1.0  0.78411  0.10180  0.72517  1.0000
  H   H18       1.0  0.44138  0.62431  0.72524  1.0000
  H   H19       1.0  0.21589  0.89820  0.27483  1.0000
  H   H20       1.0  0.55862  0.37569  0.27476  1.0000
  H   H21       1.0  0.99072  0.30991  0.81434  1.0000
  H   H22       1.0  0.32359  0.50525  0.81462  1.0000
  H   H23       1.0  0.00928  0.69009  0.18566  1.0000
  H   H24       1.0  0.67641  0.49475  0.18537  1.0000
  H   H25       1.0  0.05209  0.23333  0.09119  1.0000
  H   H26       1.0  0.53814  0.85743  0.09076  1.0000
  H   H27       1.0  0.94791  0.76667  0.90881  1.0000
  H   H28       1.0  0.46186  0.14257  0.90924  1.0000
  H   H29       1.0  0.85202  0.02842  0.98910  1.0000
  H   H30       1.0  0.63639  0.96044  0.98843  1.0000
  H   H31       1.0  0.14798  0.97158  0.01090  1.0000
  H   H32       1.0  0.36362  0.03956  0.01157  1.0000
  H   H33       1.0  0.19313  0.44347  0.88647  1.0000
  H   H34       1.0  0.80688  0.55653  0.11353  1.0000
  H   H35       1.0  0.16727  0.42770  0.17022  1.0000
  H   H36       1.0  0.50205  0.74188  0.17008  1.0000
  H   H37       1.0  0.83273  0.57230  0.82978  1.0000
  H   H38       1.0  0.49795  0.25812  0.82992  1.0000
  H   H39       1.0  0.38092  0.63087  0.26272  1.0000
  H   H40       1.0  0.61908  0.36913  0.73728  1.0000
  C   C1        1.0  0.34164  0.10003  0.55495  1.0000
  C   C2        1.0  0.71307  0.45538  0.55521  1.0000
  C   C3        1.0  0.65836  0.89997  0.44505  1.0000
  C   C4        1.0  0.28693  0.54462  0.44479  1.0000
  C   C5        1.0  0.23545  0.15939  0.50328  1.0000
  C   C6        1.0  0.76751  0.34487  0.50365  1.0000
  C   C7        1.0  0.76454  0.84061  0.49672  1.0000
  C   C8        1.0  0.23249  0.65513  0.49635  1.0000
  C   C9        1.0  0.09761  0.18695  0.53135  1.0000
  C   C10       1.0  0.93367  0.34548  0.53159  1.0000
  C   C11       1.0  0.90239  0.81305  0.46865  1.0000
  C   C12       1.0  0.06633  0.65452  0.46841  1.0000
  C   C13       1.0  0.06569  0.15716  0.61071  1.0000
  C   C14       1.0  0.04521  0.45402  0.61092  1.0000
  C   C15       1.0  0.93431  0.84284  0.38929  1.0000
  C   C16       1.0  0.95479  0.54598  0.38908  1.0000
  C   C17       1.0  0.17269  0.09855  0.66196  1.0000
  C   C18       1.0  0.98951  0.56341  0.66202  1.0000
  C   C19       1.0  0.82731  0.90144  0.33804  1.0000
  C   C20       1.0  0.01050  0.43659  0.33798  1.0000
  C   C21       1.0  0.31143  0.06881  0.63431  1.0000
  C   C22       1.0  0.82291  0.56551  0.63439  1.0000
  C   C23       1.0  0.68857  0.93119  0.36568  1.0000
  C   C24       1.0  0.17709  0.43449  0.36561  1.0000
  C   C25       1.0  0.42168  0.00262  0.68879  1.0000
  C   C26       1.0  0.76685  0.68565  0.68835  1.0000
  C   C27       1.0  0.57832  0.99738  0.31120  1.0000
  C   C28       1.0  0.23315  0.31435  0.31165  1.0000
  C   C29       1.0  0.84905  0.13491  0.80615  1.0000
  C   C30       1.0  0.45718  0.67183  0.80611  1.0000
  C   C31       1.0  0.15095  0.86509  0.19386  1.0000
  C   C32       1.0  0.54282  0.32817  0.19389  1.0000
  C   C33       1.0  0.96506  0.25180  0.85758  1.0000
  C   C34       1.0  0.39228  0.60636  0.85762  1.0000
  C   C35       1.0  0.03494  0.74820  0.14242  1.0000
  C   C36       1.0  0.60772  0.39364  0.14238  1.0000
  C   C37       1.0  0.04269  0.29450  0.96270  1.0000
  C   C38       1.0  0.41951  0.66838  0.96261  1.0000
  C   C39       1.0  0.95731  0.70550  0.03730  1.0000
  C   C40       1.0  0.58049  0.33162  0.03739  1.0000
  C   C41       1.0  0.99796  0.21132  0.01020  1.0000
  C   C42       1.0  0.51150  0.79878  0.00987  1.0000
  C   C43       1.0  0.00204  0.78868  0.98980  1.0000
  C   C44       1.0  0.48851  0.20122  0.99013  1.0000
  C   C45       1.0  0.88285  0.09487  0.95296  1.0000
  C   C46       1.0  0.56959  0.85808  0.95257  1.0000
  C   C47       1.0  0.11715  0.90513  0.04704  1.0000
  C   C48       1.0  0.43041  0.14192  0.04743  1.0000
  C   C49       1.0  0.16631  0.41896  0.02048  1.0000
  C   C50       1.0  0.35352  0.60152  0.02043  1.0000
  C   C51       1.0  0.83369  0.58104  0.97952  1.0000
  C   C52       1.0  0.64648  0.39848  0.97958  1.0000
  C   C53       1.0  0.23433  0.48466  0.96911  1.0000
  C   C54       1.0  0.76567  0.51534  0.03089  1.0000
  C   C55       1.0  0.21939  0.47432  0.12745  1.0000
  C   C56       1.0  0.40725  0.65267  0.12739  1.0000
  C   C57       1.0  0.78061  0.52568  0.87255  1.0000
  C   C58       1.0  0.59275  0.34733  0.87261  1.0000
  C   C59       1.0  0.33947  0.58956  0.17978  1.0000
  C   C60       1.0  0.66053  0.41044  0.82022  1.0000
  N   N1        1.0  0.80681  0.05618  0.85253  1.0000
  N   N2        1.0  0.54587  0.79652  0.85232  1.0000
  N   N3        1.0  0.19319  0.94382  0.14747  1.0000
  N   N4        1.0  0.45413  0.20348  0.14768  1.0000
  O   O1        1.0  0.53156  0.95430  0.65172  1.0000
  O   O2        1.0  0.61958  0.69668  0.65131  1.0000
  O   O3        1.0  0.46844  0.04570  0.34828  1.0000
  O   O4        1.0  0.38042  0.30332  0.34869  1.0000
  O   O5        1.0  0.40630  0.99404  0.76989  1.0000
  O   O6        1.0  0.86365  0.77540  0.76915  1.0000
  O   O7        1.0  0.59370  0.00596  0.23011  1.0000
  O   O8        1.0  0.13635  0.22460  0.23085  1.0000
  O   O9        1.0  0.98778  0.23882  0.47584  1.0000
  O   O10       1.0  0.01222  0.76118  0.52416  1.0000
