data_image0
_chemical_formula_structural       Ag2H30C32S2N8O6
_chemical_formula_sum              "Ag2 H30 C32 S2 N8 O6"
_cell_length_a       6.76555
_cell_length_b       10.0782
_cell_length_c       12.8763
_cell_angle_alpha    89.2088
_cell_angle_beta     99.7506
_cell_angle_gamma    97.6791

_space_group_name_H-M_alt    "P 1"
_space_group_IT_number       1

loop_
  _space_group_symop_operation_xyz
  'x, y, z'

loop_
  _atom_site_type_symbol
  _atom_site_label
  _atom_site_symmetry_multiplicity
  _atom_site_fract_x
  _atom_site_fract_y
  _atom_site_fract_z
  _atom_site_occupancy
  Ag  Ag1       1.0  0.58093  0.08474  0.70601  1.0000
  Ag  Ag2       1.0  0.41907  0.91526  0.29399  1.0000
  H   H1        1.0  0.23902  0.85563  0.74641  1.0000
  H   H2        1.0  0.76096  0.14436  0.25359  1.0000
  H   H3        1.0  0.18548  0.69562  0.95728  1.0000
  H   H4        1.0  0.81450  0.30437  0.04272  1.0000
  H   H5        1.0  0.96321  0.67978  0.09373  1.0000
  H   H6        1.0  0.03679  0.32022  0.90627  1.0000
  H   H7        1.0  0.68235  0.81480  0.08287  1.0000
  H   H8        1.0  0.31766  0.18521  0.91713  1.0000
  H   H9        1.0  0.60790  0.97143  0.93388  1.0000
  H   H10       1.0  0.39211  0.02858  0.06612  1.0000
  H   H11       1.0  0.91287  0.30546  0.63044  1.0000
  H   H12       1.0  0.08714  0.69454  0.36956  1.0000
  H   H13       1.0  0.09445  0.59231  0.72732  1.0000
  H   H14       1.0  0.90557  0.40769  0.27268  1.0000
  H   H15       1.0  0.41277  0.70491  0.83513  1.0000
  H   H16       1.0  0.58724  0.29509  0.16486  1.0000
  H   H17       1.0  0.70425  0.58557  0.89234  1.0000
  H   H18       1.0  0.29576  0.41443  0.10766  1.0000
  H   H19       1.0  0.69892  0.34631  0.84046  1.0000
  H   H20       1.0  0.30108  0.65369  0.15954  1.0000
  H   H21       1.0  0.15505  0.00753  0.60043  1.0000
  H   H22       1.0  0.84495  0.99247  0.39957  1.0000
  H   H23       1.0  0.91248  0.06819  0.58561  1.0000
  H   H24       1.0  0.08752  0.93181  0.41439  1.0000
  H   H25       1.0  0.27299  0.32629  0.34149  1.0000
  H   H26       1.0  0.72701  0.67370  0.65851  1.0000
  H   H27       1.0  0.50702  0.42506  0.39671  1.0000
  H   H28       1.0  0.49297  0.57493  0.60329  1.0000
  H   H29       1.0  0.31532  0.37967  0.47720  1.0000
  H   H30       1.0  0.68466  0.62033  0.52279  1.0000
  C   C1        1.0  0.11286  0.88489  0.77897  1.0000
  C   C2        1.0  0.88713  0.11511  0.22103  1.0000
  C   C3        1.0  0.02312  0.84501  0.86722  1.0000
  C   C4        1.0  0.97687  0.15499  0.13278  1.0000
  C   C5        1.0  0.06178  0.75583  0.95202  1.0000
  C   C6        1.0  0.93819  0.24417  0.04798  1.0000
  C   C7        1.0  0.93778  0.74729  0.02739  1.0000
  C   C8        1.0  0.06223  0.25271  0.97261  1.0000
  C   C9        1.0  0.77437  0.82431  0.02086  1.0000
  C   C10       1.0  0.22564  0.17570  0.97915  1.0000
  C   C11       1.0  0.73201  0.91144  0.93907  1.0000
  C   C12       1.0  0.26800  0.08857  0.06093  1.0000
  C   C13       1.0  0.85828  0.92262  0.86192  1.0000
  C   C14       1.0  0.14171  0.07739  0.13809  1.0000
  C   C15       1.0  0.06776  0.30423  0.67059  1.0000
  C   C16       1.0  0.93225  0.69577  0.32941  1.0000
  C   C17       1.0  0.21534  0.40204  0.72478  1.0000
  C   C18       1.0  0.78467  0.59796  0.27522  1.0000
  C   C19       1.0  0.22325  0.53822  0.75283  1.0000
  C   C20       1.0  0.77675  0.46178  0.24717  1.0000
  C   C21       1.0  0.39913  0.59993  0.81299  1.0000
  C   C22       1.0  0.60088  0.40007  0.18701  1.0000
  C   C23       1.0  0.56961  0.53139  0.84511  1.0000
  C   C24       1.0  0.43040  0.46862  0.15488  1.0000
  C   C25       1.0  0.56845  0.39956  0.81714  1.0000
  C   C26       1.0  0.43155  0.60044  0.18286  1.0000
  C   C27       1.0  0.38881  0.33400  0.75741  1.0000
  C   C28       1.0  0.61118  0.66600  0.24258  1.0000
  C   C29       1.0  0.05322  0.05770  0.63929  1.0000
  C   C30       1.0  0.94678  0.94230  0.36072  1.0000
  C   C31       1.0  0.38616  0.34814  0.41281  1.0000
  C   C32       1.0  0.61383  0.65186  0.58719  1.0000
  S   S1        1.0  0.48956  0.19754  0.45197  1.0000
  S   S2        1.0  0.51044  0.80246  0.54804  1.0000
  N   N1        1.0  0.84992  0.00318  0.77659  1.0000
  N   N2        1.0  0.15008  0.99683  0.22342  1.0000
  N   N3        1.0  0.00517  0.97789  0.72894  1.0000
  N   N4        1.0  0.99483  0.02211  0.27106  1.0000
  N   N5        1.0  0.34777  0.20413  0.72528  1.0000
  N   N6        1.0  0.65223  0.79587  0.27473  1.0000
  N   N7        1.0  0.15366  0.19014  0.67381  1.0000
  N   N8        1.0  0.84634  0.80986  0.32620  1.0000
  O   O1        1.0  0.64506  0.23380  0.54613  1.0000
  O   O2        1.0  0.35494  0.76621  0.45387  1.0000
  O   O3        1.0  0.57712  0.15465  0.36233  1.0000
  O   O4        1.0  0.42288  0.84534  0.63767  1.0000
  O   O5        1.0  0.31848  0.10274  0.47487  1.0000
  O   O6        1.0  0.68153  0.89726  0.52515  1.0000
