data_image0
_chemical_formula_structural       MnH24C24N6O4
_chemical_formula_sum              "Mn1 H24 C24 N6 O4"
_cell_length_a       4.91139
_cell_length_b       9.26338
_cell_length_c       11.6151
_cell_angle_alpha    90.0137
_cell_angle_beta     91.3919
_cell_angle_gamma    101.172

_space_group_name_H-M_alt    "P 1"
_space_group_IT_number       1

loop_
  _space_group_symop_operation_xyz
  'x, y, z'

loop_
  _atom_site_type_symbol
  _atom_site_label
  _atom_site_symmetry_multiplicity
  _atom_site_fract_x
  _atom_site_fract_y
  _atom_site_fract_z
  _atom_site_occupancy
  Mn  Mn1       1.0  0.49606  0.50080  0.00054  1.0000
  H   H1        1.0  0.56942  0.28843  0.49102  1.0000
  H   H2        1.0  0.44070  0.70919  0.50800  1.0000
  H   H3        1.0  0.63259  0.16128  0.38790  1.0000
  H   H4        1.0  0.37019  0.83762  0.60856  1.0000
  H   H5        1.0  0.22497  0.83661  0.25701  1.0000
  H   H6        1.0  0.77065  0.16540  0.73902  1.0000
  H   H7        1.0  0.53045  0.94227  0.32071  1.0000
  H   H8        1.0  0.47091  0.05213  0.67730  1.0000
  H   H9        1.0  0.30635  0.02695  0.23328  1.0000
  H   H10       1.0  0.70288  0.97574  0.76702  1.0000
  H   H11       1.0  0.77585  0.71502  0.29850  1.0000
  H   H12       1.0  0.22900  0.28043  0.70316  1.0000
  H   H13       1.0  0.73250  0.62940  0.43560  1.0000
  H   H14       1.0  0.28465  0.36794  0.56738  1.0000
  H   H15       1.0  0.06060  0.66854  0.37552  1.0000
  H   H16       1.0  0.95265  0.33293  0.62412  1.0000
  H   H17       1.0  0.06310  0.52966  0.20968  1.0000
  H   H18       1.0  0.93523  0.47216  0.79491  1.0000
  H   H19       1.0  0.69368  0.28280  0.19607  1.0000
  H   H20       1.0  0.30248  0.71836  0.80163  1.0000
  H   H21       1.0  0.68504  0.82896  0.12605  1.0000
  H   H22       1.0  0.30454  0.17151  0.87356  1.0000
  H   H23       1.0  0.61578  0.08553  0.10097  1.0000
  H   H24       1.0  0.37218  0.91464  0.89768  1.0000
  C   C1        1.0  0.22331  0.10618  0.46087  1.0000
  C   C2        1.0  0.78256  0.89315  0.53851  1.0000
  C   C3        1.0  0.15157  0.96968  0.40289  1.0000
  C   C4        1.0  0.85356  0.02984  0.59628  1.0000
  C   C5        1.0  0.93247  0.86080  0.44292  1.0000
  C   C6        1.0  0.07414  0.13832  0.55679  1.0000
  C   C7        1.0  0.47174  0.21652  0.42050  1.0000
  C   C8        1.0  0.53382  0.78265  0.57837  1.0000
  C   C9        1.0  0.31102  0.94180  0.29866  1.0000
  C   C10       1.0  0.69182  0.05785  0.69973  1.0000
  C   C11       1.0  0.86949  0.71158  0.38530  1.0000
  C   C12       1.0  0.14084  0.28672  0.61573  1.0000
  C   C13       1.0  0.20621  0.45922  0.23530  1.0000
  C   C14       1.0  0.79252  0.54211  0.76762  1.0000
  C   C15       1.0  0.52470  0.33289  0.22354  1.0000
  C   C16       1.0  0.47320  0.66839  0.77608  1.0000
  C   C17       1.0  0.03241  0.85394  0.01337  1.0000
  C   C18       1.0  0.95713  0.14654  0.98622  1.0000
  C   C19       1.0  0.82098  0.90481  0.07145  1.0000
  C   C20       1.0  0.16829  0.09566  0.92803  1.0000
  C   C21       1.0  0.78404  0.04851  0.05788  1.0000
  C   C22       1.0  0.20468  0.95182  0.94126  1.0000
  C   C23       1.0  0.07287  0.70130  0.03169  1.0000
  C   C24       1.0  0.91846  0.29959  0.96899  1.0000
  N   N1        1.0  0.40436  0.31022  0.32657  1.0000
  N   N2        1.0  0.59838  0.69080  0.67402  1.0000
  N   N3        1.0  0.20042  0.39000  0.33578  1.0000
  N   N4        1.0  0.80291  0.61105  0.66696  1.0000
  N   N5        1.0  0.40274  0.42710  0.16260  1.0000
  N   N6        1.0  0.59247  0.57437  0.83848  1.0000
  O   O1        1.0  0.86894  0.60441  0.06727  1.0000
  O   O2        1.0  0.12401  0.39651  0.93493  1.0000
  O   O3        1.0  0.31835  0.67597  0.01713  1.0000
  O   O4        1.0  0.67316  0.32540  0.98309  1.0000
