data_image0
_chemical_formula_structural       Mn2H36C32N6O14
_chemical_formula_sum              "Mn2 H36 C32 N6 O14"
_cell_length_a       8.83493
_cell_length_b       10.1865
_cell_length_c       11.1758
_cell_angle_alpha    89.7807
_cell_angle_beta     100.214
_cell_angle_gamma    109.986

_space_group_name_H-M_alt    "P 1"
_space_group_IT_number       1

loop_
  _space_group_symop_operation_xyz
  'x, y, z'

loop_
  _atom_site_type_symbol
  _atom_site_label
  _atom_site_symmetry_multiplicity
  _atom_site_fract_x
  _atom_site_fract_y
  _atom_site_fract_z
  _atom_site_occupancy
  Mn  Mn1       1.0  0.28873  0.13956  0.09523  1.0000
  Mn  Mn2       1.0  0.71127  0.86043  0.90476  1.0000
  H   H1        1.0  0.65016  0.54284  0.14620  1.0000
  H   H2        1.0  0.34985  0.45715  0.85381  1.0000
  H   H3        1.0  0.56666  0.18750  0.98084  1.0000
  H   H4        1.0  0.43336  0.81251  0.01916  1.0000
  H   H5        1.0  0.57543  0.32005  0.06526  1.0000
  H   H6        1.0  0.42459  0.67996  0.93475  1.0000
  H   H7        1.0  0.12375  0.95137  0.89833  1.0000
  H   H8        1.0  0.87625  0.04864  0.10167  1.0000
  H   H9        1.0  0.05096  0.06836  0.88453  1.0000
  H   H10       1.0  0.94904  0.93165  0.11547  1.0000
  H   H11       1.0  0.74744  0.20567  0.60976  1.0000
  H   H12       1.0  0.25255  0.79434  0.39025  1.0000
  H   H13       1.0  0.67016  0.33782  0.63642  1.0000
  H   H14       1.0  0.32982  0.66219  0.36358  1.0000
  H   H15       1.0  0.62186  0.49764  0.55544  1.0000
  H   H16       1.0  0.37812  0.50237  0.44456  1.0000
  H   H17       1.0  0.70036  0.64913  0.47602  1.0000
  H   H18       1.0  0.29963  0.35088  0.52398  1.0000
  H   H19       1.0  0.76740  0.65201  0.63415  1.0000
  H   H20       1.0  0.23259  0.34799  0.36585  1.0000
  H   H21       1.0  0.15780  0.86567  0.52374  1.0000
  H   H22       1.0  0.84218  0.13433  0.47627  1.0000
  H   H23       1.0  0.97625  0.81771  0.58325  1.0000
  H   H24       1.0  0.02376  0.18229  0.41676  1.0000
  H   H25       1.0  0.96473  0.82331  0.42403  1.0000
  H   H26       1.0  0.03526  0.17670  0.57599  1.0000
  H   H27       1.0  0.20963  0.03173  0.36765  1.0000
  H   H28       1.0  0.79036  0.96824  0.63236  1.0000
  H   H29       1.0  0.65765  0.31529  0.30707  1.0000
  H   H30       1.0  0.34233  0.68469  0.69293  1.0000
  H   H31       1.0  0.31229  0.62567  0.11937  1.0000
  H   H32       1.0  0.68772  0.37433  0.88063  1.0000
  H   H33       1.0  0.89240  0.73377  0.16353  1.0000
  H   H34       1.0  0.10760  0.26622  0.83647  1.0000
  H   H35       1.0  0.86349  0.30311  0.16059  1.0000
  H   H36       1.0  0.13652  0.69689  0.83941  1.0000
  C   C1        1.0  0.85886  0.39884  0.52706  1.0000
  C   C2        1.0  0.14113  0.60116  0.47293  1.0000
  C   C3        1.0  0.87094  0.54047  0.52625  1.0000
  C   C4        1.0  0.12905  0.45954  0.47375  1.0000
  C   C5        1.0  0.01450  0.64272  0.50160  1.0000
  C   C6        1.0  0.98549  0.35728  0.49839  1.0000
  C   C7        1.0  0.71371  0.29140  0.56738  1.0000
  C   C8        1.0  0.28627  0.70861  0.43262  1.0000
  C   C9        1.0  0.73292  0.58578  0.54932  1.0000
  C   C10       1.0  0.26707  0.41423  0.45068  1.0000
  C   C11       1.0  0.02995  0.79488  0.50799  1.0000
  C   C12       1.0  0.97004  0.20512  0.49201  1.0000
  C   C13       1.0  0.33544  0.10326  0.38331  1.0000
  C   C14       1.0  0.66455  0.89673  0.61669  1.0000
  C   C15       1.0  0.56115  0.24511  0.34832  1.0000
  C   C16       1.0  0.43884  0.75487  0.65168  1.0000
  C   C17       1.0  0.09710  0.45459  0.14315  1.0000
  C   C18       1.0  0.90292  0.54541  0.85684  1.0000
  C   C19       1.0  0.18658  0.59591  0.13388  1.0000
  C   C20       1.0  0.81343  0.40409  0.86612  1.0000
  C   C21       1.0  0.11367  0.69703  0.14128  1.0000
  C   C22       1.0  0.88634  0.30297  0.85871  1.0000
  C   C23       1.0  0.95101  0.65627  0.15816  1.0000
  C   C24       1.0  0.04901  0.34373  0.84184  1.0000
  C   C25       1.0  0.86123  0.51519  0.16269  1.0000
  C   C26       1.0  0.13878  0.48481  0.83731  1.0000
  C   C27       1.0  0.93385  0.41388  0.15807  1.0000
  C   C28       1.0  0.06617  0.58612  0.84193  1.0000
  C   C29       1.0  0.17145  0.34527  0.12678  1.0000
  C   C30       1.0  0.82857  0.65474  0.87322  1.0000
  C   C31       1.0  0.20238  0.84812  0.12539  1.0000
  C   C32       1.0  0.79763  0.15188  0.87460  1.0000
  N   N1        1.0  0.57321  0.22867  0.46855  1.0000
  N   N2        1.0  0.42677  0.77132  0.53146  1.0000
  N   N3        1.0  0.42955  0.13808  0.49313  1.0000
  N   N4        1.0  0.57044  0.86191  0.50688  1.0000
  N   N5        1.0  0.41099  0.16642  0.29103  1.0000
  N   N6        1.0  0.58899  0.83356  0.70897  1.0000
  O   O1        1.0  0.08542  0.21576  0.13241  1.0000
  O   O2        1.0  0.91461  0.78425  0.86759  1.0000
  O   O3        1.0  0.31637  0.38197  0.10571  1.0000
  O   O4        1.0  0.68365  0.61805  0.89430  1.0000
  O   O5        1.0  0.33326  0.88844  0.08318  1.0000
  O   O6        1.0  0.66674  0.11156  0.91680  1.0000
  O   O7        1.0  0.13804  0.93654  0.15492  1.0000
  O   O8        1.0  0.86195  0.06345  0.84507  1.0000
  O   O9        1.0  0.69665  0.46981  0.16854  1.0000
  O   O10       1.0  0.30336  0.53018  0.83147  1.0000
  O   O11       1.0  0.50090  0.23323  0.01922  1.0000
  O   O12       1.0  0.49912  0.76678  0.98078  1.0000
  O   O13       1.0  0.15864  0.05376  0.90830  1.0000
  O   O14       1.0  0.84136  0.94625  0.09170  1.0000
