data_image0
_chemical_formula_structural       Tb4H24C12O36
_chemical_formula_sum              "Tb4 H24 C12 O36"
_cell_length_a       9.32736
_cell_length_b       10.0543
_cell_length_c       10.9813
_cell_angle_alpha    113.859
_cell_angle_beta     89.9998
_cell_angle_gamma    90.0001

_space_group_name_H-M_alt    "P 1"
_space_group_IT_number       1

loop_
  _space_group_symop_operation_xyz
  'x, y, z'

loop_
  _atom_site_type_symbol
  _atom_site_label
  _atom_site_symmetry_multiplicity
  _atom_site_fract_x
  _atom_site_fract_y
  _atom_site_fract_z
  _atom_site_occupancy
  Tb  Tb1       1.0  0.55001  0.66921  0.30616  1.0000
  Tb  Tb2       1.0  0.05000  0.83079  0.69384  1.0000
  Tb  Tb3       1.0  0.45000  0.33079  0.69384  1.0000
  Tb  Tb4       1.0  0.95000  0.16921  0.30616  1.0000
  H   H1        1.0  0.82555  0.51864  0.29382  1.0000
  H   H2        1.0  0.32554  0.98136  0.70618  1.0000
  H   H3        1.0  0.17446  0.48136  0.70617  1.0000
  H   H4        1.0  0.67446  0.01864  0.29383  1.0000
  H   H5        1.0  0.86997  0.68728  0.38452  1.0000
  H   H6        1.0  0.36997  0.81272  0.61547  1.0000
  H   H7        1.0  0.13003  0.31271  0.61547  1.0000
  H   H8        1.0  0.63003  0.18729  0.38453  1.0000
  H   H9        1.0  0.25438  0.63487  0.24496  1.0000
  H   H10       1.0  0.75437  0.86513  0.75505  1.0000
  H   H11       1.0  0.74563  0.36513  0.75504  1.0000
  H   H12       1.0  0.24563  0.13487  0.24496  1.0000
  H   H13       1.0  0.25213  0.59203  0.36888  1.0000
  H   H14       1.0  0.75213  0.90797  0.63112  1.0000
  H   H15       1.0  0.74787  0.40797  0.63111  1.0000
  H   H16       1.0  0.24787  0.09203  0.36888  1.0000
  H   H17       1.0  0.69977  0.80117  0.12292  1.0000
  H   H18       1.0  0.19976  0.69883  0.87708  1.0000
  H   H19       1.0  0.30023  0.19884  0.87708  1.0000
  H   H20       1.0  0.80023  0.30116  0.12292  1.0000
  H   H21       1.0  0.79435  0.83628  0.24976  1.0000
  H   H22       1.0  0.29435  0.66372  0.75024  1.0000
  H   H23       1.0  0.20564  0.16372  0.75025  1.0000
  H   H24       1.0  0.70565  0.33628  0.24975  1.0000
  C   C1        1.0  0.47682  0.57237  0.55589  1.0000
  C   C2        1.0  0.97681  0.92763  0.44411  1.0000
  C   C3        1.0  0.52318  0.42764  0.44410  1.0000
  C   C4        1.0  0.02318  0.07236  0.55590  1.0000
  C   C5        1.0  0.42769  0.99533  0.46425  1.0000
  C   C6        1.0  0.92769  0.50468  0.53575  1.0000
  C   C7        1.0  0.57231  0.00466  0.53574  1.0000
  C   C8        1.0  0.07231  0.49534  0.46426  1.0000
  C   C9        1.0  0.55706  0.44324  0.99832  1.0000
  C   C10       1.0  0.05707  0.05676  0.00168  1.0000
  C   C11       1.0  0.44294  0.55676  0.00168  1.0000
  C   C12       1.0  0.94294  0.94323  0.99832  1.0000
  O   O1        1.0  0.35114  0.11028  0.50635  1.0000
  O   O2        1.0  0.85115  0.38972  0.49365  1.0000
  O   O3        1.0  0.64885  0.88972  0.49365  1.0000
  O   O4        1.0  0.14886  0.61028  0.50635  1.0000
  O   O5        1.0  0.44005  0.56901  0.66522  1.0000
  O   O6        1.0  0.94005  0.93100  0.33479  1.0000
  O   O7        1.0  0.55995  0.43100  0.33478  1.0000
  O   O8        1.0  0.05994  0.06900  0.66523  1.0000
  O   O9        1.0  0.78968  0.61850  0.34077  1.0000
  O   O10       1.0  0.28967  0.88150  0.65922  1.0000
  O   O11       1.0  0.21033  0.38150  0.65922  1.0000
  O   O12       1.0  0.71033  0.11850  0.34078  1.0000
  O   O13       1.0  0.47961  0.68309  0.52779  1.0000
  O   O14       1.0  0.97961  0.81692  0.47221  1.0000
  O   O15       1.0  0.52039  0.31692  0.47221  1.0000
  O   O16       1.0  0.02039  0.18308  0.52779  1.0000
  O   O17       1.0  0.62592  0.47069  0.10532  1.0000
  O   O18       1.0  0.12593  0.02930  0.89468  1.0000
  O   O19       1.0  0.37408  0.52930  0.89467  1.0000
  O   O20       1.0  0.87408  0.97070  0.10533  1.0000
  O   O21       1.0  0.39735  0.87648  0.36973  1.0000
  O   O22       1.0  0.89735  0.62351  0.63027  1.0000
  O   O23       1.0  0.60265  0.12352  0.63027  1.0000
  O   O24       1.0  0.10264  0.37649  0.36973  1.0000
  O   O25       1.0  0.57206  0.33333  0.88972  1.0000
  O   O26       1.0  0.07207  0.16666  0.11028  1.0000
  O   O27       1.0  0.42792  0.66667  0.11028  1.0000
  O   O28       1.0  0.92794  0.83333  0.88972  1.0000
  O   O29       1.0  0.30739  0.58206  0.28776  1.0000
  O   O30       1.0  0.80738  0.91794  0.71224  1.0000
  O   O31       1.0  0.69261  0.41793  0.71223  1.0000
  O   O32       1.0  0.19261  0.08207  0.28777  1.0000
  O   O33       1.0  0.69359  0.81448  0.21583  1.0000
  O   O34       1.0  0.19359  0.68551  0.78416  1.0000
  O   O35       1.0  0.30640  0.18552  0.78417  1.0000
  O   O36       1.0  0.80640  0.31448  0.21583  1.0000
