data_image0
_chemical_formula_structural       Zn6H24C28N16O20
_chemical_formula_sum              "Zn6 H24 C28 N16 O20"
_cell_length_a       8.01712
_cell_length_b       9.40744
_cell_length_c       15.5269
_cell_angle_alpha    85.2399
_cell_angle_beta     78.765
_cell_angle_gamma    64.7738

_space_group_name_H-M_alt    "P 1"
_space_group_IT_number       1

loop_
  _space_group_symop_operation_xyz
  'x, y, z'

loop_
  _atom_site_type_symbol
  _atom_site_label
  _atom_site_symmetry_multiplicity
  _atom_site_fract_x
  _atom_site_fract_y
  _atom_site_fract_z
  _atom_site_occupancy
  Zn  Zn1       1.0  0.06086  0.87842  0.24997  1.0000
  Zn  Zn2       1.0  0.93914  0.12158  0.75003  1.0000
  Zn  Zn3       1.0  0.60668  0.64291  0.50321  1.0000
  Zn  Zn4       1.0  0.75044  0.64291  0.99685  1.0000
  Zn  Zn5       1.0  0.39332  0.35709  0.49679  1.0000
  Zn  Zn6       1.0  0.24955  0.35709  0.00315  1.0000
  H   H1        1.0  0.03598  0.78046  0.60341  1.0000
  H   H2        1.0  0.18326  0.78024  0.89660  1.0000
  H   H3        1.0  0.96402  0.21954  0.39659  1.0000
  H   H4        1.0  0.81674  0.21976  0.10340  1.0000
  H   H5        1.0  0.50612  0.90305  0.36898  1.0000
  H   H6        1.0  0.59085  0.90306  0.13106  1.0000
  H   H7        1.0  0.49388  0.09695  0.63102  1.0000
  H   H8        1.0  0.40915  0.09694  0.86894  1.0000
  H   H9        1.0  0.34995  0.96608  0.29266  1.0000
  H   H10       1.0  0.68403  0.96611  0.20733  1.0000
  H   H11       1.0  0.65005  0.03392  0.70734  1.0000
  H   H12       1.0  0.31596  0.03390  0.79267  1.0000
  H   H13       1.0  0.13982  0.55880  0.35576  1.0000
  H   H14       1.0  0.30127  0.55822  0.14456  1.0000
  H   H15       1.0  0.86018  0.44120  0.64424  1.0000
  H   H16       1.0  0.69873  0.44178  0.85545  1.0000
  H   H17       1.0  0.96856  0.43139  0.41619  1.0000
  H   H18       1.0  0.60037  0.43137  0.08387  1.0000
  H   H19       1.0  0.03144  0.56861  0.58381  1.0000
  H   H20       1.0  0.39963  0.56863  0.91613  1.0000
  H   H21       1.0  0.81951  0.47491  0.35273  1.0000
  H   H22       1.0  0.70610  0.47481  0.14730  1.0000
  H   H23       1.0  0.18049  0.52509  0.64727  1.0000
  H   H24       1.0  0.29390  0.52518  0.85270  1.0000
  C   C1        1.0  0.79334  0.81062  0.50179  1.0000
  C   C2        1.0  0.39593  0.81022  0.99812  1.0000
  C   C3        1.0  0.20666  0.18938  0.49821  1.0000
  C   C4        1.0  0.60408  0.18977  0.00188  1.0000
  C   C5        1.0  0.02336  0.87599  0.55695  1.0000
  C   C6        1.0  0.10049  0.87582  0.94306  1.0000
  C   C7        1.0  0.97664  0.12401  0.44305  1.0000
  C   C8        1.0  0.89951  0.12417  0.05694  1.0000
  C   C9        1.0  0.87150  0.03874  0.44129  1.0000
  C   C10       1.0  0.08997  0.03864  0.05860  1.0000
  C   C11       1.0  0.12850  0.96126  0.55871  1.0000
  C   C12       1.0  0.91004  0.96135  0.94140  1.0000
  C   C13       1.0  0.89662  0.91100  0.49942  1.0000
  C   C14       1.0  0.19232  0.91075  0.00055  1.0000
  C   C15       1.0  0.10338  0.08901  0.50058  1.0000
  C   C16       1.0  0.80768  0.08925  0.99945  1.0000
  C   C17       1.0  0.36453  0.76865  0.36149  1.0000
  C   C18       1.0  0.86686  0.76854  0.13860  1.0000
  C   C19       1.0  0.63547  0.23135  0.63851  1.0000
  C   C20       1.0  0.13313  0.23147  0.86141  1.0000
  C   C21       1.0  0.23023  0.61140  0.36748  1.0000
  C   C22       1.0  0.15831  0.61101  0.13276  1.0000
  C   C23       1.0  0.76977  0.38860  0.63252  1.0000
  C   C24       1.0  0.84169  0.38899  0.86724  1.0000
  C   C25       1.0  0.74024  0.09117  0.37536  1.0000
  C   C26       1.0  0.16907  0.09085  0.12446  1.0000
  C   C27       1.0  0.25976  0.90883  0.62464  1.0000
  C   C28       1.0  0.83093  0.90915  0.87554  1.0000
  N   N1        1.0  0.43674  0.65496  0.41997  1.0000
  N   N2        1.0  0.90834  0.65486  0.08010  1.0000
  N   N3        1.0  0.56326  0.34504  0.58003  1.0000
  N   N4        1.0  0.09166  0.34514  0.91990  1.0000
  N   N5        1.0  0.41093  0.88972  0.33942  1.0000
  N   N6        1.0  0.69939  0.88970  0.16061  1.0000
  N   N7        1.0  0.58907  0.11028  0.66058  1.0000
  N   N8        1.0  0.30062  0.11030  0.83939  1.0000
  N   N9        1.0  0.23403  0.74401  0.32737  1.0000
  N   N10       1.0  0.02193  0.74375  0.17281  1.0000
  N   N11       1.0  0.76597  0.25599  0.67263  1.0000
  N   N12       1.0  0.97807  0.25626  0.82719  1.0000
  N   N13       1.0  0.34831  0.55520  0.42314  1.0000
  N   N14       1.0  0.09645  0.55491  0.07705  1.0000
  N   N15       1.0  0.65169  0.44480  0.57686  1.0000
  N   N16       1.0  0.90355  0.44510  0.92295  1.0000
  O   O1        1.0  0.66650  0.84748  0.45555  1.0000
  O   O2        1.0  0.48611  0.84705  0.04428  1.0000
  O   O3        1.0  0.33350  0.15252  0.54445  1.0000
  O   O4        1.0  0.51390  0.15294  0.95572  1.0000
  O   O5        1.0  0.83375  0.68785  0.55062  1.0000
  O   O6        1.0  0.47810  0.68744  0.94932  1.0000
  O   O7        1.0  0.16625  0.31215  0.44938  1.0000
  O   O8        1.0  0.52190  0.31256  0.05068  1.0000
  O   O9        1.0  0.85878  0.51917  0.39508  1.0000
  O   O10       1.0  0.62250  0.51910  0.10498  1.0000
  O   O11       1.0  0.14122  0.48083  0.60493  1.0000
  O   O12       1.0  0.37750  0.48090  0.89502  1.0000
  O   O13       1.0  0.58451  0.20677  0.39145  1.0000
  O   O14       1.0  0.20918  0.20644  0.10840  1.0000
  O   O15       1.0  0.41549  0.79324  0.60855  1.0000
  O   O16       1.0  0.79082  0.79356  0.89159  1.0000
  O   O17       1.0  0.80099  0.02231  0.29986  1.0000
  O   O18       1.0  0.17737  0.02183  0.19992  1.0000
  O   O19       1.0  0.19901  0.97769  0.70014  1.0000
  O   O20       1.0  0.82263  0.97816  0.80007  1.0000
