data_image0
_chemical_formula_structural       Li4H72C60N4
_chemical_formula_sum              "Li4 H72 C60 N4"
_cell_length_a       9.8104
_cell_length_b       10.1479
_cell_length_c       13.373
_cell_angle_alpha    90
_cell_angle_beta     90
_cell_angle_gamma    108.777

_space_group_name_H-M_alt    "P 1"
_space_group_IT_number       1

loop_
  _space_group_symop_operation_xyz
  'x, y, z'

loop_
  _atom_site_type_symbol
  _atom_site_label
  _atom_site_symmetry_multiplicity
  _atom_site_fract_x
  _atom_site_fract_y
  _atom_site_fract_z
  _atom_site_occupancy
  Li  Li1       1.0  0.34663  0.38202  0.27629  1.0000
  Li  Li2       1.0  0.15337  0.61798  0.77629  1.0000
  Li  Li3       1.0  0.65337  0.61798  0.72371  1.0000
  Li  Li4       1.0  0.84663  0.38202  0.22371  1.0000
  H   H1        1.0  0.99007  0.21415  0.42274  1.0000
  H   H2        1.0  0.50993  0.78585  0.92274  1.0000
  H   H3        1.0  0.00993  0.78585  0.57726  1.0000
  H   H4        1.0  0.49007  0.21415  0.07726  1.0000
  H   H5        1.0  0.16702  0.10422  0.48764  1.0000
  H   H6        1.0  0.33298  0.89578  0.98764  1.0000
  H   H7        1.0  0.83298  0.89578  0.51236  1.0000
  H   H8        1.0  0.66702  0.10422  0.01236  1.0000
  H   H9        1.0  0.34984  0.17419  0.44593  1.0000
  H   H10       1.0  0.15016  0.82581  0.94593  1.0000
  H   H11       1.0  0.65017  0.82581  0.55407  1.0000
  H   H12       1.0  0.84983  0.17419  0.05407  1.0000
  H   H13       1.0  0.21701  0.06727  0.36440  1.0000
  H   H14       1.0  0.28299  0.93273  0.86440  1.0000
  H   H15       1.0  0.78299  0.93273  0.63560  1.0000
  H   H16       1.0  0.71701  0.06727  0.13560  1.0000
  H   H17       1.0  0.18368  0.33989  0.53256  1.0000
  H   H18       1.0  0.31632  0.66011  0.03256  1.0000
  H   H19       1.0  0.81632  0.66011  0.46744  1.0000
  H   H20       1.0  0.68368  0.33989  0.96744  1.0000
  H   H21       1.0  0.22447  0.47213  0.43884  1.0000
  H   H22       1.0  0.27553  0.52787  0.93884  1.0000
  H   H23       1.0  0.77553  0.52787  0.56116  1.0000
  H   H24       1.0  0.72446  0.47213  0.06116  1.0000
  H   H25       1.0  0.36189  0.40598  0.48214  1.0000
  H   H26       1.0  0.13811  0.59402  0.98214  1.0000
  H   H27       1.0  0.63811  0.59402  0.51786  1.0000
  H   H28       1.0  0.86189  0.40598  0.01786  1.0000
  H   H29       1.0  0.17889  0.18602  0.17535  1.0000
  H   H30       1.0  0.32111  0.81398  0.67535  1.0000
  H   H31       1.0  0.82111  0.81398  0.82465  1.0000
  H   H32       1.0  0.67889  0.18602  0.32465  1.0000
  H   H33       1.0  0.08268  0.98405  0.06503  1.0000
  H   H34       1.0  0.41732  0.01595  0.56503  1.0000
  H   H35       1.0  0.91732  0.01595  0.93497  1.0000
  H   H36       1.0  0.58268  0.98405  0.43497  1.0000
  H   H37       1.0  0.76810  0.67166  0.12791  1.0000
  H   H38       1.0  0.73190  0.32834  0.62791  1.0000
  H   H39       1.0  0.23190  0.32834  0.87209  1.0000
  H   H40       1.0  0.26810  0.67166  0.37209  1.0000
  H   H41       1.0  0.91671  0.73695  0.04395  1.0000
  H   H42       1.0  0.58329  0.26305  0.54395  1.0000
  H   H43       1.0  0.08329  0.26305  0.95605  1.0000
  H   H44       1.0  0.41671  0.73695  0.45605  1.0000
  H   H45       1.0  0.76096  0.78769  0.03117  1.0000
  H   H46       1.0  0.73905  0.21232  0.53117  1.0000
  H   H47       1.0  0.23905  0.21232  0.96883  1.0000
  H   H48       1.0  0.26096  0.78769  0.46883  1.0000
  H   H49       1.0  0.72602  0.81335  0.26430  1.0000
  H   H50       1.0  0.77398  0.18665  0.76430  1.0000
  H   H51       1.0  0.27398  0.18665  0.73570  1.0000
  H   H52       1.0  0.22602  0.81335  0.23570  1.0000
  H   H53       1.0  0.82352  0.01594  0.37665  1.0000
  H   H54       1.0  0.67648  0.98406  0.87665  1.0000
  H   H55       1.0  0.17648  0.98406  0.62335  1.0000
  H   H56       1.0  0.32352  0.01594  0.12335  1.0000
  H   H57       1.0  0.13530  0.39462  0.15808  1.0000
  H   H58       1.0  0.36470  0.60538  0.65808  1.0000
  H   H59       1.0  0.86470  0.60538  0.84192  1.0000
  H   H60       1.0  0.63530  0.39462  0.34192  1.0000
  H   H61       1.0  0.06492  0.62843  0.14683  1.0000
  H   H62       1.0  0.43508  0.37157  0.64683  1.0000
  H   H63       1.0  0.93508  0.37157  0.85317  1.0000
  H   H64       1.0  0.56492  0.62843  0.35317  1.0000
  H   H65       1.0  0.92899  0.65501  0.31625  1.0000
  H   H66       1.0  0.57101  0.34499  0.81625  1.0000
  H   H67       1.0  0.07101  0.34499  0.68375  1.0000
  H   H68       1.0  0.42899  0.65501  0.18375  1.0000
  H   H69       1.0  0.91966  0.43649  0.43641  1.0000
  H   H70       1.0  0.58034  0.56351  0.93641  1.0000
  H   H71       1.0  0.08034  0.56351  0.56359  1.0000
  H   H72       1.0  0.41966  0.43649  0.06359  1.0000
  C   C1        1.0  0.05638  0.24242  0.35384  1.0000
  C   C2        1.0  0.44362  0.75758  0.85384  1.0000
  C   C3        1.0  0.94363  0.75758  0.64616  1.0000
  C   C4        1.0  0.55637  0.24242  0.14616  1.0000
  C   C5        1.0  0.23691  0.14717  0.42253  1.0000
  C   C6        1.0  0.26309  0.85283  0.92253  1.0000
  C   C7        1.0  0.76309  0.85283  0.57747  1.0000
  C   C8        1.0  0.73691  0.14717  0.07747  1.0000
  C   C9        1.0  0.24696  0.37858  0.46399  1.0000
  C   C10       1.0  0.25304  0.62142  0.96399  1.0000
  C   C11       1.0  0.75304  0.62142  0.53601  1.0000
  C   C12       1.0  0.74696  0.37858  0.03601  1.0000
  C   C13       1.0  0.00641  0.11789  0.28430  1.0000
  C   C14       1.0  0.49360  0.88212  0.78430  1.0000
  C   C15       1.0  0.99360  0.88212  0.71570  1.0000
  C   C16       1.0  0.50641  0.11788  0.21570  1.0000
  C   C17       1.0  0.07829  0.10602  0.19586  1.0000
  C   C18       1.0  0.42171  0.89398  0.69586  1.0000
  C   C19       1.0  0.92171  0.89398  0.80414  1.0000
  C   C20       1.0  0.57829  0.10602  0.30414  1.0000
  C   C21       1.0  0.02432  0.99105  0.13321  1.0000
  C   C22       1.0  0.47568  0.00895  0.63321  1.0000
  C   C23       1.0  0.97568  0.00895  0.86679  1.0000
  C   C24       1.0  0.52432  0.99105  0.36679  1.0000
  C   C25       1.0  0.89613  0.88439  0.15564  1.0000
  C   C26       1.0  0.60387  0.11561  0.65563  1.0000
  C   C27       1.0  0.10387  0.11560  0.84437  1.0000
  C   C28       1.0  0.39613  0.88439  0.34436  1.0000
  C   C29       1.0  0.83313  0.76351  0.08622  1.0000
  C   C30       1.0  0.66687  0.23649  0.58622  1.0000
  C   C31       1.0  0.16687  0.23649  0.91378  1.0000
  C   C32       1.0  0.33313  0.76351  0.41378  1.0000
  C   C33       1.0  0.82546  0.89536  0.24473  1.0000
  C   C34       1.0  0.67454  0.10464  0.74472  1.0000
  C   C35       1.0  0.17455  0.10464  0.75528  1.0000
  C   C36       1.0  0.32546  0.89536  0.25527  1.0000
  C   C37       1.0  0.88045  0.00966  0.30771  1.0000
  C   C38       1.0  0.61955  0.99034  0.80771  1.0000
  C   C39       1.0  0.11955  0.99034  0.69229  1.0000
  C   C40       1.0  0.38045  0.00965  0.19229  1.0000
  C   C41       1.0  0.03283  0.37054  0.31065  1.0000
  C   C42       1.0  0.46717  0.62946  0.81065  1.0000
  C   C43       1.0  0.96717  0.62946  0.68935  1.0000
  C   C44       1.0  0.53283  0.37054  0.18935  1.0000
  C   C45       1.0  0.08165  0.43409  0.21652  1.0000
  C   C46       1.0  0.41835  0.56591  0.71652  1.0000
  C   C47       1.0  0.91835  0.56591  0.78349  1.0000
  C   C48       1.0  0.58165  0.43409  0.28348  1.0000
  C   C49       1.0  0.04443  0.55783  0.21026  1.0000
  C   C50       1.0  0.45557  0.44217  0.71026  1.0000
  C   C51       1.0  0.95557  0.44217  0.78974  1.0000
  C   C52       1.0  0.54443  0.55783  0.28974  1.0000
  C   C53       1.0  0.97269  0.57167  0.29966  1.0000
  C   C54       1.0  0.52731  0.42833  0.79966  1.0000
  C   C55       1.0  0.02731  0.42833  0.70034  1.0000
  C   C56       1.0  0.47269  0.57167  0.20034  1.0000
  C   C57       1.0  0.96554  0.45635  0.36168  1.0000
  C   C58       1.0  0.53446  0.54365  0.86168  1.0000
  C   C59       1.0  0.03446  0.54365  0.63832  1.0000
  C   C60       1.0  0.46554  0.45635  0.13832  1.0000
  N   N1        1.0  0.21103  0.27282  0.38426  1.0000
  N   N2        1.0  0.28897  0.72719  0.88426  1.0000
  N   N3        1.0  0.78897  0.72718  0.61574  1.0000
  N   N4        1.0  0.71103  0.27282  0.11574  1.0000
