data_image0
_chemical_formula_structural       Zn4H52C48S4N12O24
_chemical_formula_sum              "Zn4 H52 C48 S4 N12 O24"
_cell_length_a       6.65826
_cell_length_b       10.2819
_cell_length_c       21.795
_cell_angle_alpha    93.9368
_cell_angle_beta     90
_cell_angle_gamma    90

_space_group_name_H-M_alt    "P 1"
_space_group_IT_number       1

loop_
  _space_group_symop_operation_xyz
  'x, y, z'

loop_
  _atom_site_type_symbol
  _atom_site_label
  _atom_site_symmetry_multiplicity
  _atom_site_fract_x
  _atom_site_fract_y
  _atom_site_fract_z
  _atom_site_occupancy
  Zn  Zn1       1.0  0.80106  0.42663  0.84645  1.0000
  Zn  Zn2       1.0  0.30106  0.07337  0.65356  1.0000
  Zn  Zn3       1.0  0.19894  0.57337  0.15355  1.0000
  Zn  Zn4       1.0  0.69894  0.92663  0.34645  1.0000
  H   H1        1.0  0.72308  0.53936  0.01980  1.0000
  H   H2        1.0  0.22307  0.96064  0.48020  1.0000
  H   H3        1.0  0.27693  0.46064  0.98020  1.0000
  H   H4        1.0  0.77693  0.03936  0.51980  1.0000
  H   H5        1.0  0.01501  0.24918  0.79806  1.0000
  H   H6        1.0  0.51501  0.25082  0.70194  1.0000
  H   H7        1.0  0.98499  0.75082  0.20194  1.0000
  H   H8        1.0  0.48499  0.74918  0.29806  1.0000
  H   H9        1.0  0.84475  0.26469  0.74459  1.0000
  H   H10       1.0  0.34475  0.23531  0.75541  1.0000
  H   H11       1.0  0.15525  0.73531  0.25541  1.0000
  H   H12       1.0  0.65525  0.76469  0.24459  1.0000
  H   H13       1.0  0.80552  0.45762  0.71687  1.0000
  H   H14       1.0  0.30551  0.04238  0.78313  1.0000
  H   H15       1.0  0.19448  0.54238  0.28313  1.0000
  H   H16       1.0  0.69448  0.95762  0.21687  1.0000
  H   H17       1.0  0.79893  0.62151  0.63959  1.0000
  H   H18       1.0  0.29893  0.87849  0.86041  1.0000
  H   H19       1.0  0.20107  0.37849  0.36041  1.0000
  H   H20       1.0  0.70107  0.12151  0.13959  1.0000
  H   H21       1.0  0.79397  0.86200  0.67676  1.0000
  H   H22       1.0  0.29397  0.63801  0.82324  1.0000
  H   H23       1.0  0.20603  0.13801  0.32324  1.0000
  H   H24       1.0  0.70603  0.36199  0.17676  1.0000
  H   H25       1.0  0.79816  0.02525  0.75942  1.0000
  H   H26       1.0  0.29817  0.47475  0.74058  1.0000
  H   H27       1.0  0.20183  0.97475  0.24058  1.0000
  H   H28       1.0  0.70183  0.52525  0.25942  1.0000
  H   H29       1.0  0.78687  0.09113  0.87192  1.0000
  H   H30       1.0  0.28687  0.40887  0.62808  1.0000
  H   H31       1.0  0.21313  0.90887  0.12808  1.0000
  H   H32       1.0  0.71313  0.59113  0.37192  1.0000
  H   H33       1.0  0.77378  0.91936  0.94641  1.0000
  H   H34       1.0  0.27378  0.58064  0.55359  1.0000
  H   H35       1.0  0.22622  0.08064  0.05359  1.0000
  H   H36       1.0  0.72622  0.41936  0.44641  1.0000
  H   H37       1.0  0.76114  0.72525  0.97644  1.0000
  H   H38       1.0  0.26114  0.77475  0.52356  1.0000
  H   H39       1.0  0.23886  0.27475  0.02356  1.0000
  H   H40       1.0  0.73886  0.22525  0.47644  1.0000
  H   H41       1.0  0.71630  0.34724  0.07026  1.0000
  H   H42       1.0  0.21631  0.15276  0.42974  1.0000
  H   H43       1.0  0.28369  0.65276  0.92974  1.0000
  H   H44       1.0  0.78369  0.84724  0.57026  1.0000
  H   H45       1.0  0.85748  0.21369  0.03530  1.0000
  H   H46       1.0  0.35749  0.28631  0.46470  1.0000
  H   H47       1.0  0.14252  0.78631  0.96470  1.0000
  H   H48       1.0  0.64252  0.71369  0.53530  1.0000
  H   H49       1.0  0.59608  0.22233  0.02124  1.0000
  H   H50       1.0  0.09609  0.27767  0.47876  1.0000
  H   H51       1.0  0.40392  0.77767  0.97876  1.0000
  H   H52       1.0  0.90392  0.72233  0.52124  1.0000
  C   C1        1.0  0.80141  0.56073  0.73220  1.0000
  C   C2        1.0  0.30141  0.93927  0.76780  1.0000
  C   C3        1.0  0.19859  0.43927  0.26780  1.0000
  C   C4        1.0  0.69859  0.06073  0.23220  1.0000
  C   C5        1.0  0.79835  0.65408  0.68817  1.0000
  C   C6        1.0  0.29835  0.84592  0.81183  1.0000
  C   C7        1.0  0.20165  0.34592  0.31183  1.0000
  C   C8        1.0  0.70165  0.15408  0.18817  1.0000
  C   C9        1.0  0.79677  0.78383  0.70815  1.0000
  C   C10       1.0  0.29677  0.71617  0.79185  1.0000
  C   C11       1.0  0.20323  0.21617  0.29185  1.0000
  C   C12       1.0  0.70323  0.28383  0.20815  1.0000
  C   C13       1.0  0.79492  0.81904  0.77214  1.0000
  C   C14       1.0  0.29492  0.68096  0.72786  1.0000
  C   C15       1.0  0.20508  0.18096  0.22786  1.0000
  C   C16       1.0  0.70507  0.31904  0.27214  1.0000
  C   C17       1.0  0.79318  0.95245  0.79335  1.0000
  C   C18       1.0  0.29318  0.54755  0.70666  1.0000
  C   C19       1.0  0.20682  0.04755  0.20665  1.0000
  C   C20       1.0  0.70682  0.45245  0.29334  1.0000
  C   C21       1.0  0.78754  0.98864  0.85540  1.0000
  C   C22       1.0  0.28754  0.51136  0.64460  1.0000
  C   C23       1.0  0.21246  0.01136  0.14460  1.0000
  C   C24       1.0  0.71246  0.48864  0.35540  1.0000
  C   C25       1.0  0.78162  0.89093  0.89723  1.0000
  C   C26       1.0  0.28162  0.60906  0.60277  1.0000
  C   C27       1.0  0.21838  0.10906  0.10277  1.0000
  C   C28       1.0  0.71838  0.39093  0.39723  1.0000
  C   C29       1.0  0.78414  0.75734  0.87941  1.0000
  C   C30       1.0  0.28414  0.74266  0.62059  1.0000
  C   C31       1.0  0.21586  0.24266  0.12059  1.0000
  C   C32       1.0  0.71586  0.25734  0.37941  1.0000
  C   C33       1.0  0.79349  0.71834  0.81459  1.0000
  C   C34       1.0  0.29349  0.78166  0.68541  1.0000
  C   C35       1.0  0.20651  0.28166  0.18541  1.0000
  C   C36       1.0  0.70651  0.21834  0.31459  1.0000
  C   C37       1.0  0.77280  0.67466  0.93053  1.0000
  C   C38       1.0  0.27280  0.82534  0.56947  1.0000
  C   C39       1.0  0.22720  0.32534  0.06947  1.0000
  C   C40       1.0  0.72720  0.17466  0.43053  1.0000
  C   C41       1.0  0.76918  0.35187  0.97221  1.0000
  C   C42       1.0  0.26918  0.14813  0.52779  1.0000
  C   C43       1.0  0.23082  0.64813  0.02779  1.0000
  C   C44       1.0  0.73082  0.85187  0.47221  1.0000
  C   C45       1.0  0.73263  0.28112  0.02895  1.0000
  C   C46       1.0  0.23264  0.21889  0.47105  1.0000
  C   C47       1.0  0.26736  0.71889  0.97105  1.0000
  C   C48       1.0  0.76736  0.78111  0.52895  1.0000
  S   S1        1.0  0.30465  0.36389  0.86306  1.0000
  S   S2        1.0  0.80464  0.13611  0.63694  1.0000
  S   S3        1.0  0.69536  0.63611  0.13694  1.0000
  S   S4        1.0  0.19535  0.86389  0.36306  1.0000
  N   N1        1.0  0.79946  0.59012  0.79279  1.0000
  N   N2        1.0  0.29947  0.90988  0.70721  1.0000
  N   N3        1.0  0.20054  0.40988  0.20721  1.0000
  N   N4        1.0  0.70053  0.09012  0.29279  1.0000
  N   N5        1.0  0.77424  0.54851  0.92623  1.0000
  N   N6        1.0  0.27424  0.95149  0.57377  1.0000
  N   N7        1.0  0.22576  0.45149  0.07377  1.0000
  N   N8        1.0  0.72576  0.04851  0.42623  1.0000
  N   N9        1.0  0.75654  0.48444  0.97841  1.0000
  N   N10       1.0  0.25654  0.01556  0.52159  1.0000
  N   N11       1.0  0.24346  0.51556  0.02159  1.0000
  N   N12       1.0  0.74346  0.98444  0.47841  1.0000
  O   O1        1.0  0.80842  0.29297  0.92164  1.0000
  O   O2        1.0  0.30842  0.20703  0.57836  1.0000
  O   O3        1.0  0.19159  0.70703  0.07836  1.0000
  O   O4        1.0  0.69159  0.79297  0.42164  1.0000
  O   O5        1.0  0.48669  0.41833  0.83385  1.0000
  O   O6        1.0  0.98669  0.08166  0.66615  1.0000
  O   O7        1.0  0.51331  0.58167  0.16615  1.0000
  O   O8        1.0  0.01331  0.91833  0.33385  1.0000
  O   O9        1.0  0.34331  0.33911  0.92827  1.0000
  O   O10       1.0  0.84332  0.16089  0.57174  1.0000
  O   O11       1.0  0.65669  0.66089  0.07173  1.0000
  O   O12       1.0  0.15669  0.83911  0.42827  1.0000
  O   O13       1.0  0.24846  0.23891  0.82697  1.0000
  O   O14       1.0  0.74846  0.26109  0.67303  1.0000
  O   O15       1.0  0.75154  0.76109  0.17303  1.0000
  O   O16       1.0  0.25154  0.73891  0.32697  1.0000
  O   O17       1.0  0.13885  0.46074  0.85908  1.0000
  O   O18       1.0  0.63885  0.03925  0.64092  1.0000
  O   O19       1.0  0.86115  0.53925  0.14092  1.0000
  O   O20       1.0  0.36115  0.96074  0.35908  1.0000
  O   O21       1.0  0.87086  0.26935  0.78986  1.0000
  O   O22       1.0  0.37086  0.23064  0.71014  1.0000
  O   O23       1.0  0.12914  0.73065  0.21014  1.0000
  O   O24       1.0  0.62914  0.76935  0.28986  1.0000
