data_image0
_chemical_formula_structural       Cd2H24C16N20O4
_chemical_formula_sum              "Cd2 H24 C16 N20 O4"
_cell_length_a       8.74144
_cell_length_b       9.25359
_cell_length_c       10.4888
_cell_angle_alpha    63.8364
_cell_angle_beta     79.3887
_cell_angle_gamma    65.3311

_space_group_name_H-M_alt    "P 1"
_space_group_IT_number       1

loop_
  _space_group_symop_operation_xyz
  'x, y, z'

loop_
  _atom_site_type_symbol
  _atom_site_label
  _atom_site_symmetry_multiplicity
  _atom_site_fract_x
  _atom_site_fract_y
  _atom_site_fract_z
  _atom_site_occupancy
  Cd  Cd1       1.0  0.09349  0.10249  0.26083  1.0000
  Cd  Cd2       1.0  0.59356  0.36350  0.73912  1.0000
  H   H1        1.0  0.51543  0.00377  0.21053  1.0000
  H   H2        1.0  0.01549  0.21463  0.78927  1.0000
  H   H3        1.0  0.18370  0.62017  0.70269  1.0000
  H   H4        1.0  0.68370  0.32308  0.29731  1.0000
  H   H5        1.0  0.65409  0.78155  0.74895  1.0000
  H   H6        1.0  0.15414  0.53008  0.25145  1.0000
  H   H7        1.0  0.67285  0.95135  0.58640  1.0000
  H   H8        1.0  0.17295  0.53717  0.41410  1.0000
  H   H9        1.0  0.78751  0.88760  0.73911  1.0000
  H   H10       1.0  0.28747  0.62637  0.26134  1.0000
  H   H11       1.0  0.83374  0.66277  0.57722  1.0000
  H   H12       1.0  0.33410  0.23956  0.42286  1.0000
  H   H13       1.0  0.95119  0.58915  0.73115  1.0000
  H   H14       1.0  0.45140  0.32026  0.26891  1.0000
  H   H15       1.0  0.86426  0.55057  0.21143  1.0000
  H   H16       1.0  0.36452  0.76231  0.78817  1.0000
  H   H17       1.0  0.78603  0.67497  0.03570  1.0000
  H   H18       1.0  0.28611  0.71071  0.96388  1.0000
  H   H19       1.0  0.64461  0.67619  0.18180  1.0000
  H   H20       1.0  0.14481  0.85812  0.81774  1.0000
  H   H21       1.0  0.92522  0.82213  0.10219  1.0000
  H   H22       1.0  0.42504  0.92433  0.89805  1.0000
  H   H23       1.0  0.78549  0.82413  0.24829  1.0000
  H   H24       1.0  0.28566  0.07251  0.75176  1.0000
  C   C1        1.0  0.74220  0.83998  0.68030  1.0000
  C   C2        1.0  0.24224  0.51987  0.32011  1.0000
  C   C3        1.0  0.88649  0.70390  0.63681  1.0000
  C   C4        1.0  0.38668  0.34044  0.36336  1.0000
  C   C5        1.0  0.00950  0.77857  0.53932  1.0000
  C   C6        1.0  0.50968  0.31765  0.46084  1.0000
  C   C7        1.0  0.30327  0.75057  0.52965  1.0000
  C   C8        1.0  0.80337  0.28037  0.47032  1.0000
  C   C9        1.0  0.77083  0.67346  0.14237  1.0000
  C   C10       1.0  0.27097  0.81596  0.85730  1.0000
  C   C11       1.0  0.79812  0.82769  0.14086  1.0000
  C   C12       1.0  0.29806  0.96862  0.85914  1.0000
  C   C13       1.0  0.67528  0.99669  0.03998  1.0000
  C   C14       1.0  0.17494  0.03664  0.95997  1.0000
  C   C15       1.0  0.39373  0.22094  0.03406  1.0000
  C   C16       1.0  0.89364  0.25527  0.96580  1.0000
  N   N1        1.0  0.22796  0.45986  0.88185  1.0000
  N   N2        1.0  0.72786  0.34186  0.11814  1.0000
  N   N3        1.0  0.38523  0.33584  0.89855  1.0000
  N   N4        1.0  0.88510  0.23454  0.10138  1.0000
  N   N5        1.0  0.14436  0.42222  0.00047  1.0000
  N   N6        1.0  0.64429  0.42297  0.99950  1.0000
  N   N7        1.0  0.24528  0.27139  0.09977  1.0000
  N   N8        1.0  0.74522  0.37153  0.90012  1.0000
  N   N9        1.0  0.53061  0.07327  0.10207  1.0000
  N   N10       1.0  0.03056  0.17561  0.89779  1.0000
  N   N11       1.0  0.30584  0.88517  0.40763  1.0000
  N   N12       1.0  0.80597  0.29307  0.59229  1.0000
  N   N13       1.0  0.46910  0.86729  0.38559  1.0000
  N   N14       1.0  0.96923  0.25310  0.61430  1.0000
  N   N15       1.0  0.16540  0.71262  0.59707  1.0000
  N   N16       1.0  0.66546  0.30984  0.40295  1.0000
  N   N17       1.0  0.46103  0.65189  0.58198  1.0000
  N   N18       1.0  0.96113  0.23397  0.41794  1.0000
  N   N19       1.0  0.56153  0.72872  0.48852  1.0000
  N   N20       1.0  0.06165  0.21737  0.51136  1.0000
  O   O1        1.0  0.70373  0.05608  0.90982  1.0000
  O   O2        1.0  0.20301  0.96561  0.09022  1.0000
  O   O3        1.0  0.96912  0.89173  0.41622  1.0000
  O   O4        1.0  0.46939  0.30746  0.58405  1.0000
