data_image0
_chemical_formula_structural       Mn2H24C16N20O4
_chemical_formula_sum              "Mn2 H24 C16 N20 O4"
_cell_length_a       8.58445
_cell_length_b       9.61179
_cell_length_c       10.2203
_cell_angle_alpha    106.156
_cell_angle_beta     101.834
_cell_angle_gamma    117.189

_space_group_name_H-M_alt    "P 1"
_space_group_IT_number       1

loop_
  _space_group_symop_operation_xyz
  'x, y, z'

loop_
  _atom_site_type_symbol
  _atom_site_label
  _atom_site_symmetry_multiplicity
  _atom_site_fract_x
  _atom_site_fract_y
  _atom_site_fract_z
  _atom_site_occupancy
  Mn  Mn1       1.0  0.92054  0.50928  0.73732  1.0000
  Mn  Mn2       1.0  0.68275  0.77175  0.26259  1.0000
  H   H1        1.0  0.52815  0.03715  0.28843  1.0000
  H   H2        1.0  0.73926  0.74836  0.71139  1.0000
  H   H3        1.0  0.95521  0.61148  0.21201  1.0000
  H   H4        1.0  0.24317  0.39944  0.78800  1.0000
  H   H5        1.0  0.23781  0.09100  0.42719  1.0000
  H   H6        1.0  0.31021  0.66400  0.57284  1.0000
  H   H7        1.0  0.27863  0.03904  0.26215  1.0000
  H   H8        1.0  0.51603  0.77651  0.73783  1.0000
  H   H9        1.0  0.16033  0.23471  0.28283  1.0000
  H   H10       1.0  0.37811  0.95244  0.71741  1.0000
  H   H11       1.0  0.39583  0.34630  0.28950  1.0000
  H   H12       1.0  0.60687  0.05671  0.71059  1.0000
  H   H13       1.0  0.35242  0.39036  0.45519  1.0000
  H   H14       1.0  0.39776  0.93551  0.54501  1.0000
  H   H15       1.0  0.08377  0.45211  0.23063  1.0000
  H   H16       1.0  0.35289  0.22125  0.76968  1.0000
  H   H17       1.0  0.04389  0.28929  0.06761  1.0000
  H   H18       1.0  0.47567  0.22142  0.93288  1.0000
  H   H19       1.0  0.83014  0.15424  0.18893  1.0000
  H   H20       1.0  0.14073  0.96505  0.81109  1.0000
  H   H21       1.0  0.69321  0.11949  0.01498  1.0000
  H   H22       1.0  0.17739  0.10394  0.98498  1.0000
  H   H23       1.0  0.73279  0.28168  0.17908  1.0000
  H   H24       1.0  0.05309  0.10221  0.82088  1.0000
  C   C1        1.0  0.78309  0.16153  0.46616  1.0000
  C   C2        1.0  0.81663  0.69532  0.53376  1.0000
  C   C3        1.0  0.52841  0.21082  0.46336  1.0000
  C   C4        1.0  0.56452  0.74721  0.53656  1.0000
  C   C5        1.0  0.32847  0.14473  0.36926  1.0000
  C   C6        1.0  0.45891  0.77535  0.63081  1.0000
  C   C7        1.0  0.30936  0.28845  0.34798  1.0000
  C   C8        1.0  0.46177  0.94065  0.65218  1.0000
  C   C9        1.0  0.87628  0.66417  0.03598  1.0000
  C   C10       1.0  0.34037  0.62826  0.96390  1.0000
  C   C11       1.0  0.93437  0.43651  0.02530  1.0000
  C   C12       1.0  0.40847  0.41091  0.97485  1.0000
  C   C13       1.0  0.97962  0.35305  0.11879  1.0000
  C   C14       1.0  0.36028  0.23397  0.88145  1.0000
  C   C15       1.0  0.79760  0.21969  0.12595  1.0000
  C   C16       1.0  0.17102  0.09339  0.87409  1.0000
  N   N1        1.0  0.92415  0.29810  0.59090  1.0000
  N   N2        1.0  0.83278  0.70704  0.40893  1.0000
  N   N3        1.0  0.06600  0.26970  0.61343  1.0000
  N   N4        1.0  0.95232  0.65634  0.38647  1.0000
  N   N5        1.0  0.01397  0.12416  0.50887  1.0000
  N   N6        1.0  0.00511  0.61560  0.49115  1.0000
  N   N7        1.0  0.83523  0.05162  0.41247  1.0000
  N   N8        1.0  0.92274  0.63936  0.58755  1.0000
  N   N9        1.0  0.60829  0.13245  0.39866  1.0000
  N   N10       1.0  0.70913  0.73351  0.60116  1.0000
  N   N11       1.0  0.85299  0.65065  0.89820  1.0000
  N   N12       1.0  0.45465  0.75242  0.10169  1.0000
  N   N13       1.0  0.80341  0.76329  0.88762  1.0000
  N   N14       1.0  0.41591  0.87581  0.11210  1.0000
  N   N15       1.0  0.93119  0.57643  0.09904  1.0000
  N   N16       1.0  0.33197  0.47729  0.90098  1.0000
  N   N17       1.0  0.79620  0.84027  0.01119  1.0000
  N   N18       1.0  0.28545  0.82935  0.98838  1.0000
  N   N19       1.0  0.84067  0.78000  0.10877  1.0000
  N   N20       1.0  0.23230  0.67145  0.89090  1.0000
  O   O1        1.0  0.89594  0.37582  0.88918  1.0000
  O   O2        1.0  0.50595  0.48628  0.11099  1.0000
  O   O3        1.0  0.61197  0.32804  0.59239  1.0000
  O   O4        1.0  0.51915  0.73572  0.40762  1.0000
