data_image0
_chemical_formula_structural       Cd2H16C12N20O4
_chemical_formula_sum              "Cd2 H16 C12 N20 O4"
_cell_length_a       7.9437
_cell_length_b       8.86443
_cell_length_c       10.4375
_cell_angle_alpha    80.1707
_cell_angle_beta     67.6241
_cell_angle_gamma    63.3637

_space_group_name_H-M_alt    "P 1"
_space_group_IT_number       1

loop_
  _space_group_symop_operation_xyz
  'x, y, z'

loop_
  _atom_site_type_symbol
  _atom_site_label
  _atom_site_symmetry_multiplicity
  _atom_site_fract_x
  _atom_site_fract_y
  _atom_site_fract_z
  _atom_site_occupancy
  Cd  Cd1       1.0  0.56721  0.49999  0.49997  1.0000
  Cd  Cd2       1.0  0.81727  0.00003  0.00001  1.0000
  H   H1        1.0  0.65302  0.42111  0.04373  1.0000
  H   H2        1.0  0.11796  0.57893  0.95628  1.0000
  H   H3        1.0  0.82414  0.07905  0.54377  1.0000
  H   H4        1.0  0.44695  0.92086  0.45618  1.0000
  H   H5        1.0  0.40884  0.66384  0.01284  1.0000
  H   H6        1.0  0.08542  0.33625  0.98713  1.0000
  H   H7        1.0  0.82229  0.83628  0.51308  1.0000
  H   H8        1.0  0.17168  0.16357  0.48713  1.0000
  H   H9        1.0  0.46379  0.79715  0.08312  1.0000
  H   H10       1.0  0.34404  0.20290  0.91687  1.0000
  H   H11       1.0  0.01053  0.70301  0.58344  1.0000
  H   H12       1.0  0.29700  0.29680  0.41669  1.0000
  H   H13       1.0  0.22234  0.79742  0.16010  1.0000
  H   H14       1.0  0.17985  0.20272  0.83986  1.0000
  H   H15       1.0  0.76926  0.70293  0.66047  1.0000
  H   H16       1.0  0.13238  0.29712  0.33988  1.0000
  C   C1        1.0  0.71239  0.29693  0.21796  1.0000
  C   C2        1.0  0.22725  0.70311  0.78200  1.0000
  C   C3        1.0  0.75936  0.20321  0.71798  1.0000
  C   C4        1.0  0.68061  0.79672  0.28191  1.0000
  C   C5        1.0  0.45586  0.58411  0.21004  1.0000
  C   C6        1.0  0.24982  0.41605  0.78995  1.0000
  C   C7        1.0  0.78956  0.91624  0.71017  1.0000
  C   C8        1.0  0.41591  0.08375  0.28987  1.0000
  C   C9        1.0  0.38193  0.71696  0.10985  1.0000
  C   C10       1.0  0.20872  0.28313  0.89012  1.0000
  C   C11       1.0  0.84846  0.78328  0.61015  1.0000
  C   C12       1.0  0.24182  0.21659  0.39004  1.0000
  N   N1        1.0  0.83352  0.12909  0.36676  1.0000
  N   N2        1.0  0.32957  0.87082  0.63320  1.0000
  N   N3        1.0  0.71279  0.37096  0.86674  1.0000
  N   N4        1.0  0.95061  0.62894  0.13315  1.0000
  N   N5        1.0  0.70505  0.28873  0.34938  1.0000
  N   N6        1.0  0.34316  0.71128  0.65056  1.0000
  N   N7        1.0  0.74393  0.21138  0.84939  1.0000
  N   N8        1.0  0.80470  0.78855  0.15050  1.0000
  N   N9        1.0  0.84081  0.14590  0.15566  1.0000
  N   N10       1.0  0.14242  0.85410  0.84432  1.0000
  N   N11       1.0  0.73668  0.35423  0.65567  1.0000
  N   N12       1.0  0.74672  0.64571  0.34424  1.0000
  N   N13       1.0  0.91347  0.04405  0.25241  1.0000
  N   N14       1.0  0.21015  0.95586  0.74756  1.0000
  N   N15       1.0  0.70758  0.45603  0.75240  1.0000
  N   N16       1.0  0.91618  0.54389  0.24751  1.0000
  N   N17       1.0  0.61168  0.43540  0.15045  1.0000
  N   N18       1.0  0.19749  0.56468  0.84952  1.0000
  N   N19       1.0  0.79704  0.06478  0.65051  1.0000
  N   N20       1.0  0.51230  0.93512  0.34944  1.0000
  O   O1        1.0  0.38302  0.61076  0.33735  1.0000
  O   O2        1.0  0.33067  0.38952  0.66260  1.0000
  O   O3        1.0  0.74310  0.88982  0.83756  1.0000
  O   O4        1.0  0.47035  0.11037  0.16253  1.0000
