data_image0
_chemical_formula_structural       Cu2H16C12N20O4
_chemical_formula_sum              "Cu2 H16 C12 N20 O4"
_cell_length_a       7.0927
_cell_length_b       8.17086
_cell_length_c       9.04314
_cell_angle_alpha    90.0001
_cell_angle_beta     90.0003
_cell_angle_gamma    101.814

_space_group_name_H-M_alt    "P 1"
_space_group_IT_number       1

loop_
  _space_group_symop_operation_xyz
  'x, y, z'

loop_
  _atom_site_type_symbol
  _atom_site_label
  _atom_site_symmetry_multiplicity
  _atom_site_fract_x
  _atom_site_fract_y
  _atom_site_fract_z
  _atom_site_occupancy
  Cu  Cu1       1.0  1.00000  0.50000  0.00000  1.0000
  Cu  Cu2       1.0  0.50000  1.00000  0.50000  1.0000
  H   H1        1.0  0.51531  0.64566  0.21839  1.0000
  H   H2        1.0  0.98469  0.85435  0.71839  1.0000
  H   H3        1.0  0.48469  0.35434  0.78161  1.0000
  H   H4        1.0  0.01531  0.14566  0.28161  1.0000
  H   H5        1.0  0.53729  0.88383  0.10293  1.0000
  H   H6        1.0  0.96271  0.61617  0.60292  1.0000
  H   H7        1.0  0.46271  0.11617  0.89708  1.0000
  H   H8        1.0  0.03729  0.38383  0.39707  1.0000
  H   H9        1.0  0.59384  0.87300  0.91065  1.0000
  H   H10       1.0  0.90616  0.62700  0.41065  1.0000
  H   H11       1.0  0.40616  0.12700  0.08935  1.0000
  H   H12       1.0  0.09384  0.37300  0.58935  1.0000
  H   H13       1.0  0.77593  0.96484  0.03785  1.0000
  H   H14       1.0  0.72408  0.53516  0.53785  1.0000
  H   H15       1.0  0.22407  0.03516  0.96215  1.0000
  H   H16       1.0  0.27593  0.46484  0.46215  1.0000
  C   C1        1.0  0.64719  0.86569  0.02361  1.0000
  C   C2        1.0  0.85282  0.63432  0.52361  1.0000
  C   C3        1.0  0.35282  0.13431  0.97639  1.0000
  C   C4        1.0  0.14718  0.36569  0.47639  1.0000
  C   C5        1.0  0.70444  0.70162  0.04377  1.0000
  C   C6        1.0  0.79556  0.79838  0.54377  1.0000
  C   C7        1.0  0.29556  0.29838  0.95623  1.0000
  C   C8        1.0  0.20445  0.20162  0.45623  1.0000
  C   C9        1.0  0.66123  0.45195  0.19469  1.0000
  C   C10       1.0  0.83877  0.04805  0.69469  1.0000
  C   C11       1.0  0.33877  0.54805  0.80531  1.0000
  C   C12       1.0  0.16123  0.95195  0.30531  1.0000
  N   N1        1.0  0.61816  0.60331  0.15505  1.0000
  N   N2        1.0  0.88184  0.89669  0.65505  1.0000
  N   N3        1.0  0.38184  0.39669  0.84495  1.0000
  N   N4        1.0  0.11816  0.10331  0.34495  1.0000
  N   N5        1.0  0.65150  0.22040  0.30415  1.0000
  N   N6        1.0  0.84850  0.27960  0.80415  1.0000
  N   N7        1.0  0.34850  0.77960  0.69585  1.0000
  N   N8        1.0  0.15150  0.72040  0.19585  1.0000
  N   N9        1.0  0.55816  0.34813  0.29307  1.0000
  N   N10       1.0  0.94184  0.15188  0.79307  1.0000
  N   N11       1.0  0.44184  0.65187  0.70693  1.0000
  N   N12       1.0  0.05816  0.84813  0.20693  1.0000
  N   N13       1.0  0.81295  0.39179  0.14554  1.0000
  N   N14       1.0  0.68705  0.10821  0.64554  1.0000
  N   N15       1.0  0.18705  0.60821  0.85446  1.0000
  N   N16       1.0  0.31295  0.89179  0.35446  1.0000
  N   N17       1.0  0.80314  0.24449  0.21663  1.0000
  N   N18       1.0  0.69686  0.25551  0.71663  1.0000
  N   N19       1.0  0.19686  0.75551  0.78337  1.0000
  N   N20       1.0  0.30314  0.74449  0.28337  1.0000
  O   O1        1.0  0.82603  0.66012  0.95751  1.0000
  O   O2        1.0  0.67397  0.83988  0.45751  1.0000
  O   O3        1.0  0.17397  0.33988  0.04250  1.0000
  O   O4        1.0  0.32603  0.16012  0.54249  1.0000
