data_image0
_chemical_formula_structural       Cu2H32C36N4O12
_chemical_formula_sum              "Cu2 H32 C36 N4 O12"
_cell_length_a       9.83001
_cell_length_b       10.0641
_cell_length_c       11.0647
_cell_angle_alpha    65.6072
_cell_angle_beta     73.2634
_cell_angle_gamma    68.3283

_space_group_name_H-M_alt    "P 1"
_space_group_IT_number       1

loop_
  _space_group_symop_operation_xyz
  'x, y, z'

loop_
  _atom_site_type_symbol
  _atom_site_label
  _atom_site_symmetry_multiplicity
  _atom_site_fract_x
  _atom_site_fract_y
  _atom_site_fract_z
  _atom_site_occupancy
  Cu  Cu1       1.0  0.74059  0.21193  0.95407  1.0000
  Cu  Cu2       1.0  0.25941  0.78807  0.04594  1.0000
  H   H1        1.0  0.02983  0.64750  0.80372  1.0000
  H   H2        1.0  0.97017  0.35250  0.19627  1.0000
  H   H3        1.0  0.28839  0.41198  0.85382  1.0000
  H   H4        1.0  0.71161  0.58802  0.14616  1.0000
  H   H5        1.0  0.55510  0.39069  0.12770  1.0000
  H   H6        1.0  0.44491  0.60931  0.87230  1.0000
  H   H7        1.0  0.96118  0.02737  0.37650  1.0000
  H   H8        1.0  0.03882  0.97263  0.62351  1.0000
  H   H9        1.0  0.94842  0.03933  0.14855  1.0000
  H   H10       1.0  0.05159  0.96067  0.85146  1.0000
  H   H11       1.0  0.43514  0.49166  0.29602  1.0000
  H   H12       1.0  0.56486  0.50834  0.70398  1.0000
  H   H13       1.0  0.55718  0.50399  0.38021  1.0000
  H   H14       1.0  0.44282  0.49601  0.61979  1.0000
  H   H15       1.0  0.45592  0.36918  0.46494  1.0000
  H   H16       1.0  0.54408  0.63082  0.53506  1.0000
  H   H17       1.0  0.62301  0.06200  0.85067  1.0000
  H   H18       1.0  0.37698  0.93800  0.14933  1.0000
  H   H19       1.0  0.89881  0.34252  0.67522  1.0000
  H   H20       1.0  0.10119  0.65748  0.32478  1.0000
  H   H21       1.0  0.90577  0.34588  0.44561  1.0000
  H   H22       1.0  0.09423  0.65412  0.55439  1.0000
  H   H23       1.0  0.50632  0.10420  0.56058  1.0000
  H   H24       1.0  0.49368  0.89580  0.43942  1.0000
  H   H25       1.0  0.52885  0.98159  0.72892  1.0000
  H   H26       1.0  0.47114  0.01841  0.27109  1.0000
  H   H27       1.0  0.65948  0.93834  0.59199  1.0000
  H   H28       1.0  0.34051  0.06165  0.40802  1.0000
  H   H29       1.0  0.42023  0.28186  0.06661  1.0000
  H   H30       1.0  0.57977  0.71813  0.93339  1.0000
  H   H31       1.0  0.45176  0.19207  0.96988  1.0000
  H   H32       1.0  0.54824  0.80793  0.03012  1.0000
  C   C1        1.0  0.93806  0.46176  0.84921  1.0000
  C   C2        1.0  0.06194  0.53824  0.15078  1.0000
  C   C3        1.0  0.04727  0.52693  0.82933  1.0000
  C   C4        1.0  0.95274  0.47307  0.17067  1.0000
  C   C5        1.0  0.18005  0.40644  0.85444  1.0000
  C   C6        1.0  0.81995  0.59356  0.14555  1.0000
  C   C7        1.0  0.14485  0.27351  0.88945  1.0000
  C   C8        1.0  0.85515  0.72649  0.11054  1.0000
  C   C9        1.0  0.77754  0.52885  0.84420  1.0000
  C   C10       1.0  0.22246  0.47115  0.15580  1.0000
  C   C11       1.0  0.23532  0.11264  0.93484  1.0000
  C   C12       1.0  0.76469  0.88736  0.06516  1.0000
  C   C13       1.0  0.64208  0.30987  0.18684  1.0000
  C   C14       1.0  0.35792  0.69013  0.81316  1.0000
  C   C15       1.0  0.63837  0.31162  0.31346  1.0000
  C   C16       1.0  0.36163  0.68838  0.68654  1.0000
  C   C17       1.0  0.75518  0.20736  0.38424  1.0000
  C   C18       1.0  0.24483  0.79264  0.61576  1.0000
  C   C19       1.0  0.86824  0.10829  0.32510  1.0000
  C   C20       1.0  0.13176  0.89171  0.67490  1.0000
  C   C21       1.0  0.86265  0.11338  0.19912  1.0000
  C   C22       1.0  0.13735  0.88662  0.80088  1.0000
  C   C23       1.0  0.51458  0.42523  0.36644  1.0000
  C   C24       1.0  0.48542  0.57477  0.63356  1.0000
  C   C25       1.0  0.75861  0.20330  0.51909  1.0000
  C   C26       1.0  0.24139  0.79670  0.48091  1.0000
  C   C27       1.0  0.67746  0.12099  0.63474  1.0000
  C   C28       1.0  0.32254  0.87901  0.36526  1.0000
  C   C29       1.0  0.68333  0.12432  0.75819  1.0000
  C   C30       1.0  0.31666  0.87568  0.24181  1.0000
  C   C31       1.0  0.83823  0.28065  0.66017  1.0000
  C   C32       1.0  0.16177  0.71935  0.33983  1.0000
  C   C33       1.0  0.84118  0.28205  0.53330  1.0000
  C   C34       1.0  0.15881  0.71795  0.46670  1.0000
  C   C35       1.0  0.58787  0.03163  0.62901  1.0000
  C   C36       1.0  0.41212  0.96837  0.37099  1.0000
  N   N1        1.0  0.75023  0.21262  0.13209  1.0000
  N   N2        1.0  0.24977  0.78738  0.86791  1.0000
  N   N3        1.0  0.75964  0.20361  0.77064  1.0000
  N   N4        1.0  0.24036  0.79639  0.22936  1.0000
  O   O1        1.0  0.99702  0.30614  0.88602  1.0000
  O   O2        1.0  0.00298  0.69386  0.11398  1.0000
  O   O3        1.0  0.72771  0.67170  0.80928  1.0000
  O   O4        1.0  0.27229  0.32830  0.19072  1.0000
  O   O5        1.0  0.69578  0.44046  0.87642  1.0000
  O   O6        1.0  0.30422  0.55954  0.12359  1.0000
  O   O7        1.0  0.16334  0.01298  0.98048  1.0000
  O   O8        1.0  0.83667  0.98702  0.01952  1.0000
  O   O9        1.0  0.37193  0.08615  0.92817  1.0000
  O   O10       1.0  0.62807  0.91385  0.07183  1.0000
  O   O11       1.0  0.48627  0.26424  0.98454  1.0000
  O   O12       1.0  0.51373  0.73576  0.01546  1.0000
