data_image0
_chemical_formula_structural       Hg2H32C36N4Cl4O12
_chemical_formula_sum              "Hg2 H32 C36 N4 Cl4 O12"
_cell_length_a       7.50178
_cell_length_b       8.84888
_cell_length_c       15.5272
_cell_angle_alpha    92.1975
_cell_angle_beta     104.005
_cell_angle_gamma    89.9972

_space_group_name_H-M_alt    "P 1"
_space_group_IT_number       1

loop_
  _space_group_symop_operation_xyz
  'x, y, z'

loop_
  _atom_site_type_symbol
  _atom_site_label
  _atom_site_symmetry_multiplicity
  _atom_site_fract_x
  _atom_site_fract_y
  _atom_site_fract_z
  _atom_site_occupancy
  Hg  Hg1       1.0  0.23293  0.99993  0.99991  1.0000
  Hg  Hg2       1.0  0.73988  0.50007  0.99997  1.0000
  H   H1        1.0  0.55583  0.96328  0.17610  1.0000
  H   H2        1.0  0.38006  0.03670  0.82387  1.0000
  H   H3        1.0  0.71544  0.39595  0.31122  1.0000
  H   H4        1.0  0.40458  0.60402  0.68876  1.0000
  H   H5        1.0  0.24389  0.17048  0.32316  1.0000
  H   H6        1.0  0.92101  0.82950  0.67695  1.0000
  H   H7        1.0  0.05622  0.01905  0.18880  1.0000
  H   H8        1.0  0.86772  0.98093  0.81126  1.0000
  H   H9        1.0  0.05815  0.57583  0.18428  1.0000
  H   H10       1.0  0.87397  0.42415  0.81574  1.0000
  H   H11       1.0  0.35419  0.35112  0.04793  1.0000
  H   H12       1.0  0.30626  0.64882  0.95188  1.0000
  H   H13       1.0  0.52507  0.51996  0.17687  1.0000
  H   H14       1.0  0.34829  0.48001  0.82299  1.0000
  H   H15       1.0  0.37944  0.87376  0.29550  1.0000
  H   H16       1.0  0.08463  0.12614  0.70457  1.0000
  H   H17       1.0  0.24399  0.93453  0.37133  1.0000
  H   H18       1.0  0.87315  0.06550  0.62874  1.0000
  H   H19       1.0  0.32100  0.70592  0.45597  1.0000
  H   H20       1.0  0.86527  0.29418  0.54421  1.0000
  H   H21       1.0  0.72545  0.87483  0.52343  1.0000
  H   H22       1.0  0.20209  0.12517  0.47660  1.0000
  H   H23       1.0  0.62712  0.61738  0.48651  1.0000
  H   H24       1.0  0.14056  0.38259  0.51347  1.0000
  H   H25       1.0  0.94944  0.91324  0.44230  1.0000
  H   H26       1.0  0.50736  0.08675  0.55768  1.0000
  H   H27       1.0  0.87706  0.16321  0.06002  1.0000
  H   H28       1.0  0.81737  0.83679  0.93999  1.0000
  H   H29       1.0  0.88297  0.68665  0.30764  1.0000
  H   H30       1.0  0.57588  0.31344  0.69230  1.0000
  H   H31       1.0  0.94072  0.63886  0.42345  1.0000
  H   H32       1.0  0.51757  0.36111  0.57647  1.0000
  C   C1        1.0  0.76375  0.09827  0.33290  1.0000
  C   C2        1.0  0.43119  0.90177  0.66710  1.0000
  C   C3        1.0  0.27522  0.46976  0.34259  1.0000
  C   C4        1.0  0.93301  0.53024  0.65753  1.0000
  C   C5        1.0  0.55478  0.08665  0.17891  1.0000
  C   C6        1.0  0.37613  0.91332  0.82103  1.0000
  C   C7        1.0  0.65429  0.17116  0.25295  1.0000
  C   C8        1.0  0.40169  0.82886  0.74701  1.0000
  C   C9        1.0  0.16467  0.38283  0.26385  1.0000
  C   C10       1.0  0.90110  0.61713  0.73623  1.0000
  C   C11       1.0  0.64394  0.32885  0.25292  1.0000
  C   C12       1.0  0.39128  0.67117  0.74702  1.0000
  C   C13       1.0  0.16270  0.22478  0.26494  1.0000
  C   C14       1.0  0.89803  0.77518  0.73514  1.0000
  C   C15       1.0  0.05976  0.14230  0.19168  1.0000
  C   C16       1.0  0.86834  0.85766  0.80837  1.0000
  C   C17       1.0  0.06188  0.45305  0.18875  1.0000
  C   C18       1.0  0.87333  0.54692  0.81128  1.0000
  C   C19       1.0  0.44248  0.30530  0.10759  1.0000
  C   C20       1.0  0.33496  0.69466  0.89226  1.0000
  C   C21       1.0  0.53659  0.39738  0.17905  1.0000
  C   C22       1.0  0.35769  0.60261  0.82082  1.0000
  C   C23       1.0  0.37021  0.87673  0.36544  1.0000
  C   C24       1.0  0.00528  0.12326  0.63464  1.0000
  C   C25       1.0  0.38202  0.71627  0.39890  1.0000
  C   C26       1.0  0.98355  0.28375  0.60122  1.0000
  C   C27       1.0  0.66905  0.85244  0.45216  1.0000
  C   C28       1.0  0.21715  0.14760  0.54787  1.0000
  C   C29       1.0  0.58981  0.69087  0.42973  1.0000
  C   C30       1.0  0.16032  0.30916  0.57028  1.0000
  C   C31       1.0  0.82394  0.86106  0.40053  1.0000
  C   C32       1.0  0.42378  0.13895  0.59948  1.0000
  C   C33       1.0  0.96136  0.22107  0.11940  1.0000
  C   C34       1.0  0.84224  0.77891  0.88063  1.0000
  C   C35       1.0  0.84252  0.69758  0.37093  1.0000
  C   C36       1.0  0.47202  0.30243  0.62902  1.0000
  N   N1        1.0  0.45180  0.15356  0.10829  1.0000
  N   N2        1.0  0.34366  0.84641  0.89159  1.0000
  N   N3        1.0  0.96301  0.37278  0.11846  1.0000
  N   N4        1.0  0.84475  0.62719  0.88154  1.0000
  Cl  Cl1       1.0  0.62346  0.27602  0.91103  1.0000
  Cl  Cl2       1.0  0.71246  0.72410  0.08891  1.0000
  Cl  Cl3       1.0  0.11019  0.20281  0.90308  1.0000
  Cl  Cl4       1.0  0.20714  0.79716  0.09681  1.0000
  O   O1        1.0  0.75879  0.94558  0.32159  1.0000
  O   O2        1.0  0.43774  0.05446  0.67844  1.0000
  O   O3        1.0  0.84935  0.16741  0.39999  1.0000
  O   O4        1.0  0.44951  0.83262  0.59999  1.0000
  O   O5        1.0  0.34733  0.41405  0.41351  1.0000
  O   O6        1.0  0.93411  0.58592  0.58663  1.0000
  O   O7        1.0  0.52235  0.95675  0.42284  1.0000
  O   O8        1.0  0.09984  0.04327  0.57719  1.0000
  O   O9        1.0  0.28569  0.61796  0.32628  1.0000
  O   O10       1.0  0.96016  0.38207  0.67390  1.0000
  O   O11       1.0  0.66162  0.63298  0.35760  1.0000
  O   O12       1.0  0.30448  0.36715  0.64233  1.0000
