data_image0
_chemical_formula_structural       Cd2H12C16S2N6Cl2O6
_chemical_formula_sum              "Cd2 H12 C16 S2 N6 Cl2 O6"
_cell_length_a       6.64062
_cell_length_b       7.78553
_cell_length_c       10.4926
_cell_angle_alpha    90
_cell_angle_beta     99.7004
_cell_angle_gamma    90

_space_group_name_H-M_alt    "P 1"
_space_group_IT_number       1

loop_
  _space_group_symop_operation_xyz
  'x, y, z'

loop_
  _atom_site_type_symbol
  _atom_site_label
  _atom_site_symmetry_multiplicity
  _atom_site_fract_x
  _atom_site_fract_y
  _atom_site_fract_z
  _atom_site_occupancy
  Cd  Cd1       1.0  0.98704  0.59913  0.00644  1.0000
  Cd  Cd2       1.0  0.01296  0.09913  0.99356  1.0000
  H   H1        1.0  0.18199  0.92446  0.46832  1.0000
  H   H2        1.0  0.81801  0.42446  0.53168  1.0000
  H   H3        1.0  0.73732  0.77303  0.70145  1.0000
  H   H4        1.0  0.26268  0.27303  0.29855  1.0000
  H   H5        1.0  0.46999  0.76114  0.50561  1.0000
  H   H6        1.0  0.53001  0.26114  0.49439  1.0000
  H   H7        1.0  0.91124  0.91446  0.26978  1.0000
  H   H8        1.0  0.08876  0.41446  0.73022  1.0000
  H   H9        1.0  0.49346  0.11046  0.21767  1.0000
  H   H10       1.0  0.50654  0.61045  0.78233  1.0000
  H   H11       1.0  0.43255  0.57015  0.24743  1.0000
  H   H12       1.0  0.56745  0.07015  0.75257  1.0000
  C   C1        1.0  0.97514  0.84641  0.59520  1.0000
  C   C2        1.0  0.02486  0.34641  0.40480  1.0000
  C   C3        1.0  0.02614  0.88724  0.47501  1.0000
  C   C4        1.0  0.97386  0.38724  0.52499  1.0000
  C   C5        1.0  0.77594  0.80037  0.60680  1.0000
  C   C6        1.0  0.22406  0.30038  0.39320  1.0000
  C   C7        1.0  0.62621  0.79444  0.49692  1.0000
  C   C8        1.0  0.37379  0.29444  0.50308  1.0000
  C   C9        1.0  0.67799  0.83708  0.37731  1.0000
  C   C10       1.0  0.32201  0.33708  0.62269  1.0000
  C   C11       1.0  0.87644  0.88238  0.36452  1.0000
  C   C12       1.0  0.12356  0.38238  0.63548  1.0000
  C   C13       1.0  0.43195  0.98104  0.20236  1.0000
  C   C14       1.0  0.56805  0.48104  0.79764  1.0000
  C   C15       1.0  0.39858  0.70288  0.21911  1.0000
  C   C16       1.0  0.60142  0.20288  0.78089  1.0000
  S   S1        1.0  0.16158  0.85629  0.73906  1.0000
  S   S2        1.0  0.83842  0.35629  0.26094  1.0000
  N   N1        1.0  0.51684  0.83925  0.26732  1.0000
  N   N2        1.0  0.48316  0.33925  0.73268  1.0000
  N   N3        1.0  0.26776  0.93363  0.12076  1.0000
  N   N4        1.0  0.73224  0.43363  0.87924  1.0000
  N   N5        1.0  0.24776  0.75891  0.13092  1.0000
  N   N6        1.0  0.75224  0.25891  0.86908  1.0000
  Cl  Cl1       1.0  0.25673  0.35699  0.01702  1.0000
  Cl  Cl2       1.0  0.74327  0.85699  0.98298  1.0000
  O   O1        1.0  0.36101  0.84871  0.69773  1.0000
  O   O2        1.0  0.63899  0.34871  0.30227  1.0000
  O   O3        1.0  0.12090  0.70693  0.81693  1.0000
  O   O4        1.0  0.87910  0.20693  0.18307  1.0000
  O   O5        1.0  0.12494  0.02246  0.79928  1.0000
  O   O6        1.0  0.87506  0.52246  0.20072  1.0000
