data_image0
_chemical_formula_structural       Cd2H12C8S2N6Cl2O6
_chemical_formula_sum              "Cd2 H12 C8 S2 N6 Cl2 O6"
_cell_length_a       6.23717
_cell_length_b       7.95409
_cell_length_c       8.58179
_cell_angle_alpha    94.3852
_cell_angle_beta     102.776
_cell_angle_gamma    92.1106

_space_group_name_H-M_alt    "P 1"
_space_group_IT_number       1

loop_
  _space_group_symop_operation_xyz
  'x, y, z'

loop_
  _atom_site_type_symbol
  _atom_site_label
  _atom_site_symmetry_multiplicity
  _atom_site_fract_x
  _atom_site_fract_y
  _atom_site_fract_z
  _atom_site_occupancy
  Cd  Cd1       1.0  0.50000  0.50000  0.50000  1.0000
  Cd  Cd2       1.0  0.50000  1.00000  0.50000  1.0000
  H   H1        1.0  0.32049  0.44356  0.97204  1.0000
  H   H2        1.0  0.67951  0.55643  0.02796  1.0000
  H   H3        1.0  0.40947  0.28717  0.84462  1.0000
  H   H4        1.0  0.59053  0.71283  0.15538  1.0000
  H   H5        1.0  0.30890  0.05957  0.01001  1.0000
  H   H6        1.0  0.69110  0.94042  0.98999  1.0000
  H   H7        1.0  0.22315  0.21578  0.14041  1.0000
  H   H8        1.0  0.77685  0.78422  0.85959  1.0000
  H   H9        1.0  0.99538  0.55267  0.79854  1.0000
  H   H10       1.0  0.00462  0.44733  0.20146  1.0000
  H   H11       1.0  0.01518  0.02068  0.76927  1.0000
  H   H12       1.0  0.98482  0.97932  0.23073  1.0000
  C   C1        1.0  0.29541  0.31112  0.92353  1.0000
  C   C2        1.0  0.70459  0.68888  0.07647  1.0000
  C   C3        1.0  0.33121  0.19286  0.05674  1.0000
  C   C4        1.0  0.66878  0.80714  0.94326  1.0000
  C   C5        1.0  0.94493  0.41989  0.76910  1.0000
  C   C6        1.0  0.05507  0.58012  0.23090  1.0000
  C   C7        1.0  0.95634  0.14639  0.75499  1.0000
  C   C8        1.0  0.04365  0.85361  0.24501  1.0000
  S   S1        1.0  0.60803  0.22212  0.17565  1.0000
  S   S2        1.0  0.39197  0.77788  0.82436  1.0000
  N   N1        1.0  0.76756  0.18370  0.66376  1.0000
  N   N2        1.0  0.23244  0.81631  0.33624  1.0000
  N   N3        1.0  0.07121  0.29185  0.82420  1.0000
  N   N4        1.0  0.92880  0.70816  0.17580  1.0000
  N   N5        1.0  0.76033  0.35631  0.67216  1.0000
  N   N6        1.0  0.23966  0.64370  0.32784  1.0000
  Cl  Cl1       1.0  0.77869  0.75927  0.53620  1.0000
  Cl  Cl2       1.0  0.22131  0.24073  0.46380  1.0000
  O   O1        1.0  0.63678  0.07588  0.27295  1.0000
  O   O2        1.0  0.36322  0.92412  0.72705  1.0000
  O   O3        1.0  0.75668  0.22323  0.06494  1.0000
  O   O4        1.0  0.24332  0.77677  0.93506  1.0000
  O   O5        1.0  0.62110  0.38625  0.27106  1.0000
  O   O6        1.0  0.37890  0.61374  0.72894  1.0000
