data_image0
_chemical_formula_structural       U2Cu2H22C34N4O18
_chemical_formula_sum              "U2 Cu2 H22 C34 N4 O18"
_cell_length_a       8.40792
_cell_length_b       10.834
_cell_length_c       11.3655
_cell_angle_alpha    101.532
_cell_angle_beta     100.343
_cell_angle_gamma    109.057

_space_group_name_H-M_alt    "P 1"
_space_group_IT_number       1

loop_
  _space_group_symop_operation_xyz
  'x, y, z'

loop_
  _atom_site_type_symbol
  _atom_site_label
  _atom_site_symmetry_multiplicity
  _atom_site_fract_x
  _atom_site_fract_y
  _atom_site_fract_z
  _atom_site_occupancy
  U   U1        1.0  0.29189  0.46285  0.06313  1.0000
  U   U2        1.0  0.70810  0.53715  0.93686  1.0000
  Cu  Cu1       1.0  0.15167  0.03889  0.23083  1.0000
  Cu  Cu2       1.0  0.84825  0.96110  0.76916  1.0000
  H   H1        1.0  0.53402  0.20986  0.00177  1.0000
  H   H2        1.0  0.46599  0.79013  0.99823  1.0000
  H   H3        1.0  0.75630  0.23494  0.18703  1.0000
  H   H4        1.0  0.24370  0.76507  0.81297  1.0000
  H   H5        1.0  0.77847  0.40417  0.25201  1.0000
  H   H6        1.0  0.22153  0.59583  0.74799  1.0000
  H   H7        1.0  0.10523  0.31029  0.32247  1.0000
  H   H8        1.0  0.89474  0.68971  0.67752  1.0000
  H   H9        1.0  0.12663  0.44661  0.53603  1.0000
  H   H10       1.0  0.87337  0.55339  0.46397  1.0000
  H   H11       1.0  0.20186  0.36164  0.72200  1.0000
  H   H12       1.0  0.79815  0.63837  0.27801  1.0000
  H   H13       1.0  0.34746  0.97186  0.76019  1.0000
  H   H14       1.0  0.65255  0.02814  0.23982  1.0000
  H   H15       1.0  0.28317  0.18328  0.80345  1.0000
  H   H16       1.0  0.71684  0.81672  0.19655  1.0000
  H   H17       1.0  0.36598  0.77785  0.60174  1.0000
  H   H18       1.0  0.63402  0.22213  0.39825  1.0000
  H   H19       1.0  0.32365  0.66414  0.37449  1.0000
  H   H20       1.0  0.67635  0.33587  0.62549  1.0000
  H   H21       1.0  0.22931  0.76893  0.21261  1.0000
  H   H22       1.0  0.77069  0.23108  0.78737  1.0000
  C   C1        1.0  0.42931  0.24047  0.15778  1.0000
  C   C2        1.0  0.57069  0.75953  0.84222  1.0000
  C   C3        1.0  0.56299  0.29406  0.08602  1.0000
  C   C4        1.0  0.43700  0.70594  0.91397  1.0000
  C   C5        1.0  0.74748  0.32654  0.16347  1.0000
  C   C6        1.0  0.25252  0.67346  0.83653  1.0000
  C   C7        1.0  0.88627  0.37549  0.09715  1.0000
  C   C8        1.0  0.11373  0.62451  0.90285  1.0000
  C   C9        1.0  0.05052  0.95547  0.98067  1.0000
  C   C10       1.0  0.94950  0.04453  0.01936  1.0000
  C   C11       1.0  0.13705  0.27728  0.40539  1.0000
  C   C12       1.0  0.86294  0.72269  0.59460  1.0000
  C   C13       1.0  0.14996  0.35224  0.52555  1.0000
  C   C14       1.0  0.85004  0.64775  0.47444  1.0000
  C   C15       1.0  0.19185  0.30647  0.62784  1.0000
  C   C16       1.0  0.80815  0.69354  0.37217  1.0000
  C   C17       1.0  0.22316  0.18439  0.61034  1.0000
  C   C18       1.0  0.77685  0.81561  0.38966  1.0000
  C   C19       1.0  0.20759  0.11512  0.48690  1.0000
  C   C20       1.0  0.79240  0.88488  0.51309  1.0000
  C   C21       1.0  0.23921  0.99189  0.46125  1.0000
  C   C22       1.0  0.76079  0.00810  0.53874  1.0000
  C   C23       1.0  0.28970  0.93987  0.56008  1.0000
  C   C24       1.0  0.71030  0.06013  0.43992  1.0000
  C   C25       1.0  0.30604  0.01222  0.68482  1.0000
  C   C26       1.0  0.69397  0.98778  0.31518  1.0000
  C   C27       1.0  0.27218  0.12874  0.70893  1.0000
  C   C28       1.0  0.72783  0.87126  0.29108  1.0000
  C   C29       1.0  0.32101  0.81847  0.52760  1.0000
  C   C30       1.0  0.67900  0.18152  0.47240  1.0000
  C   C31       1.0  0.29899  0.75662  0.40374  1.0000
  C   C32       1.0  0.70100  0.24339  0.59624  1.0000
  C   C33       1.0  0.24788  0.81543  0.31102  1.0000
  C   C34       1.0  0.75211  0.18460  0.68897  1.0000
  N   N1        1.0  0.16442  0.16139  0.38788  1.0000
  N   N2        1.0  0.83556  0.83860  0.61212  1.0000
  N   N3        1.0  0.21987  0.93053  0.33981  1.0000
  N   N4        1.0  0.78014  0.06948  0.66019  1.0000
  O   O1        1.0  0.16351  0.33655  0.91543  1.0000
  O   O2        1.0  0.83649  0.66345  0.08457  1.0000
  O   O3        1.0  0.41506  0.58843  0.21185  1.0000
  O   O4        1.0  0.58495  0.41157  0.78815  1.0000
  O   O5        1.0  0.30710  0.28767  0.15130  1.0000
  O   O6        1.0  0.69290  0.71232  0.84870  1.0000
  O   O7        1.0  0.44000  0.15468  0.21495  1.0000
  O   O8        1.0  0.56001  0.84532  0.78505  1.0000
  O   O9        1.0  0.04373  0.40334  0.15278  1.0000
  O   O10       1.0  0.95627  0.59666  0.84721  1.0000
  O   O11       1.0  0.83734  0.38628  0.98767  1.0000
  O   O12       1.0  0.16266  0.61372  0.01233  1.0000
  O   O13       1.0  0.54166  0.40711  0.05122  1.0000
  O   O14       1.0  0.45833  0.59289  0.94877  1.0000
  O   O15       1.0  0.14469  0.93132  0.06628  1.0000
  O   O16       1.0  0.85529  0.06871  0.93378  1.0000
  O   O17       1.0  0.03441  0.91306  0.86557  1.0000
  O   O18       1.0  0.96565  0.08694  0.13447  1.0000
