data_image0
_chemical_formula_structural       U2NiH34C20N4O14
_chemical_formula_sum              "U2 Ni1 H34 C20 N4 O14"
_cell_length_a       8.43065
_cell_length_b       8.78558
_cell_length_c       10.7306
_cell_angle_alpha    83.8569
_cell_angle_beta     70.5993
_cell_angle_gamma    80.8732

_space_group_name_H-M_alt    "P 1"
_space_group_IT_number       1

loop_
  _space_group_symop_operation_xyz
  'x, y, z'

loop_
  _atom_site_type_symbol
  _atom_site_label
  _atom_site_symmetry_multiplicity
  _atom_site_fract_x
  _atom_site_fract_y
  _atom_site_fract_z
  _atom_site_occupancy
  U   U1        1.0  0.53621  0.12377  0.96963  1.0000
  U   U2        1.0  0.91186  0.96460  0.10149  1.0000
  Ni  Ni1       1.0  0.72427  0.54091  0.52607  1.0000
  H   H1        1.0  0.75242  0.39173  0.35301  1.0000
  H   H2        1.0  0.51489  0.43881  0.71138  1.0000
  H   H3        1.0  0.68481  0.69538  0.69957  1.0000
  H   H4        1.0  0.92937  0.65067  0.34193  1.0000
  H   H5        1.0  0.05718  0.44765  0.84901  1.0000
  H   H6        1.0  0.90500  0.41914  0.00872  1.0000
  H   H7        1.0  0.12643  0.09376  0.78262  1.0000
  H   H8        1.0  0.09437  0.25164  0.66936  1.0000
  H   H9        1.0  0.96068  0.10171  0.71359  1.0000
  H   H10       1.0  0.37809  0.68421  0.26886  1.0000
  H   H11       1.0  0.41718  0.87200  0.28788  1.0000
  H   H12       1.0  0.74364  0.65137  0.93768  1.0000
  H   H13       1.0  0.53323  0.72885  0.94477  1.0000
  H   H14       1.0  0.57006  0.55431  0.03928  1.0000
  H   H15       1.0  0.68176  0.19107  0.60119  1.0000
  H   H16       1.0  0.64994  0.15381  0.45084  1.0000
  H   H17       1.0  0.44198  0.38955  0.46929  1.0000
  H   H18       1.0  0.38060  0.28104  0.62535  1.0000
  H   H19       1.0  0.23698  0.53923  0.69538  1.0000
  H   H20       1.0  0.34021  0.63612  0.54261  1.0000
  H   H21       1.0  0.23540  0.80368  0.74105  1.0000
  H   H22       1.0  0.37564  0.68773  0.81075  1.0000
  H   H23       1.0  0.49106  0.92790  0.68912  1.0000
  H   H24       1.0  0.48234  0.86582  0.53866  1.0000
  H   H25       1.0  0.79960  0.92524  0.60774  1.0000
  H   H26       1.0  0.77322  0.89430  0.45411  1.0000
  H   H27       1.0  0.07025  0.79607  0.43602  1.0000
  H   H28       1.0  0.00122  0.68129  0.58889  1.0000
  H   H29       1.0  0.11303  0.44291  0.49759  1.0000
  H   H30       1.0  0.20815  0.54650  0.34578  1.0000
  H   H31       1.0  0.05684  0.40791  0.23361  1.0000
  H   H32       1.0  0.20722  0.28739  0.29145  1.0000
  H   H33       1.0  0.95202  0.16149  0.34985  1.0000
  H   H34       1.0  0.97287  0.21557  0.49857  1.0000
  C   C1        1.0  0.78561  0.38025  0.80885  1.0000
  C   C2        1.0  0.90672  0.26368  0.86518  1.0000
  C   C3        1.0  0.99981  0.36078  0.92443  1.0000
  C   C4        1.0  0.13082  0.25997  0.97416  1.0000
  C   C5        1.0  0.03104  0.17203  0.74989  1.0000
  C   C6        1.0  0.70765  0.66138  0.19657  1.0000
  C   C7        1.0  0.59955  0.76162  0.11845  1.0000
  C   C8        1.0  0.41701  0.79242  0.21502  1.0000
  C   C9        1.0  0.28939  0.86674  0.14813  1.0000
  C   C10       1.0  0.61152  0.66761  0.00261  1.0000
  C   C11       1.0  0.64895  0.24470  0.51408  1.0000
  C   C12       1.0  0.48016  0.34438  0.55615  1.0000
  C   C13       1.0  0.35011  0.59566  0.64087  1.0000
  C   C14       1.0  0.35832  0.72990  0.71502  1.0000
  C   C15       1.0  0.49673  0.82589  0.63571  1.0000
  C   C16       1.0  0.80148  0.83686  0.54188  1.0000
  C   C17       1.0  0.96800  0.73322  0.50166  1.0000
  C   C18       1.0  0.09704  0.48851  0.40229  1.0000
  C   C19       1.0  0.08371  0.35970  0.32463  1.0000
  C   C20       1.0  0.94966  0.26040  0.40550  1.0000
  N   N1        1.0  0.77708  0.34735  0.43993  1.0000
  N   N2        1.0  0.50166  0.47820  0.61999  1.0000
  N   N3        1.0  0.66782  0.73704  0.61060  1.0000
  N   N4        1.0  0.94500  0.60579  0.43150  1.0000
  O   O1        1.0  0.44860  0.20936  0.12897  1.0000
  O   O2        1.0  0.61759  0.03716  0.80901  1.0000
  O   O3        1.0  0.78170  0.04144  0.26035  1.0000
  O   O4        1.0  0.04670  0.87736  0.94956  1.0000
  O   O5        1.0  0.62977  0.35282  0.84513  1.0000
  O   O6        1.0  0.84242  0.49034  0.73239  1.0000
  O   O7        1.0  0.07203  0.16759  0.07376  1.0000
  O   O8        1.0  0.28790  0.26782  0.91697  1.0000
  O   O9        1.0  0.80975  0.16409  0.96425  1.0000
  O   O10       1.0  0.84016  0.71754  0.19796  1.0000
  O   O11       1.0  0.66427  0.53478  0.25011  1.0000
  O   O12       1.0  0.34604  0.94361  0.03841  1.0000
  O   O13       1.0  0.13372  0.85082  0.20176  1.0000
  O   O14       1.0  0.66568  0.90368  0.07229  1.0000
