data_image0
_chemical_formula_structural       Cu3H12C12N8
_chemical_formula_sum              "Cu3 H12 C12 N8"
_cell_length_a       5.39239
_cell_length_b       6.65308
_cell_length_c       10.2016
_cell_angle_alpha    106.958
_cell_angle_beta     89.0185
_cell_angle_gamma    90.267

_space_group_name_H-M_alt    "P 1"
_space_group_IT_number       1

loop_
  _space_group_symop_operation_xyz
  'x, y, z'

loop_
  _atom_site_type_symbol
  _atom_site_label
  _atom_site_symmetry_multiplicity
  _atom_site_fract_x
  _atom_site_fract_y
  _atom_site_fract_z
  _atom_site_occupancy
  Cu  Cu1       1.0  0.00000  1.00000  1.00000  1.0000
  Cu  Cu2       1.0  0.50001  0.00001  0.50001  1.0000
  Cu  Cu3       1.0  0.49999  0.50000  0.50000  1.0000
  H   H1        1.0  0.28503  0.48814  0.78402  1.0000
  H   H2        1.0  0.71494  0.51187  0.21598  1.0000
  H   H3        1.0  0.52585  0.71534  0.01821  1.0000
  H   H4        1.0  0.47412  0.28467  0.98178  1.0000
  H   H5        1.0  0.93015  0.76588  0.67260  1.0000
  H   H6        1.0  0.06983  0.23410  0.32740  1.0000
  H   H7        1.0  0.23813  0.71410  0.18255  1.0000
  H   H8        1.0  0.76187  0.28589  0.81746  1.0000
  H   H9        1.0  0.01795  0.75017  0.43441  1.0000
  H   H10       1.0  0.98208  0.24984  0.56559  1.0000
  H   H11       1.0  0.56340  0.04305  0.21176  1.0000
  H   H12       1.0  0.43662  0.95696  0.78824  1.0000
  C   C1        1.0  0.45585  0.57770  0.79514  1.0000
  C   C2        1.0  0.54416  0.42229  0.20489  1.0000
  C   C3        1.0  0.57338  0.69367  0.91165  1.0000
  C   C4        1.0  0.42661  0.30631  0.08836  1.0000
  C   C5        1.0  0.78715  0.72152  0.73472  1.0000
  C   C6        1.0  0.21283  0.27850  0.26526  1.0000
  C   C7        1.0  0.06529  0.78958  0.22549  1.0000
  C   C8        1.0  0.93471  0.21041  0.77451  1.0000
  C   C9        1.0  0.95528  0.80763  0.35165  1.0000
  C   C10       1.0  0.04473  0.19237  0.64836  1.0000
  C   C11       1.0  0.71706  0.95962  0.23837  1.0000
  C   C12       1.0  0.28296  0.04039  0.76163  1.0000
  N   N1        1.0  0.78185  0.78528  0.87297  1.0000
  N   N2        1.0  0.21809  0.21469  0.12700  1.0000
  N   N3        1.0  0.59286  0.59530  0.68265  1.0000
  N   N4        1.0  0.40719  0.40472  0.31735  1.0000
  N   N5        1.0  0.73451  0.91651  0.35938  1.0000
  N   N6        1.0  0.26551  0.08350  0.64063  1.0000
  N   N7        1.0  0.91327  0.88669  0.15504  1.0000
  N   N8        1.0  0.08675  0.11331  0.84496  1.0000
