data_image0
_chemical_formula_structural       K4H16C24N4O12
_chemical_formula_sum              "K4 H16 C24 N4 O12"
_cell_length_a       3.66603
_cell_length_b       7.61544
_cell_length_c       24.1378
_cell_angle_alpha    90.0002
_cell_angle_beta     89.9998
_cell_angle_gamma    94.9099

_space_group_name_H-M_alt    "P 1"
_space_group_IT_number       1

loop_
  _space_group_symop_operation_xyz
  'x, y, z'

loop_
  _atom_site_type_symbol
  _atom_site_label
  _atom_site_symmetry_multiplicity
  _atom_site_fract_x
  _atom_site_fract_y
  _atom_site_fract_z
  _atom_site_occupancy
  K   K1        1.0  0.54276  0.20987  0.97405  1.0000
  K   K2        1.0  0.95723  0.29013  0.47405  1.0000
  K   K3        1.0  0.45723  0.79013  0.02595  1.0000
  K   K4        1.0  0.04279  0.70987  0.52595  1.0000
  H   H1        1.0  0.12682  0.14219  0.85905  1.0000
  H   H2        1.0  0.37317  0.35781  0.35905  1.0000
  H   H3        1.0  0.87319  0.85781  0.14095  1.0000
  H   H4        1.0  0.62681  0.64219  0.64095  1.0000
  H   H5        1.0  0.37444  0.05600  0.76901  1.0000
  H   H6        1.0  0.12556  0.44400  0.26901  1.0000
  H   H7        1.0  0.62556  0.94400  0.23099  1.0000
  H   H8        1.0  0.87443  0.55600  0.73099  1.0000
  H   H9        1.0  0.44882  0.74047  0.74766  1.0000
  H   H10       1.0  0.05118  0.75953  0.24766  1.0000
  H   H11       1.0  0.55118  0.25953  0.25234  1.0000
  H   H12       1.0  0.94882  0.24047  0.75233  1.0000
  H   H13       1.0  0.26775  0.51115  0.81856  1.0000
  H   H14       1.0  0.23225  0.98885  0.31856  1.0000
  H   H15       1.0  0.73224  0.48885  0.18144  1.0000
  H   H16       1.0  0.76776  0.01115  0.68144  1.0000
  C   C1        1.0  0.05730  0.87946  0.89343  1.0000
  C   C2        1.0  0.44269  0.62054  0.39343  1.0000
  C   C3        1.0  0.94270  0.12054  0.10657  1.0000
  C   C4        1.0  0.55731  0.37946  0.60657  1.0000
  C   C5        1.0  0.15982  0.00412  0.85011  1.0000
  C   C6        1.0  0.34018  0.49588  0.35011  1.0000
  C   C7        1.0  0.84019  0.99587  0.14989  1.0000
  C   C8        1.0  0.65982  0.50412  0.64989  1.0000
  C   C9        1.0  0.29568  0.95537  0.79991  1.0000
  C   C10       1.0  0.20432  0.54463  0.29991  1.0000
  C   C11       1.0  0.70433  0.04462  0.20009  1.0000
  C   C12       1.0  0.79567  0.45538  0.70009  1.0000
  C   C13       1.0  0.33913  0.77684  0.78754  1.0000
  C   C14       1.0  0.16087  0.72317  0.28754  1.0000
  C   C15       1.0  0.66087  0.22316  0.21246  1.0000
  C   C16       1.0  0.83914  0.27684  0.71246  1.0000
  C   C17       1.0  0.24047  0.65011  0.82650  1.0000
  C   C18       1.0  0.25953  0.84988  0.32650  1.0000
  C   C19       1.0  0.75953  0.34988  0.17349  1.0000
  C   C20       1.0  0.74047  0.15011  0.67349  1.0000
  C   C21       1.0  0.09192  0.69605  0.87815  1.0000
  C   C22       1.0  0.40807  0.80395  0.37815  1.0000
  C   C23       1.0  0.90807  0.30394  0.12185  1.0000
  C   C24       1.0  0.59193  0.19606  0.62185  1.0000
  N   N1        1.0  0.97943  0.55617  0.91404  1.0000
  N   N2        1.0  0.52057  0.94383  0.41404  1.0000
  N   N3        1.0  0.02056  0.44382  0.08596  1.0000
  N   N4        1.0  0.47945  0.05618  0.58596  1.0000
  O   O1        1.0  0.95908  0.93279  0.94122  1.0000
  O   O2        1.0  0.54091  0.56721  0.44122  1.0000
  O   O3        1.0  0.04093  0.06721  0.05878  1.0000
  O   O4        1.0  0.45908  0.43279  0.55878  1.0000
  O   O5        1.0  0.05986  0.40095  0.90282  1.0000
  O   O6        1.0  0.44016  0.09905  0.40282  1.0000
  O   O7        1.0  0.94012  0.59905  0.09717  1.0000
  O   O8        1.0  0.55987  0.90095  0.59717  1.0000
  O   O9        1.0  0.79318  0.58229  0.95669  1.0000
  O   O10       1.0  0.70682  0.91771  0.45669  1.0000
  O   O11       1.0  0.20681  0.41771  0.04331  1.0000
  O   O12       1.0  0.29319  0.08229  0.54331  1.0000
