data_image0
_chemical_formula_structural       Zn4H32C16Br8O8
_chemical_formula_sum              "Zn4 H32 C16 Br8 O8"
_cell_length_a       7.12921
_cell_length_b       9.81301
_cell_length_c       11.9174
_cell_angle_alpha    90
_cell_angle_beta     89.9999
_cell_angle_gamma    99.6385

_space_group_name_H-M_alt    "P 1"
_space_group_IT_number       1

loop_
  _space_group_symop_operation_xyz
  'x, y, z'

loop_
  _atom_site_type_symbol
  _atom_site_label
  _atom_site_symmetry_multiplicity
  _atom_site_fract_x
  _atom_site_fract_y
  _atom_site_fract_z
  _atom_site_occupancy
  Zn  Zn1       1.0  0.66111  0.27040  0.81426  1.0000
  Zn  Zn2       1.0  0.16111  0.77040  0.68574  1.0000
  Zn  Zn3       1.0  0.33889  0.72960  0.18574  1.0000
  Zn  Zn4       1.0  0.83889  0.22960  0.31426  1.0000
  H   H1        1.0  0.38470  0.47874  0.80914  1.0000
  H   H2        1.0  0.88469  0.97874  0.69086  1.0000
  H   H3        1.0  0.61530  0.52126  0.19086  1.0000
  H   H4        1.0  0.11530  0.02126  0.30914  1.0000
  H   H5        1.0  0.57637  0.60443  0.86209  1.0000
  H   H6        1.0  0.07637  0.10443  0.63791  1.0000
  H   H7        1.0  0.42363  0.39557  0.13791  1.0000
  H   H8        1.0  0.92363  0.89557  0.36209  1.0000
  H   H9        1.0  0.77912  0.53186  0.00541  1.0000
  H   H10       1.0  0.27912  0.03186  0.49459  1.0000
  H   H11       1.0  0.22088  0.46815  0.99459  1.0000
  H   H12       1.0  0.72088  0.96814  0.50541  1.0000
  H   H13       1.0  0.73062  0.35607  0.05208  1.0000
  H   H14       1.0  0.23062  0.85607  0.44792  1.0000
  H   H15       1.0  0.26938  0.64393  0.94792  1.0000
  H   H16       1.0  0.76938  0.14393  0.55208  1.0000
  H   H17       1.0  0.32909  0.97677  0.86969  1.0000
  H   H18       1.0  0.82908  0.47677  0.63031  1.0000
  H   H19       1.0  0.67091  0.02323  0.13031  1.0000
  H   H20       1.0  0.17092  0.52323  0.36969  1.0000
  H   H21       1.0  0.28868  0.14235  0.91893  1.0000
  H   H22       1.0  0.78868  0.64235  0.58107  1.0000
  H   H23       1.0  0.71132  0.85765  0.08107  1.0000
  H   H24       1.0  0.21132  0.35765  0.41893  1.0000
  H   H25       1.0  0.82950  0.05235  0.94376  1.0000
  H   H26       1.0  0.32950  0.55235  0.55624  1.0000
  H   H27       1.0  0.17050  0.94765  0.05623  1.0000
  H   H28       1.0  0.67050  0.44765  0.44376  1.0000
  H   H29       1.0  0.64827  0.92319  0.88394  1.0000
  H   H30       1.0  0.14827  0.42319  0.61605  1.0000
  H   H31       1.0  0.35173  0.07681  0.11605  1.0000
  H   H32       1.0  0.85173  0.57681  0.38394  1.0000
  C   C1        1.0  0.46514  0.51677  0.88445  1.0000
  C   C2        1.0  0.96514  0.01677  0.61555  1.0000
  C   C3        1.0  0.53486  0.48323  0.11555  1.0000
  C   C4        1.0  0.03486  0.98323  0.38445  1.0000
  C   C5        1.0  0.66571  0.44473  0.02588  1.0000
  C   C6        1.0  0.16571  0.94473  0.47412  1.0000
  C   C7        1.0  0.33429  0.55527  0.97412  1.0000
  C   C8        1.0  0.83429  0.05527  0.52588  1.0000
  C   C9        1.0  0.36525  0.05616  0.93499  1.0000
  C   C10       1.0  0.86525  0.55616  0.56501  1.0000
  C   C11       1.0  0.63475  0.94384  0.06501  1.0000
  C   C12       1.0  0.13475  0.44384  0.43500  1.0000
  C   C13       1.0  0.68003  0.00294  0.94939  1.0000
  C   C14       1.0  0.18003  0.50294  0.55061  1.0000
  C   C15       1.0  0.31997  0.99706  0.05061  1.0000
  C   C16       1.0  0.81997  0.49706  0.44939  1.0000
  Br  Br1       1.0  0.99181  0.30027  0.81932  1.0000
  Br  Br2       1.0  0.49180  0.80027  0.68068  1.0000
  Br  Br3       1.0  0.00820  0.69973  0.18068  1.0000
  Br  Br4       1.0  0.50820  0.19973  0.31932  1.0000
  Br  Br5       1.0  0.47021  0.25640  0.65476  1.0000
  Br  Br6       1.0  0.97021  0.75640  0.84524  1.0000
  Br  Br7       1.0  0.52979  0.74360  0.34524  1.0000
  Br  Br8       1.0  0.02979  0.24360  0.15476  1.0000
  O   O1        1.0  0.55601  0.40362  0.92462  1.0000
  O   O2        1.0  0.05601  0.90362  0.57538  1.0000
  O   O3        1.0  0.44399  0.59638  0.07538  1.0000
  O   O4        1.0  0.94399  0.09638  0.42462  1.0000
  O   O5        1.0  0.56765  0.11119  0.92766  1.0000
  O   O6        1.0  0.06765  0.61119  0.57234  1.0000
  O   O7        1.0  0.43235  0.88881  0.07234  1.0000
  O   O8        1.0  0.93235  0.38881  0.42766  1.0000
