data_image0
_chemical_formula_structural       SrZrCdH8C8O20
_chemical_formula_sum              "Sr1 Zr1 Cd1 H8 C8 O20"
_cell_length_a       8.56626
_cell_length_b       9.12459
_cell_length_c       9.12459
_cell_angle_alpha    77.2525
_cell_angle_beta     61.9777
_cell_angle_gamma    61.9777

_space_group_name_H-M_alt    "P 1"
_space_group_IT_number       1

loop_
  _space_group_symop_operation_xyz
  'x, y, z'

loop_
  _atom_site_type_symbol
  _atom_site_label
  _atom_site_symmetry_multiplicity
  _atom_site_fract_x
  _atom_site_fract_y
  _atom_site_fract_z
  _atom_site_occupancy
  Sr  Sr1       1.0  0.50003  0.99998  0.99998  1.0000
  Zr  Zr1       1.0  0.24998  0.50000  0.50000  1.0000
  Cd  Cd1       1.0  0.00019  0.99987  0.99987  1.0000
  H   H1        1.0  0.54732  0.72146  0.27855  1.0000
  H   H2        1.0  0.17395  0.27853  0.27853  1.0000
  H   H3        1.0  0.54732  0.27855  0.72146  1.0000
  H   H4        1.0  0.73111  0.72149  0.72149  1.0000
  H   H5        1.0  0.72245  0.77092  0.22908  1.0000
  H   H6        1.0  0.04832  0.22906  0.22906  1.0000
  H   H7        1.0  0.72246  0.22908  0.77092  1.0000
  H   H8        1.0  0.50649  0.77096  0.77096  1.0000
  C   C1        1.0  0.23448  0.72224  0.72224  1.0000
  C   C2        1.0  0.04331  0.72251  0.27774  1.0000
  C   C3        1.0  0.67907  0.27744  0.27744  1.0000
  C   C4        1.0  0.04331  0.27774  0.72251  1.0000
  C   C5        1.0  0.01953  0.76787  0.76787  1.0000
  C   C6        1.0  0.21267  0.76801  0.23226  1.0000
  C   C7        1.0  0.55515  0.23204  0.23204  1.0000
  C   C8        1.0  0.21266  0.23226  0.76801  1.0000
  O   O1        1.0  0.88560  0.87529  0.87530  1.0000
  O   O2        1.0  0.23929  0.87534  0.12482  1.0000
  O   O3        1.0  0.63599  0.12465  0.12465  1.0000
  O   O4        1.0  0.23929  0.12482  0.87534  1.0000
  O   O5        1.0  0.99805  0.68576  0.68576  1.0000
  O   O6        1.0  0.31621  0.68577  0.31443  1.0000
  O   O7        1.0  0.36936  0.31429  0.31430  1.0000
  O   O8        1.0  0.31620  0.31444  0.68577  1.0000
  O   O9        1.0  0.27295  0.79444  0.79444  1.0000
  O   O10       1.0  0.93274  0.79465  0.20536  1.0000
  O   O11       1.0  0.86207  0.20517  0.20517  1.0000
  O   O12       1.0  0.93274  0.20536  0.79464  1.0000
  O   O13       1.0  0.35697  0.61076  0.61076  1.0000
  O   O14       1.0  0.03221  0.61106  0.38922  1.0000
  O   O15       1.0  0.57864  0.38892  0.38892  1.0000
  O   O16       1.0  0.03221  0.38922  0.61106  1.0000
  O   O17       1.0  0.61108  0.79236  0.20767  1.0000
  O   O18       1.0  0.18111  0.20764  0.20764  1.0000
  O   O19       1.0  0.61109  0.20768  0.79236  1.0000
  O   O20       1.0  0.59639  0.79240  0.79239  1.0000
