data_image0
_chemical_formula_structural       K2In2H16C8O24
_chemical_formula_sum              "K2 In2 H16 C8 O24"
_cell_length_a       8.79867
_cell_length_b       9.08016
_cell_length_c       9.08025
_cell_angle_alpha    76.4233
_cell_angle_beta     61.0205
_cell_angle_gamma    61.0203

_space_group_name_H-M_alt    "P 1"
_space_group_IT_number       1

loop_
  _space_group_symop_operation_xyz
  'x, y, z'

loop_
  _atom_site_type_symbol
  _atom_site_label
  _atom_site_symmetry_multiplicity
  _atom_site_fract_x
  _atom_site_fract_y
  _atom_site_fract_z
  _atom_site_occupancy
  K   K1        1.0  0.62497  0.74998  0.75001  1.0000
  K   K2        1.0  0.37504  0.24997  0.25001  1.0000
  In  In1       1.0  0.87496  0.25000  0.25000  1.0000
  In  In2       1.0  0.12506  0.75000  0.75000  1.0000
  H   H1        1.0  0.34914  0.91647  0.10061  1.0000
  H   H2        1.0  0.86620  0.58354  0.39939  1.0000
  H   H3        1.0  0.44973  0.89940  0.41646  1.0000
  H   H4        1.0  0.26560  0.60060  0.08355  1.0000
  H   H5        1.0  0.65087  0.08354  0.89939  1.0000
  H   H6        1.0  0.13380  0.41646  0.60060  1.0000
  H   H7        1.0  0.55027  0.10060  0.58355  1.0000
  H   H8        1.0  0.73441  0.39940  0.91646  1.0000
  H   H9        1.0  0.39123  0.73112  0.15231  1.0000
  H   H10       1.0  0.77465  0.76889  0.34769  1.0000
  H   H11       1.0  0.54354  0.84769  0.23112  1.0000
  H   H12       1.0  0.12234  0.65232  0.26889  1.0000
  H   H13       1.0  0.60878  0.26889  0.84769  1.0000
  H   H14       1.0  0.22535  0.23112  0.65231  1.0000
  H   H15       1.0  0.45646  0.15232  0.76889  1.0000
  H   H16       1.0  0.87767  0.34769  0.73111  1.0000
  C   C1        1.0  0.92007  0.52101  0.97482  1.0000
  C   C2        1.0  0.91588  0.97898  0.52519  1.0000
  C   C3        1.0  0.89488  0.02519  0.02101  1.0000
  C   C4        1.0  0.44107  0.47481  0.47898  1.0000
  C   C5        1.0  0.07994  0.47897  0.02519  1.0000
  C   C6        1.0  0.08408  0.02102  0.47482  1.0000
  C   C7        1.0  0.10511  0.97482  0.97898  1.0000
  C   C8        1.0  0.55891  0.52518  0.52100  1.0000
  O   O1        1.0  0.81377  0.44366  0.05272  1.0000
  O   O2        1.0  0.81014  0.05635  0.44728  1.0000
  O   O3        1.0  0.86649  0.94728  0.94365  1.0000
  O   O4        1.0  0.25742  0.55273  0.55635  1.0000
  O   O5        1.0  0.18623  0.55635  0.94728  1.0000
  O   O6        1.0  0.18986  0.94366  0.55271  1.0000
  O   O7        1.0  0.13351  0.05271  0.05634  1.0000
  O   O8        1.0  0.74255  0.44730  0.44365  1.0000
  O   O9        1.0  0.90632  0.62777  0.85989  1.0000
  O   O10       1.0  0.89397  0.87222  0.64013  1.0000
  O   O11       1.0  0.76621  0.14011  0.12776  1.0000
  O   O12       1.0  0.53408  0.35988  0.37223  1.0000
  O   O13       1.0  0.09368  0.37223  0.14011  1.0000
  O   O14       1.0  0.10602  0.12775  0.35990  1.0000
  O   O15       1.0  0.23380  0.85988  0.87222  1.0000
  O   O16       1.0  0.46592  0.64011  0.62777  1.0000
  O   O17       1.0  0.45160  0.81035  0.11459  1.0000
  O   O18       1.0  0.87653  0.68966  0.38541  1.0000
  O   O19       1.0  0.56619  0.88541  0.31035  1.0000
  O   O20       1.0  0.26194  0.61460  0.18966  1.0000
  O   O21       1.0  0.54841  0.18966  0.88541  1.0000
  O   O22       1.0  0.12347  0.31035  0.61459  1.0000
  O   O23       1.0  0.43381  0.11460  0.68966  1.0000
  O   O24       1.0  0.73806  0.38541  0.81034  1.0000
