data_image0
_chemical_formula_structural       K2In2H16C8O24
_chemical_formula_sum              "K2 In2 H16 C8 O24"
_cell_length_a       8.80834
_cell_length_b       9.07597
_cell_length_c       9.07586
_cell_angle_alpha    76.381
_cell_angle_beta     60.9705
_cell_angle_gamma    60.9708

_space_group_name_H-M_alt    "P 1"
_space_group_IT_number       1

loop_
  _space_group_symop_operation_xyz
  'x, y, z'

loop_
  _atom_site_type_symbol
  _atom_site_label
  _atom_site_symmetry_multiplicity
  _atom_site_fract_x
  _atom_site_fract_y
  _atom_site_fract_z
  _atom_site_occupancy
  K   K1        1.0  0.87501  0.24999  0.25000  1.0000
  K   K2        1.0  0.12501  0.75001  0.75001  1.0000
  In  In1       1.0  0.37498  0.25000  0.25000  1.0000
  In  In2       1.0  0.62502  0.75000  0.75000  1.0000
  H   H1        1.0  0.49371  0.67467  0.32624  1.0000
  H   H2        1.0  0.81995  0.67376  0.17466  1.0000
  H   H3        1.0  0.99461  0.82534  0.17376  1.0000
  H   H4        1.0  0.16838  0.82624  0.32533  1.0000
  H   H5        1.0  0.50629  0.32533  0.67376  1.0000
  H   H6        1.0  0.18005  0.32624  0.82534  1.0000
  H   H7        1.0  0.00539  0.17467  0.82624  1.0000
  H   H8        1.0  0.83163  0.17376  0.67466  1.0000
  H   H9        1.0  0.63317  0.60222  0.41482  1.0000
  H   H10       1.0  0.04799  0.58518  0.10221  1.0000
  H   H11       1.0  0.15020  0.89779  0.08518  1.0000
  H   H12       1.0  0.23539  0.91481  0.39779  1.0000
  H   H13       1.0  0.36683  0.39779  0.58518  1.0000
  H   H14       1.0  0.95201  0.41482  0.89779  1.0000
  H   H15       1.0  0.84980  0.10221  0.91482  1.0000
  H   H16       1.0  0.76462  0.08519  0.60220  1.0000
  C   C1        1.0  0.39513  0.01960  0.02621  1.0000
  C   C2        1.0  0.42134  0.97381  0.51959  1.0000
  C   C3        1.0  0.94094  0.48040  0.47380  1.0000
  C   C4        1.0  0.41474  0.52619  0.98040  1.0000
  C   C5        1.0  0.60486  0.98039  0.97379  1.0000
  C   C6        1.0  0.57865  0.02621  0.48041  1.0000
  C   C7        1.0  0.05906  0.51960  0.52621  1.0000
  C   C8        1.0  0.58527  0.47379  0.01960  1.0000
  O   O1        1.0  0.26598  0.12590  0.14167  1.0000
  O   O2        1.0  0.40764  0.85833  0.62591  1.0000
  O   O3        1.0  0.03355  0.37410  0.35835  1.0000
  O   O4        1.0  0.39188  0.64167  0.87409  1.0000
  O   O5        1.0  0.73400  0.87411  0.85834  1.0000
  O   O6        1.0  0.59235  0.14167  0.37410  1.0000
  O   O7        1.0  0.96646  0.62590  0.64166  1.0000
  O   O8        1.0  0.60812  0.35833  0.12589  1.0000
  O   O9        1.0  0.36734  0.94087  0.94927  1.0000
  O   O10       1.0  0.31662  0.05073  0.44087  1.0000
  O   O11       1.0  0.75749  0.55913  0.55074  1.0000
  O   O12       1.0  0.30822  0.44926  0.05912  1.0000
  O   O13       1.0  0.63265  0.05913  0.05073  1.0000
  O   O14       1.0  0.68337  0.94927  0.55914  1.0000
  O   O15       1.0  0.24252  0.44087  0.44926  1.0000
  O   O16       1.0  0.69177  0.55073  0.94087  1.0000
  O   O17       1.0  0.63153  0.61148  0.30543  1.0000
  O   O18       1.0  0.93696  0.69457  0.11148  1.0000
  O   O19       1.0  0.04844  0.88852  0.19456  1.0000
  O   O20       1.0  0.24301  0.80543  0.38852  1.0000
  O   O21       1.0  0.36848  0.38852  0.69457  1.0000
  O   O22       1.0  0.06304  0.30544  0.88852  1.0000
  O   O23       1.0  0.95157  0.11148  0.80544  1.0000
  O   O24       1.0  0.75700  0.19457  0.61147  1.0000
