data_image0
_chemical_formula_structural       Zr4Hg4H24C24O60
_chemical_formula_sum              "Zr4 Hg4 H24 C24 O60"
_cell_length_a       8.87587
_cell_length_b       10.1649
_cell_length_c       16.7923
_cell_angle_alpha    90
_cell_angle_beta     90
_cell_angle_gamma    105.472

_space_group_name_H-M_alt    "P 1"
_space_group_IT_number       1

loop_
  _space_group_symop_operation_xyz
  'x, y, z'

loop_
  _atom_site_type_symbol
  _atom_site_label
  _atom_site_symmetry_multiplicity
  _atom_site_fract_x
  _atom_site_fract_y
  _atom_site_fract_z
  _atom_site_occupancy
  Zr  Zr1       1.0  0.19644  0.89257  0.40833  1.0000
  Zr  Zr2       1.0  0.80357  0.60743  0.90833  1.0000
  Zr  Zr3       1.0  0.80356  0.10743  0.59167  1.0000
  Zr  Zr4       1.0  0.19643  0.39257  0.09167  1.0000
  Hg  Hg1       1.0  0.43866  0.52425  0.63147  1.0000
  Hg  Hg2       1.0  0.56134  0.97574  0.13147  1.0000
  Hg  Hg3       1.0  0.56134  0.47575  0.36853  1.0000
  Hg  Hg4       1.0  0.43866  0.02426  0.86853  1.0000
  H   H1        1.0  0.41951  0.50108  0.80575  1.0000
  H   H2        1.0  0.58050  0.99893  0.30575  1.0000
  H   H3        1.0  0.58050  0.49893  0.19425  1.0000
  H   H4        1.0  0.41951  0.00107  0.69425  1.0000
  H   H5        1.0  0.32539  0.60770  0.78958  1.0000
  H   H6        1.0  0.67461  0.89230  0.28958  1.0000
  H   H7        1.0  0.67461  0.39230  0.21043  1.0000
  H   H8        1.0  0.32539  0.10770  0.71043  1.0000
  H   H9        1.0  0.23223  0.99953  0.24905  1.0000
  H   H10       1.0  0.76777  0.50047  0.74905  1.0000
  H   H11       1.0  0.76777  0.00047  0.75095  1.0000
  H   H12       1.0  0.23223  0.49953  0.25095  1.0000
  H   H13       1.0  0.06595  0.00696  0.28275  1.0000
  H   H14       1.0  0.93406  0.49304  0.78275  1.0000
  H   H15       1.0  0.93406  0.99304  0.71725  1.0000
  H   H16       1.0  0.06594  0.50696  0.21725  1.0000
  H   H17       1.0  0.13103  0.98258  0.56764  1.0000
  H   H18       1.0  0.86898  0.51742  0.06764  1.0000
  H   H19       1.0  0.86898  0.01742  0.43236  1.0000
  H   H20       1.0  0.13102  0.48258  0.93236  1.0000
  H   H21       1.0  0.22033  0.86135  0.57567  1.0000
  H   H22       1.0  0.77967  0.63864  0.07567  1.0000
  H   H23       1.0  0.77967  0.13864  0.42433  1.0000
  H   H24       1.0  0.22033  0.36136  0.92433  1.0000
  C   C1        1.0  0.39556  0.69597  0.43316  1.0000
  C   C2        1.0  0.60444  0.80404  0.93317  1.0000
  C   C3        1.0  0.60444  0.30403  0.56684  1.0000
  C   C4        1.0  0.39556  0.19596  0.06683  1.0000
  C   C5        1.0  0.34894  0.68091  0.34411  1.0000
  C   C6        1.0  0.65106  0.81910  0.84412  1.0000
  C   C7        1.0  0.65105  0.31909  0.65589  1.0000
  C   C8        1.0  0.34894  0.18090  0.15588  1.0000
  C   C9        1.0  0.69065  0.79674  0.59868  1.0000
  C   C10       1.0  0.30934  0.70326  0.09868  1.0000
  C   C11       1.0  0.30934  0.20327  0.40132  1.0000
  C   C12       1.0  0.69066  0.29674  0.90132  1.0000
  C   C13       1.0  0.54477  0.84403  0.62324  1.0000
  C   C14       1.0  0.45522  0.65597  0.12324  1.0000
  C   C15       1.0  0.45522  0.15598  0.37676  1.0000
  C   C16       1.0  0.54478  0.34403  0.87676  1.0000
  C   C17       1.0  0.15867  0.22740  0.61496  1.0000
  C   C18       1.0  0.84132  0.27259  0.11495  1.0000
  C   C19       1.0  0.84132  0.77260  0.38504  1.0000
  C   C20       1.0  0.15868  0.72741  0.88505  1.0000
  C   C21       1.0  0.09613  0.35066  0.59139  1.0000
  C   C22       1.0  0.90386  0.14934  0.09139  1.0000
  C   C23       1.0  0.90387  0.64934  0.40861  1.0000
  C   C24       1.0  0.09614  0.85066  0.90861  1.0000
  O   O1        1.0  0.46627  0.61952  0.46498  1.0000
  O   O2        1.0  0.53373  0.88049  0.96498  1.0000
  O   O3        1.0  0.53373  0.38049  0.53502  1.0000
  O   O4        1.0  0.46627  0.11951  0.03502  1.0000
  O   O5        1.0  0.35174  0.79201  0.46834  1.0000
  O   O6        1.0  0.64827  0.70800  0.96834  1.0000
  O   O7        1.0  0.64827  0.20800  0.53166  1.0000
  O   O8        1.0  0.35173  0.29200  0.03166  1.0000
  O   O9        1.0  0.27878  0.76719  0.31878  1.0000
  O   O10       1.0  0.72122  0.73281  0.81878  1.0000
  O   O11       1.0  0.72121  0.23280  0.68122  1.0000
  O   O12       1.0  0.27878  0.26719  0.18122  1.0000
  O   O13       1.0  0.37648  0.58693  0.30267  1.0000
  O   O14       1.0  0.62352  0.91307  0.80267  1.0000
  O   O15       1.0  0.62351  0.41306  0.69733  1.0000
  O   O16       1.0  0.37649  0.08693  0.19733  1.0000
  O   O17       1.0  0.80709  0.89525  0.57572  1.0000
  O   O18       1.0  0.19291  0.60474  0.07572  1.0000
  O   O19       1.0  0.19291  0.10475  0.42428  1.0000
  O   O20       1.0  0.80709  0.39525  0.92428  1.0000
  O   O21       1.0  0.69153  0.67500  0.60304  1.0000
  O   O22       1.0  0.30847  0.82499  0.10304  1.0000
  O   O23       1.0  0.30847  0.32500  0.39696  1.0000
  O   O24       1.0  0.69153  0.17501  0.89696  1.0000
  O   O25       1.0  0.56954  0.97564  0.62327  1.0000
  O   O26       1.0  0.43045  0.52436  0.12327  1.0000
  O   O27       1.0  0.43045  0.02437  0.37673  1.0000
  O   O28       1.0  0.56955  0.47564  0.87673  1.0000
  O   O29       1.0  0.41889  0.76216  0.64180  1.0000
  O   O30       1.0  0.58110  0.73784  0.14180  1.0000
  O   O31       1.0  0.58110  0.23785  0.35820  1.0000
  O   O32       1.0  0.41889  0.26216  0.85820  1.0000
  O   O33       1.0  0.34043  0.52059  0.76950  1.0000
  O   O34       1.0  0.65957  0.97941  0.26950  1.0000
  O   O35       1.0  0.65957  0.47941  0.23050  1.0000
  O   O36       1.0  0.34043  0.02058  0.73050  1.0000
  O   O37       1.0  0.05838  0.11033  0.60020  1.0000
  O   O38       1.0  0.94161  0.38967  0.10020  1.0000
  O   O39       1.0  0.94162  0.88968  0.39980  1.0000
  O   O40       1.0  0.05839  0.61033  0.89980  1.0000
  O   O41       1.0  0.28826  0.24342  0.64654  1.0000
  O   O42       1.0  0.71173  0.25658  0.14653  1.0000
  O   O43       1.0  0.71174  0.75659  0.35347  1.0000
  O   O44       1.0  0.28827  0.74342  0.85347  1.0000
  O   O45       1.0  0.18102  0.47033  0.58992  1.0000
  O   O46       1.0  0.81898  0.02966  0.08992  1.0000
  O   O47       1.0  0.81898  0.52966  0.41009  1.0000
  O   O48       1.0  0.18103  0.97034  0.91009  1.0000
  O   O49       1.0  0.94945  0.31686  0.57594  1.0000
  O   O50       1.0  0.05054  0.18314  0.07593  1.0000
  O   O51       1.0  0.05054  0.68315  0.42407  1.0000
  O   O52       1.0  0.94946  0.81686  0.92407  1.0000
  O   O53       1.0  0.14066  0.95206  0.28366  1.0000
  O   O54       1.0  0.85934  0.54794  0.78366  1.0000
  O   O55       1.0  0.85934  0.04794  0.71634  1.0000
  O   O56       1.0  0.14066  0.45205  0.21633  1.0000
  O   O57       1.0  0.17608  0.91550  0.53877  1.0000
  O   O58       1.0  0.82393  0.58450  0.03877  1.0000
  O   O59       1.0  0.82393  0.08450  0.46123  1.0000
  O   O60       1.0  0.17608  0.41550  0.96123  1.0000
