data_image0
_chemical_formula_structural       Zr4Cd4H24C24O60
_chemical_formula_sum              "Zr4 Cd4 H24 C24 O60"
_cell_length_a       8.86531
_cell_length_b       10.0834
_cell_length_c       16.6297
_cell_angle_alpha    90
_cell_angle_beta     90
_cell_angle_gamma    105.617

_space_group_name_H-M_alt    "P 1"
_space_group_IT_number       1

loop_
  _space_group_symop_operation_xyz
  'x, y, z'

loop_
  _atom_site_type_symbol
  _atom_site_label
  _atom_site_symmetry_multiplicity
  _atom_site_fract_x
  _atom_site_fract_y
  _atom_site_fract_z
  _atom_site_occupancy
  Zr  Zr1       1.0  0.18973  0.88502  0.40765  1.0000
  Zr  Zr2       1.0  0.81027  0.61498  0.90765  1.0000
  Zr  Zr3       1.0  0.81027  0.11498  0.59235  1.0000
  Zr  Zr4       1.0  0.18973  0.38502  0.09235  1.0000
  Cd  Cd1       1.0  0.44608  0.52998  0.62801  1.0000
  Cd  Cd2       1.0  0.55392  0.97002  0.12801  1.0000
  Cd  Cd3       1.0  0.55392  0.47003  0.37199  1.0000
  Cd  Cd4       1.0  0.44608  0.02997  0.87199  1.0000
  H   H1        1.0  0.42952  0.50813  0.80224  1.0000
  H   H2        1.0  0.57048  0.99187  0.30223  1.0000
  H   H3        1.0  0.57048  0.49187  0.19776  1.0000
  H   H4        1.0  0.42952  0.00813  0.69776  1.0000
  H   H5        1.0  0.33570  0.61536  0.78475  1.0000
  H   H6        1.0  0.66430  0.88464  0.28475  1.0000
  H   H7        1.0  0.66430  0.38464  0.21525  1.0000
  H   H8        1.0  0.33570  0.11536  0.71525  1.0000
  H   H9        1.0  0.22964  0.98925  0.24677  1.0000
  H   H10       1.0  0.77036  0.51075  0.74677  1.0000
  H   H11       1.0  0.77036  0.01075  0.75323  1.0000
  H   H12       1.0  0.22964  0.48925  0.25323  1.0000
  H   H13       1.0  0.06326  0.99904  0.27929  1.0000
  H   H14       1.0  0.93674  0.50096  0.77929  1.0000
  H   H15       1.0  0.93674  0.00096  0.72071  1.0000
  H   H16       1.0  0.06326  0.49904  0.22071  1.0000
  H   H17       1.0  0.13138  0.98163  0.56851  1.0000
  H   H18       1.0  0.86862  0.51837  0.06851  1.0000
  H   H19       1.0  0.86861  0.01837  0.43149  1.0000
  H   H20       1.0  0.13139  0.48163  0.93149  1.0000
  H   H21       1.0  0.22081  0.85942  0.57628  1.0000
  H   H22       1.0  0.77920  0.64058  0.07628  1.0000
  H   H23       1.0  0.77919  0.14059  0.42372  1.0000
  H   H24       1.0  0.22081  0.35941  0.92372  1.0000
  C   C1        1.0  0.39155  0.68956  0.43451  1.0000
  C   C2        1.0  0.60845  0.81044  0.93451  1.0000
  C   C3        1.0  0.60845  0.31044  0.56549  1.0000
  C   C4        1.0  0.39155  0.18956  0.06549  1.0000
  C   C5        1.0  0.34630  0.67278  0.34473  1.0000
  C   C6        1.0  0.65370  0.82722  0.84473  1.0000
  C   C7        1.0  0.65370  0.32723  0.65527  1.0000
  C   C8        1.0  0.34630  0.17277  0.15527  1.0000
  C   C9        1.0  0.69796  0.80190  0.59886  1.0000
  C   C10       1.0  0.30204  0.69810  0.09886  1.0000
  C   C11       1.0  0.30204  0.19811  0.40114  1.0000
  C   C12       1.0  0.69796  0.30189  0.90114  1.0000
  C   C13       1.0  0.55168  0.84868  0.62316  1.0000
  C   C14       1.0  0.44832  0.65132  0.12316  1.0000
  C   C15       1.0  0.44832  0.15132  0.37684  1.0000
  C   C16       1.0  0.55168  0.34868  0.87684  1.0000
  C   C17       1.0  0.16559  0.23378  0.61532  1.0000
  C   C18       1.0  0.83441  0.26622  0.11532  1.0000
  C   C19       1.0  0.83441  0.76622  0.38468  1.0000
  C   C20       1.0  0.16559  0.73378  0.88468  1.0000
  C   C21       1.0  0.10474  0.35806  0.59035  1.0000
  C   C22       1.0  0.89526  0.14194  0.09035  1.0000
  C   C23       1.0  0.89526  0.64194  0.40965  1.0000
  C   C24       1.0  0.10474  0.85806  0.90965  1.0000
  O   O1        1.0  0.46346  0.61320  0.46664  1.0000
  O   O2        1.0  0.53654  0.88680  0.96664  1.0000
  O   O3        1.0  0.53654  0.38681  0.53336  1.0000
  O   O4        1.0  0.46346  0.11319  0.03336  1.0000
  O   O5        1.0  0.34560  0.78511  0.46962  1.0000
  O   O6        1.0  0.65440  0.71489  0.96962  1.0000
  O   O7        1.0  0.65440  0.21489  0.53038  1.0000
  O   O8        1.0  0.34560  0.28511  0.03038  1.0000
  O   O9        1.0  0.27380  0.75714  0.31814  1.0000
  O   O10       1.0  0.72620  0.74286  0.81814  1.0000
  O   O11       1.0  0.72620  0.24286  0.68186  1.0000
  O   O12       1.0  0.27380  0.25714  0.18186  1.0000
  O   O13       1.0  0.37708  0.57799  0.30417  1.0000
  O   O14       1.0  0.62293  0.92201  0.80417  1.0000
  O   O15       1.0  0.62293  0.42201  0.69583  1.0000
  O   O16       1.0  0.37707  0.07799  0.19583  1.0000
  O   O17       1.0  0.81632  0.90162  0.57794  1.0000
  O   O18       1.0  0.18368  0.59838  0.07794  1.0000
  O   O19       1.0  0.18368  0.09838  0.42206  1.0000
  O   O20       1.0  0.81632  0.40162  0.92206  1.0000
  O   O21       1.0  0.69565  0.67836  0.60127  1.0000
  O   O22       1.0  0.30435  0.82164  0.10127  1.0000
  O   O23       1.0  0.30435  0.32164  0.39873  1.0000
  O   O24       1.0  0.69565  0.17836  0.89873  1.0000
  O   O25       1.0  0.57505  0.98126  0.62363  1.0000
  O   O26       1.0  0.42495  0.51874  0.12363  1.0000
  O   O27       1.0  0.42495  0.01874  0.37637  1.0000
  O   O28       1.0  0.57505  0.48126  0.87637  1.0000
  O   O29       1.0  0.42626  0.76398  0.64091  1.0000
  O   O30       1.0  0.57374  0.73602  0.14091  1.0000
  O   O31       1.0  0.57374  0.23602  0.35909  1.0000
  O   O32       1.0  0.42626  0.26397  0.85909  1.0000
  O   O33       1.0  0.35691  0.53108  0.76294  1.0000
  O   O34       1.0  0.64309  0.96892  0.26294  1.0000
  O   O35       1.0  0.64309  0.46892  0.23706  1.0000
  O   O36       1.0  0.35691  0.03108  0.73706  1.0000
  O   O37       1.0  0.06440  0.11552  0.60160  1.0000
  O   O38       1.0  0.93561  0.38448  0.10160  1.0000
  O   O39       1.0  0.93560  0.88448  0.39840  1.0000
  O   O40       1.0  0.06440  0.61552  0.89840  1.0000
  O   O41       1.0  0.29568  0.25088  0.64714  1.0000
  O   O42       1.0  0.70432  0.24912  0.14714  1.0000
  O   O43       1.0  0.70432  0.74912  0.35286  1.0000
  O   O44       1.0  0.29568  0.75088  0.85285  1.0000
  O   O45       1.0  0.19290  0.47724  0.58768  1.0000
  O   O46       1.0  0.80710  0.02276  0.08768  1.0000
  O   O47       1.0  0.80710  0.52276  0.41232  1.0000
  O   O48       1.0  0.19290  0.97724  0.91233  1.0000
  O   O49       1.0  0.95727  0.32508  0.57553  1.0000
  O   O50       1.0  0.04273  0.17492  0.07552  1.0000
  O   O51       1.0  0.04274  0.67492  0.42447  1.0000
  O   O52       1.0  0.95726  0.82508  0.92448  1.0000
  O   O53       1.0  0.13617  0.94202  0.28086  1.0000
  O   O54       1.0  0.86383  0.55798  0.78086  1.0000
  O   O55       1.0  0.86383  0.05798  0.71914  1.0000
  O   O56       1.0  0.13617  0.44202  0.21914  1.0000
  O   O57       1.0  0.17428  0.91283  0.53936  1.0000
  O   O58       1.0  0.82572  0.58717  0.03936  1.0000
  O   O59       1.0  0.82571  0.08717  0.46064  1.0000
  O   O60       1.0  0.17429  0.41283  0.96064  1.0000
