data_image0
_chemical_formula_structural       Ca2H36C36O20
_chemical_formula_sum              "Ca2 H36 C36 O20"
_cell_length_a       7.18465
_cell_length_b       12.2797
_cell_length_c       12.2795
_cell_angle_alpha    115.863
_cell_angle_beta     95.3752
_cell_angle_gamma    95.3753

_space_group_name_H-M_alt    "P 1"
_space_group_IT_number       1

loop_
  _space_group_symop_operation_xyz
  'x, y, z'

loop_
  _atom_site_type_symbol
  _atom_site_label
  _atom_site_symmetry_multiplicity
  _atom_site_fract_x
  _atom_site_fract_y
  _atom_site_fract_z
  _atom_site_occupancy
  Ca  Ca1       1.0  0.74999  0.47228  0.52772  1.0000
  Ca  Ca2       1.0  0.25001  0.52773  0.47229  1.0000
  H   H1        1.0  0.18181  0.91566  0.47732  1.0000
  H   H2        1.0  0.31821  0.52270  0.08435  1.0000
  H   H3        1.0  0.81818  0.08433  0.52267  1.0000
  H   H4        1.0  0.68182  0.47732  0.91566  1.0000
  H   H5        1.0  0.38380  0.99613  0.68037  1.0000
  H   H6        1.0  0.11622  0.31965  0.00389  1.0000
  H   H7        1.0  0.61619  0.00385  0.31962  1.0000
  H   H8        1.0  0.88380  0.68036  0.99613  1.0000
  H   H9        1.0  0.55635  0.20942  0.77860  1.0000
  H   H10       1.0  0.94365  0.22141  0.79060  1.0000
  H   H11       1.0  0.44363  0.79056  0.22139  1.0000
  H   H12       1.0  0.05635  0.77861  0.20943  1.0000
  H   H13       1.0  0.52633  0.34088  0.67337  1.0000
  H   H14       1.0  0.97368  0.32663  0.65913  1.0000
  H   H15       1.0  0.47367  0.65911  0.32663  1.0000
  H   H16       1.0  0.02633  0.67337  0.34089  1.0000
  H   H17       1.0  0.88325  0.96171  0.17530  1.0000
  H   H18       1.0  0.61672  0.82470  0.03828  1.0000
  H   H19       1.0  0.11674  0.03830  0.82469  1.0000
  H   H20       1.0  0.38327  0.17530  0.96170  1.0000
  H   H21       1.0  0.04311  0.94150  0.06554  1.0000
  H   H22       1.0  0.45689  0.93445  0.05849  1.0000
  H   H23       1.0  0.95689  0.05850  0.93445  1.0000
  H   H24       1.0  0.54313  0.06555  0.94151  1.0000
  H   H25       1.0  0.97297  0.08770  0.14930  1.0000
  H   H26       1.0  0.52702  0.85070  0.91230  1.0000
  H   H27       1.0  0.02704  0.91231  0.85070  1.0000
  H   H28       1.0  0.47298  0.14930  0.08769  1.0000
  H   H29       1.0  0.93660  0.25741  0.42313  1.0000
  H   H30       1.0  0.56340  0.57687  0.74260  1.0000
  H   H31       1.0  0.06339  0.74259  0.57687  1.0000
  H   H32       1.0  0.43661  0.42313  0.25742  1.0000
  H   H33       1.0  0.71680  0.20841  0.37605  1.0000
  H   H34       1.0  0.78319  0.62396  0.79159  1.0000
  H   H35       1.0  0.28320  0.79160  0.62396  1.0000
  H   H36       1.0  0.21680  0.37604  0.20842  1.0000
  C   C1        1.0  0.33412  0.20527  0.51808  1.0000
  C   C2        1.0  0.16588  0.48192  0.79473  1.0000
  C   C3        1.0  0.66588  0.79472  0.48191  1.0000
  C   C4        1.0  0.83412  0.51809  0.20528  1.0000
  C   C5        1.0  0.23978  0.08442  0.46411  1.0000
  C   C6        1.0  0.26021  0.53589  0.91558  1.0000
  C   C7        1.0  0.76022  0.91557  0.53588  1.0000
  C   C8        1.0  0.73980  0.46412  0.08442  1.0000
  C   C9        1.0  0.25569  0.00930  0.52170  1.0000
  C   C10       1.0  0.24431  0.47831  0.99071  1.0000
  C   C11       1.0  0.74430  0.99069  0.47830  1.0000
  C   C12       1.0  0.75570  0.52169  0.00930  1.0000
  C   C13       1.0  0.36819  0.05481  0.63554  1.0000
  C   C14       1.0  0.13183  0.36447  0.94520  1.0000
  C   C15       1.0  0.63181  0.94517  0.36445  1.0000
  C   C16       1.0  0.86816  0.63554  0.05480  1.0000
  C   C17       1.0  0.46724  0.17370  0.68999  1.0000
  C   C18       1.0  0.03277  0.31001  0.82632  1.0000
  C   C19       1.0  0.53275  0.82629  0.31000  1.0000
  C   C20       1.0  0.96723  0.69000  0.17369  1.0000
  C   C21       1.0  0.45127  0.24752  0.63112  1.0000
  C   C22       1.0  0.04873  0.36889  0.75249  1.0000
  C   C23       1.0  0.54871  0.75247  0.36888  1.0000
  C   C24       1.0  0.95127  0.63112  0.24752  1.0000
  C   C25       1.0  0.30721  0.29341  0.46635  1.0000
  C   C26       1.0  0.19278  0.53364  0.70659  1.0000
  C   C27       1.0  0.69279  0.70658  0.53365  1.0000
  C   C28       1.0  0.80722  0.46636  0.29342  1.0000
  C   C29       1.0  0.17343  0.03978  0.25154  1.0000
  C   C30       1.0  0.32657  0.74846  0.96021  1.0000
  C   C31       1.0  0.82653  0.96021  0.74844  1.0000
  C   C32       1.0  0.67347  0.25153  0.03979  1.0000
  C   C33       1.0  0.00660  0.00403  0.15403  1.0000
  C   C34       1.0  0.49340  0.84597  0.99596  1.0000
  C   C35       1.0  0.99340  0.99597  0.84596  1.0000
  C   C36       1.0  0.50659  0.15402  0.00402  1.0000
  O   O1        1.0  0.44065  0.38258  0.49669  1.0000
  O   O2        1.0  0.05934  0.50332  0.61742  1.0000
  O   O3        1.0  0.55934  0.61742  0.50332  1.0000
  O   O4        1.0  0.94066  0.49668  0.38258  1.0000
  O   O5        1.0  0.15375  0.28542  0.40087  1.0000
  O   O6        1.0  0.34624  0.59913  0.71458  1.0000
  O   O7        1.0  0.84624  0.71458  0.59913  1.0000
  O   O8        1.0  0.65376  0.40086  0.28543  1.0000
  O   O9        1.0  0.11684  0.03533  0.35344  1.0000
  O   O10       1.0  0.38317  0.64656  0.96468  1.0000
  O   O11       1.0  0.88316  0.96468  0.64656  1.0000
  O   O12       1.0  0.61683  0.35345  0.03532  1.0000
  O   O13       1.0  0.33727  0.06760  0.24304  1.0000
  O   O14       1.0  0.16272  0.75696  0.93239  1.0000
  O   O15       1.0  0.66275  0.93240  0.75695  1.0000
  O   O16       1.0  0.83726  0.24305  0.06759  1.0000
  O   O17       1.0  0.80716  0.26220  0.44828  1.0000
  O   O18       1.0  0.69284  0.55173  0.73780  1.0000
  O   O19       1.0  0.19284  0.73780  0.55173  1.0000
  O   O20       1.0  0.30716  0.44828  0.26221  1.0000
