data_image0
_chemical_formula_structural       Mg4H24C8O24
_chemical_formula_sum              "Mg4 H24 C8 O24"
_cell_length_a       7.24139
_cell_length_b       8.50362
_cell_length_c       8.70017
_cell_angle_alpha    90.0005
_cell_angle_beta     90.0001
_cell_angle_gamma    90

_space_group_name_H-M_alt    "P 1"
_space_group_IT_number       1

loop_
  _space_group_symop_operation_xyz
  'x, y, z'

loop_
  _atom_site_type_symbol
  _atom_site_label
  _atom_site_symmetry_multiplicity
  _atom_site_fract_x
  _atom_site_fract_y
  _atom_site_fract_z
  _atom_site_occupancy
  Mg  Mg1       1.0  0.00000  1.00000  0.00000  1.0000
  Mg  Mg2       1.0  0.50000  1.00000  0.50000  1.0000
  Mg  Mg3       1.0  1.00000  0.50000  0.50000  1.0000
  Mg  Mg4       1.0  0.50000  0.50000  1.00000  1.0000
  H   H1        1.0  0.07587  0.68920  0.82864  1.0000
  H   H2        1.0  0.57588  0.31081  0.67136  1.0000
  H   H3        1.0  0.92413  0.81081  0.32864  1.0000
  H   H4        1.0  0.42413  0.18919  0.17137  1.0000
  H   H5        1.0  0.92413  0.31080  0.17136  1.0000
  H   H6        1.0  0.42412  0.68918  0.32863  1.0000
  H   H7        1.0  0.07587  0.18919  0.67136  1.0000
  H   H8        1.0  0.57587  0.81081  0.82863  1.0000
  H   H9        1.0  0.65457  0.98571  0.12091  1.0000
  H   H10       1.0  0.15456  0.01430  0.37908  1.0000
  H   H11       1.0  0.34543  0.51429  0.62091  1.0000
  H   H12       1.0  0.84543  0.48571  0.87909  1.0000
  H   H13       1.0  0.34543  0.01430  0.87909  1.0000
  H   H14       1.0  0.84543  0.98571  0.62091  1.0000
  H   H15       1.0  0.65457  0.48571  0.37909  1.0000
  H   H16       1.0  0.15457  0.51429  0.12091  1.0000
  H   H17       1.0  0.64541  0.12373  0.99515  1.0000
  H   H18       1.0  0.14541  0.87627  0.50486  1.0000
  H   H19       1.0  0.35459  0.37627  0.49514  1.0000
  H   H20       1.0  0.85459  0.62373  0.00486  1.0000
  H   H21       1.0  0.35459  0.87627  0.00485  1.0000
  H   H22       1.0  0.85459  0.12373  0.49515  1.0000
  H   H23       1.0  0.64541  0.62373  0.50486  1.0000
  H   H24       1.0  0.14541  0.37627  0.99514  1.0000
  C   C1        1.0  0.01830  0.76731  0.73892  1.0000
  C   C2        1.0  0.51828  0.23272  0.76109  1.0000
  C   C3        1.0  0.98172  0.73273  0.23891  1.0000
  C   C4        1.0  0.48171  0.26728  0.26109  1.0000
  C   C5        1.0  0.98170  0.23269  0.26108  1.0000
  C   C6        1.0  0.48172  0.76728  0.23891  1.0000
  C   C7        1.0  0.01829  0.26728  0.76110  1.0000
  C   C8        1.0  0.51829  0.73272  0.73891  1.0000
  O   O1        1.0  0.95406  0.89966  0.77997  1.0000
  O   O2        1.0  0.45406  0.10036  0.72003  1.0000
  O   O3        1.0  0.04594  0.60036  0.27997  1.0000
  O   O4        1.0  0.54594  0.39964  0.22003  1.0000
  O   O5        1.0  0.04594  0.10034  0.22003  1.0000
  O   O6        1.0  0.54594  0.89965  0.27996  1.0000
  O   O7        1.0  0.95405  0.39964  0.72003  1.0000
  O   O8        1.0  0.45406  0.60035  0.77997  1.0000
  O   O9        1.0  0.02263  0.72070  0.60016  1.0000
  O   O10       1.0  0.52263  0.27930  0.89985  1.0000
  O   O11       1.0  0.97737  0.77930  0.10015  1.0000
  O   O12       1.0  0.47737  0.22069  0.39985  1.0000
  O   O13       1.0  0.97737  0.27930  0.39984  1.0000
  O   O14       1.0  0.47738  0.72070  0.10015  1.0000
  O   O15       1.0  0.02262  0.22070  0.89986  1.0000
  O   O16       1.0  0.52263  0.77930  0.60015  1.0000
  O   O17       1.0  0.72112  0.03558  0.03341  1.0000
  O   O18       1.0  0.22112  0.96442  0.46659  1.0000
  O   O19       1.0  0.27887  0.46442  0.53341  1.0000
  O   O20       1.0  0.77888  0.53558  0.96659  1.0000
  O   O21       1.0  0.27888  0.96443  0.96659  1.0000
  O   O22       1.0  0.77888  0.03558  0.53341  1.0000
  O   O23       1.0  0.72113  0.53558  0.46659  1.0000
  O   O24       1.0  0.22112  0.46442  0.03341  1.0000
