data_image0
_chemical_formula_structural       Ni7H38C18N6O20
_chemical_formula_sum              "Ni7 H38 C18 N6 O20"
_cell_length_a       9.4858
_cell_length_b       9.48579
_cell_length_c       9.48584
_cell_angle_alpha    101.709
_cell_angle_beta     101.71
_cell_angle_gamma    101.709

_space_group_name_H-M_alt    "P 1"
_space_group_IT_number       1

loop_
  _space_group_symop_operation_xyz
  'x, y, z'

loop_
  _atom_site_type_symbol
  _atom_site_label
  _atom_site_symmetry_multiplicity
  _atom_site_fract_x
  _atom_site_fract_y
  _atom_site_fract_z
  _atom_site_occupancy
  Ni  Ni1       1.0  0.50000  0.50000  0.50000  1.0000
  Ni  Ni2       1.0  0.32648  0.42838  0.18112  1.0000
  Ni  Ni3       1.0  0.18112  0.32648  0.42838  1.0000
  Ni  Ni4       1.0  0.42838  0.18112  0.32648  1.0000
  Ni  Ni5       1.0  0.81888  0.67352  0.57162  1.0000
  Ni  Ni6       1.0  0.57162  0.81888  0.67353  1.0000
  Ni  Ni7       1.0  0.67353  0.57162  0.81888  1.0000
  H   H1        1.0  0.06809  0.43140  0.17108  1.0000
  H   H2        1.0  0.17108  0.06809  0.43140  1.0000
  H   H3        1.0  0.43140  0.17108  0.06809  1.0000
  H   H4        1.0  0.82892  0.93191  0.56860  1.0000
  H   H5        1.0  0.56860  0.82892  0.93191  1.0000
  H   H6        1.0  0.93191  0.56860  0.82892  1.0000
  H   H7        1.0  0.03283  0.24664  0.94799  1.0000
  H   H8        1.0  0.94799  0.03283  0.24664  1.0000
  H   H9        1.0  0.24664  0.94799  0.03283  1.0000
  H   H10       1.0  0.05201  0.96717  0.75335  1.0000
  H   H11       1.0  0.75335  0.05201  0.96717  1.0000
  H   H12       1.0  0.96717  0.75335  0.05201  1.0000
  H   H13       1.0  0.09597  0.38887  0.86272  1.0000
  H   H14       1.0  0.86272  0.09597  0.38888  1.0000
  H   H15       1.0  0.38887  0.86271  0.09597  1.0000
  H   H16       1.0  0.13728  0.90402  0.61112  1.0000
  H   H17       1.0  0.61112  0.13728  0.90403  1.0000
  H   H18       1.0  0.90403  0.61112  0.13728  1.0000
  H   H19       1.0  0.18348  0.64993  0.01574  1.0000
  H   H20       1.0  0.01573  0.18348  0.64993  1.0000
  H   H21       1.0  0.64993  0.01573  0.18348  1.0000
  H   H22       1.0  0.98426  0.81652  0.35007  1.0000
  H   H23       1.0  0.35007  0.98426  0.81652  1.0000
  H   H24       1.0  0.81652  0.35007  0.98427  1.0000
  H   H25       1.0  0.18397  0.68855  0.20675  1.0000
  H   H26       1.0  0.20675  0.18397  0.68855  1.0000
  H   H27       1.0  0.68854  0.20675  0.18397  1.0000
  H   H28       1.0  0.79325  0.81603  0.31145  1.0000
  H   H29       1.0  0.31145  0.79325  0.81603  1.0000
  H   H30       1.0  0.81604  0.31145  0.79325  1.0000
  H   H31       1.0  0.15482  0.15482  0.15482  1.0000
  H   H32       1.0  0.84518  0.84518  0.84518  1.0000
  H   H33       1.0  0.29399  0.61779  0.41997  1.0000
  H   H34       1.0  0.41997  0.29399  0.61779  1.0000
  H   H35       1.0  0.61779  0.41997  0.29399  1.0000
  H   H36       1.0  0.58002  0.70601  0.38221  1.0000
  H   H37       1.0  0.38221  0.58002  0.70601  1.0000
  H   H38       1.0  0.70601  0.38221  0.58002  1.0000
  C   C1        1.0  0.03554  0.36262  0.94548  1.0000
  C   C2        1.0  0.94547  0.03554  0.36263  1.0000
  C   C3        1.0  0.36262  0.94547  0.03554  1.0000
  C   C4        1.0  0.05452  0.96446  0.63737  1.0000
  C   C5        1.0  0.63737  0.05452  0.96446  1.0000
  C   C6        1.0  0.96446  0.63737  0.05452  1.0000
  C   C7        1.0  0.47363  0.41809  0.95160  1.0000
  C   C8        1.0  0.95161  0.47362  0.41809  1.0000
  C   C9        1.0  0.41808  0.95163  0.47360  1.0000
  C   C10       1.0  0.04840  0.52639  0.58191  1.0000
  C   C11       1.0  0.58191  0.04840  0.52640  1.0000
  C   C12       1.0  0.52642  0.58192  0.04839  1.0000
  C   C13       1.0  0.12216  0.61762  0.09577  1.0000
  C   C14       1.0  0.09576  0.12216  0.61761  1.0000
  C   C15       1.0  0.61761  0.09576  0.12216  1.0000
  C   C16       1.0  0.90423  0.87784  0.38238  1.0000
  C   C17       1.0  0.38238  0.90423  0.87784  1.0000
  C   C18       1.0  0.87784  0.38238  0.90424  1.0000
  N   N1        1.0  0.12093  0.46088  0.09246  1.0000
  N   N2        1.0  0.09245  0.12093  0.46088  1.0000
  N   N3        1.0  0.46088  0.09245  0.12093  1.0000
  N   N4        1.0  0.90754  0.87907  0.53912  1.0000
  N   N5        1.0  0.53911  0.90754  0.87907  1.0000
  N   N6        1.0  0.87908  0.53911  0.90754  1.0000
  O   O1        1.0  0.36953  0.33060  0.98115  1.0000
  O   O2        1.0  0.98115  0.36952  0.33061  1.0000
  O   O3        1.0  0.33061  0.98115  0.36952  1.0000
  O   O4        1.0  0.01887  0.63049  0.66940  1.0000
  O   O5        1.0  0.66939  0.01887  0.63048  1.0000
  O   O6        1.0  0.63049  0.66940  0.01887  1.0000
  O   O7        1.0  0.53801  0.38210  0.84991  1.0000
  O   O8        1.0  0.84992  0.53801  0.38210  1.0000
  O   O9        1.0  0.38209  0.84991  0.53802  1.0000
  O   O10       1.0  0.15010  0.46200  0.61790  1.0000
  O   O11       1.0  0.61790  0.15010  0.46200  1.0000
  O   O12       1.0  0.46200  0.61791  0.15009  1.0000
  O   O13       1.0  0.23149  0.23149  0.23148  1.0000
  O   O14       1.0  0.76851  0.76851  0.76851  1.0000
  O   O15       1.0  0.29979  0.51533  0.38533  1.0000
  O   O16       1.0  0.38533  0.29979  0.51532  1.0000
  O   O17       1.0  0.51532  0.38533  0.29979  1.0000
  O   O18       1.0  0.61467  0.70021  0.48468  1.0000
  O   O19       1.0  0.48468  0.61467  0.70021  1.0000
  O   O20       1.0  0.70021  0.48468  0.61467  1.0000
