data_image0
_chemical_formula_structural       Cd2H48C48N28O12
_chemical_formula_sum              "Cd2 H48 C48 N28 O12"
_cell_length_a       8.31373
_cell_length_b       8.55403
_cell_length_c       21.19
_cell_angle_alpha    90
_cell_angle_beta     90
_cell_angle_gamma    106.076

_space_group_name_H-M_alt    "P 1"
_space_group_IT_number       1

loop_
  _space_group_symop_operation_xyz
  'x, y, z'

loop_
  _atom_site_type_symbol
  _atom_site_label
  _atom_site_symmetry_multiplicity
  _atom_site_fract_x
  _atom_site_fract_y
  _atom_site_fract_z
  _atom_site_occupancy
  Cd  Cd1       1.0  0.00000  0.50000  0.50000  1.0000
  Cd  Cd2       1.0  0.00000  0.00000  1.00000  1.0000
  H   H1        1.0  0.20969  0.88590  0.43931  1.0000
  H   H2        1.0  0.20970  0.38591  0.06069  1.0000
  H   H3        1.0  0.79031  0.11410  0.56069  1.0000
  H   H4        1.0  0.79030  0.61409  0.93931  1.0000
  H   H5        1.0  0.68835  0.68084  0.44450  1.0000
  H   H6        1.0  0.68835  0.18084  0.05550  1.0000
  H   H7        1.0  0.31166  0.31916  0.55550  1.0000
  H   H8        1.0  0.31165  0.81916  0.94450  1.0000
  H   H9        1.0  0.79919  0.13191  0.39174  1.0000
  H   H10       1.0  0.79919  0.63192  0.10826  1.0000
  H   H11       1.0  0.20081  0.86809  0.60826  1.0000
  H   H12       1.0  0.20081  0.36808  0.89174  1.0000
  H   H13       1.0  0.64705  0.01067  0.44451  1.0000
  H   H14       1.0  0.64705  0.51068  0.05549  1.0000
  H   H15       1.0  0.35295  0.98932  0.55549  1.0000
  H   H16       1.0  0.35295  0.48933  0.94451  1.0000
  H   H17       1.0  0.42771  0.77446  0.40766  1.0000
  H   H18       1.0  0.42771  0.27447  0.09234  1.0000
  H   H19       1.0  0.57229  0.22553  0.59233  1.0000
  H   H20       1.0  0.57229  0.72553  0.90766  1.0000
  H   H21       1.0  0.24733  0.64262  0.31862  1.0000
  H   H22       1.0  0.24734  0.14263  0.18137  1.0000
  H   H23       1.0  0.75266  0.35738  0.68137  1.0000
  H   H24       1.0  0.75266  0.85737  0.81863  1.0000
  H   H25       1.0  0.58990  0.94293  0.18702  1.0000
  H   H26       1.0  0.58990  0.44292  0.31299  1.0000
  H   H27       1.0  0.41010  0.05708  0.81298  1.0000
  H   H28       1.0  0.41010  0.55707  0.68702  1.0000
  H   H29       1.0  0.77335  0.07663  0.27607  1.0000
  H   H30       1.0  0.77335  0.57663  0.22393  1.0000
  H   H31       1.0  0.22665  0.92337  0.72393  1.0000
  H   H32       1.0  0.22665  0.42337  0.77607  1.0000
  H   H33       1.0  0.37717  0.67398  0.15429  1.0000
  H   H34       1.0  0.37717  0.17398  0.34571  1.0000
  H   H35       1.0  0.62282  0.32603  0.84571  1.0000
  H   H36       1.0  0.62283  0.82602  0.65429  1.0000
  H   H37       1.0  0.21738  0.57963  0.20915  1.0000
  H   H38       1.0  0.21738  0.07962  0.29085  1.0000
  H   H39       1.0  0.78262  0.42038  0.79085  1.0000
  H   H40       1.0  0.78262  0.92037  0.70915  1.0000
  H   H41       1.0  0.28565  0.82545  0.07189  1.0000
  H   H42       1.0  0.28565  0.32545  0.42811  1.0000
  H   H43       1.0  0.71435  0.17455  0.92811  1.0000
  H   H44       1.0  0.71435  0.67454  0.57189  1.0000
  H   H45       1.0  0.88567  0.93772  0.16628  1.0000
  H   H46       1.0  0.88567  0.43772  0.33372  1.0000
  H   H47       1.0  0.11433  0.06229  0.83372  1.0000
  H   H48       1.0  0.11434  0.56228  0.66628  1.0000
  C   C1        1.0  0.07626  0.87105  0.43561  1.0000
  C   C2        1.0  0.07626  0.37105  0.06439  1.0000
  C   C3        1.0  0.92374  0.12895  0.56439  1.0000
  C   C4        1.0  0.92374  0.62895  0.93561  1.0000
  C   C5        1.0  0.81232  0.76363  0.43934  1.0000
  C   C6        1.0  0.81232  0.26363  0.06067  1.0000
  C   C7        1.0  0.18769  0.23637  0.56067  1.0000
  C   C8        1.0  0.18768  0.73637  0.93933  1.0000
  C   C9        1.0  0.72336  0.00830  0.40245  1.0000
  C   C10       1.0  0.72337  0.50830  0.09755  1.0000
  C   C11       1.0  0.27663  0.99170  0.59755  1.0000
  C   C12       1.0  0.27663  0.49170  0.90245  1.0000
  C   C13       1.0  0.61322  0.93305  0.34771  1.0000
  C   C14       1.0  0.61323  0.43305  0.15229  1.0000
  C   C15       1.0  0.38678  0.06695  0.65229  1.0000
  C   C16       1.0  0.38677  0.56695  0.84771  1.0000
  C   C17       1.0  0.46447  0.81156  0.35932  1.0000
  C   C18       1.0  0.46447  0.31156  0.14069  1.0000
  C   C19       1.0  0.53553  0.18844  0.64069  1.0000
  C   C20       1.0  0.53552  0.68843  0.85931  1.0000
  C   C21       1.0  0.36304  0.73706  0.30938  1.0000
  C   C22       1.0  0.36305  0.23706  0.19063  1.0000
  C   C23       1.0  0.63695  0.26294  0.69063  1.0000
  C   C24       1.0  0.63695  0.76294  0.80938  1.0000
  C   C25       1.0  0.40829  0.78275  0.24717  1.0000
  C   C26       1.0  0.40829  0.28275  0.25283  1.0000
  C   C27       1.0  0.59171  0.21725  0.75283  1.0000
  C   C28       1.0  0.59171  0.71725  0.74717  1.0000
  C   C29       1.0  0.55572  0.90645  0.23558  1.0000
  C   C30       1.0  0.55572  0.40645  0.26443  1.0000
  C   C31       1.0  0.44428  0.09355  0.76442  1.0000
  C   C32       1.0  0.44428  0.59355  0.73558  1.0000
  C   C33       1.0  0.65800  0.98096  0.28546  1.0000
  C   C34       1.0  0.65800  0.48096  0.21454  1.0000
  C   C35       1.0  0.34200  0.01904  0.71454  1.0000
  C   C36       1.0  0.34200  0.51904  0.78546  1.0000
  C   C37       1.0  0.30031  0.69679  0.19349  1.0000
  C   C38       1.0  0.30031  0.19679  0.30651  1.0000
  C   C39       1.0  0.69969  0.30322  0.80651  1.0000
  C   C40       1.0  0.69969  0.80321  0.69349  1.0000
  C   C41       1.0  0.19610  0.84268  0.10662  1.0000
  C   C42       1.0  0.19611  0.34268  0.39338  1.0000
  C   C43       1.0  0.80389  0.15732  0.89338  1.0000
  C   C44       1.0  0.80390  0.65732  0.60662  1.0000
  C   C45       1.0  0.99443  0.89526  0.15627  1.0000
  C   C46       1.0  0.99443  0.39525  0.34373  1.0000
  C   C47       1.0  0.00557  0.10475  0.84373  1.0000
  C   C48       1.0  0.00557  0.60474  0.65627  1.0000
  N   N1        1.0  0.95749  0.73001  0.45062  1.0000
  N   N2        1.0  0.95750  0.23002  0.04938  1.0000
  N   N3        1.0  0.04251  0.26999  0.54938  1.0000
  N   N4        1.0  0.04250  0.76999  0.95062  1.0000
  N   N5        1.0  0.84385  0.91756  0.41886  1.0000
  N   N6        1.0  0.84385  0.41756  0.08115  1.0000
  N   N7        1.0  0.15615  0.08244  0.58114  1.0000
  N   N8        1.0  0.15615  0.58243  0.91886  1.0000
  N   N9        1.0  0.01192  0.98812  0.41584  1.0000
  N   N10       1.0  0.01192  0.48813  0.08417  1.0000
  N   N11       1.0  0.98808  0.01188  0.58416  1.0000
  N   N12       1.0  0.98808  0.51187  0.91583  1.0000
  N   N13       1.0  0.19465  0.79098  0.16633  1.0000
  N   N14       1.0  0.19465  0.29098  0.33367  1.0000
  N   N15       1.0  0.80535  0.20902  0.83367  1.0000
  N   N16       1.0  0.80536  0.70901  0.66633  1.0000
  N   N17       1.0  0.06601  0.82246  0.19908  1.0000
  N   N18       1.0  0.06602  0.32246  0.30092  1.0000
  N   N19       1.0  0.93399  0.17754  0.80092  1.0000
  N   N20       1.0  0.93399  0.67754  0.69908  1.0000
  N   N21       1.0  0.07040  0.91012  0.09843  1.0000
  N   N22       1.0  0.07041  0.41012  0.40157  1.0000
  N   N23       1.0  0.92960  0.08988  0.90157  1.0000
  N   N24       1.0  0.92960  0.58988  0.59843  1.0000
  N   N25       1.0  0.60208  0.31536  0.46146  1.0000
  N   N26       1.0  0.60208  0.81537  0.03854  1.0000
  N   N27       1.0  0.39792  0.68463  0.53854  1.0000
  N   N28       1.0  0.39792  0.18464  0.96146  1.0000
  O   O1        1.0  0.71144  0.33208  0.50567  1.0000
  O   O2        1.0  0.71144  0.83208  0.99433  1.0000
  O   O3        1.0  0.28856  0.66792  0.49433  1.0000
  O   O4        1.0  0.28856  0.16792  0.00567  1.0000
  O   O5        1.0  0.63258  0.40784  0.41414  1.0000
  O   O6        1.0  0.63258  0.90784  0.08586  1.0000
  O   O7        1.0  0.36742  0.59216  0.58586  1.0000
  O   O8        1.0  0.36742  0.09216  0.91414  1.0000
  O   O9        1.0  0.46539  0.20572  0.46689  1.0000
  O   O10       1.0  0.46540  0.70572  0.03311  1.0000
  O   O11       1.0  0.53461  0.79428  0.53311  1.0000
  O   O12       1.0  0.53461  0.29428  0.96689  1.0000
