data_image0
_chemical_formula_structural       Cd2H48C48N24Cl4
_chemical_formula_sum              "Cd2 H48 C48 N24 Cl4"
_cell_length_a       7.59958
_cell_length_b       8.89007
_cell_length_c       21.895
_cell_angle_alpha    90
_cell_angle_beta     90
_cell_angle_gamma    109.158

_space_group_name_H-M_alt    "P 1"
_space_group_IT_number       1

loop_
  _space_group_symop_operation_xyz
  'x, y, z'

loop_
  _atom_site_type_symbol
  _atom_site_label
  _atom_site_symmetry_multiplicity
  _atom_site_fract_x
  _atom_site_fract_y
  _atom_site_fract_z
  _atom_site_occupancy
  Cd  Cd1       1.0  0.00000  0.00000  0.50000  1.0000
  Cd  Cd2       1.0  1.00000  0.50000  1.00000  1.0000
  H   H1        1.0  0.23625  0.39882  0.44143  1.0000
  H   H2        1.0  0.23624  0.89882  0.05857  1.0000
  H   H3        1.0  0.76376  0.60118  0.55857  1.0000
  H   H4        1.0  0.76375  0.10117  0.94143  1.0000
  H   H5        1.0  0.66034  0.16006  0.45500  1.0000
  H   H6        1.0  0.66034  0.66006  0.04500  1.0000
  H   H7        1.0  0.33967  0.83994  0.54500  1.0000
  H   H8        1.0  0.33966  0.33993  0.95500  1.0000
  H   H9        1.0  0.74508  0.59609  0.41158  1.0000
  H   H10       1.0  0.74507  0.09609  0.08842  1.0000
  H   H11       1.0  0.25493  0.40391  0.58842  1.0000
  H   H12       1.0  0.25492  0.90391  0.91158  1.0000
  H   H13       1.0  0.57395  0.43295  0.44721  1.0000
  H   H14       1.0  0.57395  0.93295  0.05279  1.0000
  H   H15       1.0  0.42606  0.56705  0.55279  1.0000
  H   H16       1.0  0.42605  0.06705  0.94720  1.0000
  H   H17       1.0  0.79525  0.58421  0.29587  1.0000
  H   H18       1.0  0.79526  0.08421  0.20413  1.0000
  H   H19       1.0  0.20474  0.41579  0.70413  1.0000
  H   H20       1.0  0.20474  0.91579  0.79587  1.0000
  H   H21       1.0  0.65243  0.47619  0.19668  1.0000
  H   H22       1.0  0.65243  0.97619  0.30332  1.0000
  H   H23       1.0  0.34757  0.52381  0.80332  1.0000
  H   H24       1.0  0.34756  0.02381  0.69668  1.0000
  H   H25       1.0  0.23673  0.09716  0.28980  1.0000
  H   H26       1.0  0.23673  0.59716  0.21020  1.0000
  H   H27       1.0  0.76327  0.90284  0.71021  1.0000
  H   H28       1.0  0.76327  0.40284  0.78980  1.0000
  H   H29       1.0  0.37188  0.21126  0.38996  1.0000
  H   H30       1.0  0.37188  0.71126  0.11004  1.0000
  H   H31       1.0  0.62812  0.78874  0.61004  1.0000
  H   H32       1.0  0.62812  0.28873  0.88996  1.0000
  H   H33       1.0  0.46067  0.22098  0.14134  1.0000
  H   H34       1.0  0.46067  0.72098  0.35867  1.0000
  H   H35       1.0  0.53933  0.77902  0.85867  1.0000
  H   H36       1.0  0.53933  0.27902  0.64133  1.0000
  H   H37       1.0  0.27166  0.08150  0.18106  1.0000
  H   H38       1.0  0.27166  0.58150  0.31894  1.0000
  H   H39       1.0  0.72834  0.91850  0.81894  1.0000
  H   H40       1.0  0.72834  0.41850  0.68106  1.0000
  H   H41       1.0  0.13514  0.11646  0.65325  1.0000
  H   H42       1.0  0.13514  0.61646  0.84675  1.0000
  H   H43       1.0  0.86486  0.88355  0.34675  1.0000
  H   H44       1.0  0.86486  0.38354  0.15325  1.0000
  H   H45       1.0  0.63975  0.11695  0.56715  1.0000
  H   H46       1.0  0.63975  0.61695  0.93285  1.0000
  H   H47       1.0  0.36025  0.88305  0.43285  1.0000
  H   H48       1.0  0.36025  0.38305  0.06715  1.0000
  C   C1        1.0  0.08670  0.37261  0.43884  1.0000
  C   C2        1.0  0.08669  0.87260  0.06116  1.0000
  C   C3        1.0  0.91331  0.62740  0.56116  1.0000
  C   C4        1.0  0.91330  0.12739  0.93884  1.0000
  C   C5        1.0  0.79607  0.24775  0.44636  1.0000
  C   C6        1.0  0.79607  0.74775  0.05364  1.0000
  C   C7        1.0  0.20394  0.75225  0.55364  1.0000
  C   C8        1.0  0.20393  0.25225  0.94636  1.0000
  C   C9        1.0  0.67894  0.46652  0.41069  1.0000
  C   C10       1.0  0.67894  0.96652  0.08931  1.0000
  C   C11       1.0  0.32106  0.53348  0.58931  1.0000
  C   C12       1.0  0.32106  0.03348  0.91069  1.0000
  C   C13       1.0  0.59204  0.40540  0.34959  1.0000
  C   C14       1.0  0.59204  0.90540  0.15041  1.0000
  C   C15       1.0  0.40796  0.59460  0.65041  1.0000
  C   C16       1.0  0.40796  0.09460  0.84959  1.0000
  C   C17       1.0  0.67079  0.47905  0.29490  1.0000
  C   C18       1.0  0.67079  0.97905  0.20510  1.0000
  C   C19       1.0  0.32921  0.52095  0.70510  1.0000
  C   C20       1.0  0.32921  0.02095  0.79490  1.0000
  C   C21       1.0  0.59259  0.41601  0.23904  1.0000
  C   C22       1.0  0.59259  0.91601  0.26096  1.0000
  C   C23       1.0  0.40741  0.58399  0.76096  1.0000
  C   C24       1.0  0.40741  0.08399  0.73904  1.0000
  C   C25       1.0  0.43763  0.27725  0.23682  1.0000
  C   C26       1.0  0.43763  0.77725  0.26318  1.0000
  C   C27       1.0  0.56237  0.72275  0.76318  1.0000
  C   C28       1.0  0.56237  0.22275  0.73682  1.0000
  C   C29       1.0  0.35855  0.20448  0.29144  1.0000
  C   C30       1.0  0.35856  0.70449  0.20856  1.0000
  C   C31       1.0  0.64145  0.79552  0.70856  1.0000
  C   C32       1.0  0.64144  0.29551  0.79144  1.0000
  C   C33       1.0  0.43438  0.26849  0.34743  1.0000
  C   C34       1.0  0.43438  0.76849  0.15257  1.0000
  C   C35       1.0  0.56562  0.73151  0.65257  1.0000
  C   C36       1.0  0.56561  0.23151  0.84743  1.0000
  C   C37       1.0  0.35367  0.20830  0.17654  1.0000
  C   C38       1.0  0.35366  0.70830  0.32346  1.0000
  C   C39       1.0  0.64633  0.79170  0.82346  1.0000
  C   C40       1.0  0.64633  0.29170  0.67654  1.0000
  C   C41       1.0  0.99621  0.36462  0.14405  1.0000
  C   C42       1.0  0.99621  0.86463  0.35595  1.0000
  C   C43       1.0  0.00379  0.63537  0.85595  1.0000
  C   C44       1.0  0.00379  0.13538  0.64405  1.0000
  C   C45       1.0  0.75533  0.13337  0.59873  1.0000
  C   C46       1.0  0.75533  0.63337  0.90127  1.0000
  C   C47       1.0  0.24468  0.86663  0.40127  1.0000
  C   C48       1.0  0.24468  0.36663  0.09873  1.0000
  N   N1        1.0  0.96157  0.22834  0.45425  1.0000
  N   N2        1.0  0.96157  0.72834  0.04575  1.0000
  N   N3        1.0  0.03843  0.77166  0.54575  1.0000
  N   N4        1.0  0.03843  0.27166  0.95425  1.0000
  N   N5        1.0  0.00783  0.47896  0.42154  1.0000
  N   N6        1.0  0.00782  0.97895  0.07846  1.0000
  N   N7        1.0  0.99218  0.52105  0.57846  1.0000
  N   N8        1.0  0.99218  0.02104  0.92155  1.0000
  N   N9        1.0  0.82260  0.39702  0.42710  1.0000
  N   N10       1.0  0.82259  0.89701  0.07290  1.0000
  N   N11       1.0  0.17741  0.60299  0.57290  1.0000
  N   N12       1.0  0.17740  0.10298  0.92710  1.0000
  N   N13       1.0  0.23028  0.28995  0.15226  1.0000
  N   N14       1.0  0.23028  0.78995  0.34774  1.0000
  N   N15       1.0  0.76972  0.71005  0.84774  1.0000
  N   N16       1.0  0.76972  0.21005  0.65226  1.0000
  N   N17       1.0  0.07257  0.28732  0.18216  1.0000
  N   N18       1.0  0.07257  0.78732  0.31784  1.0000
  N   N19       1.0  0.92743  0.71268  0.81784  1.0000
  N   N20       1.0  0.92743  0.21268  0.68216  1.0000
  N   N21       1.0  0.09742  0.41597  0.09220  1.0000
  N   N22       1.0  0.09742  0.91597  0.40780  1.0000
  N   N23       1.0  0.90258  0.58403  0.90780  1.0000
  N   N24       1.0  0.90259  0.08403  0.59220  1.0000
  Cl  Cl1       1.0  0.64308  0.83459  0.47465  1.0000
  Cl  Cl2       1.0  0.64308  0.33458  0.02535  1.0000
  Cl  Cl3       1.0  0.35692  0.16542  0.52535  1.0000
  Cl  Cl4       1.0  0.35692  0.66541  0.97465  1.0000
