data_image0
_chemical_formula_structural       Sb8H20C8S4O24
_chemical_formula_sum              "Sb8 H20 C8 S4 O24"
_cell_length_a       6.01586
_cell_length_b       10.0994
_cell_length_c       12.2724
_cell_angle_alpha    89.9993
_cell_angle_beta     101.97
_cell_angle_gamma    90

_space_group_name_H-M_alt    "P 1"
_space_group_IT_number       1

loop_
  _space_group_symop_operation_xyz
  'x, y, z'

loop_
  _atom_site_type_symbol
  _atom_site_label
  _atom_site_symmetry_multiplicity
  _atom_site_fract_x
  _atom_site_fract_y
  _atom_site_fract_z
  _atom_site_occupancy
  Sb  Sb1       1.0  0.47849  0.35106  0.26785  1.0000
  Sb  Sb2       1.0  0.02151  0.85105  0.73215  1.0000
  Sb  Sb3       1.0  0.52151  0.64894  0.73215  1.0000
  Sb  Sb4       1.0  0.97849  0.14895  0.26785  1.0000
  Sb  Sb5       1.0  0.26315  0.39842  0.50151  1.0000
  Sb  Sb6       1.0  0.23684  0.89842  0.49849  1.0000
  Sb  Sb7       1.0  0.73685  0.60159  0.49849  1.0000
  Sb  Sb8       1.0  0.76315  0.10158  0.50151  1.0000
  H   H1        1.0  0.75606  0.71559  0.10563  1.0000
  H   H2        1.0  0.74395  0.21558  0.89436  1.0000
  H   H3        1.0  0.24394  0.28442  0.89437  1.0000
  H   H4        1.0  0.25605  0.78442  0.10564  1.0000
  H   H5        1.0  0.85647  0.61308  0.00713  1.0000
  H   H6        1.0  0.64353  0.11308  0.99286  1.0000
  H   H7        1.0  0.14354  0.38692  0.99288  1.0000
  H   H8        1.0  0.35646  0.88692  0.00713  1.0000
  H   H9        1.0  0.42781  0.64396  0.97250  1.0000
  H   H10       1.0  0.07219  0.14395  0.02750  1.0000
  H   H11       1.0  0.57220  0.35604  0.02750  1.0000
  H   H12       1.0  0.92780  0.85604  0.97250  1.0000
  H   H13       1.0  0.42026  0.56621  0.09868  1.0000
  H   H14       1.0  0.07975  0.06621  0.90133  1.0000
  H   H15       1.0  0.57974  0.43379  0.90133  1.0000
  H   H16       1.0  0.92024  0.93379  0.09867  1.0000
  H   H17       1.0  0.39032  0.21686  0.64053  1.0000
  H   H18       1.0  0.10969  0.71687  0.35947  1.0000
  H   H19       1.0  0.60969  0.78314  0.35947  1.0000
  H   H20       1.0  0.89032  0.28313  0.64053  1.0000
  C   C1        1.0  0.75555  0.61458  0.07234  1.0000
  C   C2        1.0  0.74445  0.11457  0.92765  1.0000
  C   C3        1.0  0.24445  0.38542  0.92766  1.0000
  C   C4        1.0  0.25554  0.88542  0.07234  1.0000
  C   C5        1.0  0.51188  0.56701  0.02972  1.0000
  C   C6        1.0  0.98812  0.06701  0.97028  1.0000
  C   C7        1.0  0.48812  0.43299  0.97028  1.0000
  C   C8        1.0  0.01188  0.93299  0.02972  1.0000
  S   S1        1.0  0.91662  0.52050  0.18520  1.0000
  S   S2        1.0  0.58338  0.02050  0.81479  1.0000
  S   S3        1.0  0.08339  0.47951  0.81480  1.0000
  S   S4        1.0  0.41661  0.97951  0.18521  1.0000
  O   O1        1.0  0.78145  0.52024  0.27475  1.0000
  O   O2        1.0  0.71856  0.02024  0.72525  1.0000
  O   O3        1.0  0.21856  0.47976  0.72525  1.0000
  O   O4        1.0  0.28143  0.97977  0.27475  1.0000
  O   O5        1.0  0.93776  0.38468  0.14294  1.0000
  O   O6        1.0  0.56226  0.88467  0.85706  1.0000
  O   O7        1.0  0.06225  0.61532  0.85707  1.0000
  O   O8        1.0  0.43775  0.11532  0.14293  1.0000
  O   O9        1.0  0.13554  0.58765  0.22297  1.0000
  O   O10       1.0  0.36447  0.08764  0.77702  1.0000
  O   O11       1.0  0.86446  0.41235  0.77702  1.0000
  O   O12       1.0  0.63553  0.91235  0.22298  1.0000
  O   O13       1.0  0.73650  0.23461  0.34556  1.0000
  O   O14       1.0  0.76350  0.73461  0.65444  1.0000
  O   O15       1.0  0.26350  0.76539  0.65444  1.0000
  O   O16       1.0  0.23650  0.26539  0.34556  1.0000
  O   O17       1.0  0.50970  0.44876  0.41278  1.0000
  O   O18       1.0  0.99030  0.94876  0.58721  1.0000
  O   O19       1.0  0.49030  0.55124  0.58721  1.0000
  O   O20       1.0  0.00969  0.05124  0.41278  1.0000
  O   O21       1.0  0.46566  0.26135  0.58658  1.0000
  O   O22       1.0  0.03434  0.76135  0.41341  1.0000
  O   O23       1.0  0.53434  0.73865  0.41342  1.0000
  O   O24       1.0  0.96566  0.23864  0.58659  1.0000
