data_image0
_chemical_formula_structural       Tl4H16Au4C56Cl40O2
_chemical_formula_sum              "Tl4 H16 Au4 C56 Cl40 O2"
_cell_length_a       9.05178
_cell_length_b       11.2922
_cell_length_c       21.2465
_cell_angle_alpha    96.6909
_cell_angle_beta     92.5536
_cell_angle_gamma    98.6822

_space_group_name_H-M_alt    "P 1"
_space_group_IT_number       1

loop_
  _space_group_symop_operation_xyz
  'x, y, z'

loop_
  _atom_site_type_symbol
  _atom_site_label
  _atom_site_symmetry_multiplicity
  _atom_site_fract_x
  _atom_site_fract_y
  _atom_site_fract_z
  _atom_site_occupancy
  Tl  Tl1       1.0  0.69953  0.63891  0.30251  1.0000
  Tl  Tl2       1.0  0.30047  0.36110  0.69748  1.0000
  Tl  Tl3       1.0  0.63586  0.14909  0.25401  1.0000
  Tl  Tl4       1.0  0.36414  0.85091  0.74599  1.0000
  H   H1        1.0  0.53466  0.06973  0.06731  1.0000
  H   H2        1.0  0.46535  0.93028  0.93269  1.0000
  H   H3        1.0  0.61049  0.93759  0.08382  1.0000
  H   H4        1.0  0.38952  0.06242  0.91619  1.0000
  H   H5        1.0  0.73844  0.13112  0.00212  1.0000
  H   H6        1.0  0.26157  0.86889  0.99788  1.0000
  H   H7        1.0  0.72525  0.97177  0.98496  1.0000
  H   H8        1.0  0.27476  0.02824  0.01504  1.0000
  H   H9        1.0  0.92173  0.96559  0.06611  1.0000
  H   H10       1.0  0.07827  0.03441  0.93389  1.0000
  H   H11       1.0  0.99153  0.10182  0.03540  1.0000
  H   H12       1.0  0.00848  0.89818  0.96460  1.0000
  H   H13       1.0  0.93898  0.10146  0.16298  1.0000
  H   H14       1.0  0.06103  0.89855  0.83702  1.0000
  H   H15       1.0  0.90740  0.22524  0.12150  1.0000
  H   H16       1.0  0.09261  0.77477  0.87850  1.0000
  Au  Au1       1.0  0.51501  0.40023  0.26504  1.0000
  Au  Au2       1.0  0.48499  0.59977  0.73496  1.0000
  Au  Au3       1.0  0.66211  0.89225  0.28350  1.0000
  Au  Au4       1.0  0.33788  0.10776  0.71650  1.0000
  C   C1        1.0  0.53341  0.38727  0.16795  1.0000
  C   C2        1.0  0.46659  0.61272  0.83205  1.0000
  C   C3        1.0  0.40724  0.35793  0.12480  1.0000
  C   C4        1.0  0.59276  0.64206  0.87520  1.0000
  C   C5        1.0  0.41828  0.34100  0.05865  1.0000
  C   C6        1.0  0.58171  0.65900  0.94136  1.0000
  C   C7        1.0  0.56046  0.35791  0.03371  1.0000
  C   C8        1.0  0.43954  0.64208  0.96629  1.0000
  C   C9        1.0  0.68950  0.38960  0.07522  1.0000
  C   C10       1.0  0.31049  0.61039  0.92478  1.0000
  C   C11       1.0  0.67294  0.40081  0.14105  1.0000
  C   C12       1.0  0.32706  0.59918  0.85895  1.0000
  C   C13       1.0  0.50285  0.39526  0.36187  1.0000
  C   C14       1.0  0.49715  0.60475  0.63813  1.0000
  C   C15       1.0  0.62592  0.37775  0.40033  1.0000
  C   C16       1.0  0.37408  0.62225  0.59967  1.0000
  C   C17       1.0  0.61384  0.34774  0.46245  1.0000
  C   C18       1.0  0.38616  0.65226  0.53755  1.0000
  C   C19       1.0  0.47234  0.33554  0.48776  1.0000
  C   C20       1.0  0.52767  0.66446  0.51224  1.0000
  C   C21       1.0  0.34785  0.36062  0.45266  1.0000
  C   C22       1.0  0.65216  0.63938  0.54734  1.0000
  C   C23       1.0  0.36602  0.39213  0.39101  1.0000
  C   C24       1.0  0.63399  0.60787  0.60899  1.0000
  C   C25       1.0  0.87058  0.91564  0.24681  1.0000
  C   C26       1.0  0.12941  0.08436  0.75319  1.0000
  C   C27       1.0  0.98818  0.00607  0.27306  1.0000
  C   C28       1.0  0.01182  0.99394  0.72694  1.0000
  C   C29       1.0  0.12882  0.02361  0.24698  1.0000
  C   C30       1.0  0.87118  0.97638  0.75302  1.0000
  C   C31       1.0  0.15518  0.94740  0.19287  1.0000
  C   C32       1.0  0.84481  0.05260  0.80713  1.0000
  C   C33       1.0  0.04123  0.85428  0.16573  1.0000
  C   C34       1.0  0.95876  0.14572  0.83426  1.0000
  C   C35       1.0  0.90183  0.84155  0.19285  1.0000
  C   C36       1.0  0.09816  0.15846  0.80715  1.0000
  C   C37       1.0  0.45216  0.86786  0.31846  1.0000
  C   C38       1.0  0.54783  0.13214  0.68154  1.0000
  C   C39       1.0  0.33825  0.77497  0.29158  1.0000
  C   C40       1.0  0.66174  0.22503  0.70841  1.0000
  C   C41       1.0  0.19587  0.75574  0.31573  1.0000
  C   C42       1.0  0.80412  0.24426  0.68426  1.0000
  C   C43       1.0  0.16407  0.83196  0.36878  1.0000
  C   C44       1.0  0.83593  0.16804  0.63122  1.0000
  C   C45       1.0  0.27395  0.92770  0.39647  1.0000
  C   C46       1.0  0.72604  0.07229  0.60353  1.0000
  C   C47       1.0  0.41517  0.94297  0.37095  1.0000
  C   C48       1.0  0.58483  0.05703  0.62905  1.0000
  C   C49       1.0  0.63846  0.03298  0.07567  1.0000
  C   C50       1.0  0.36154  0.96703  0.92433  1.0000
  C   C51       1.0  0.74639  0.04766  0.02311  1.0000
  C   C52       1.0  0.25362  0.95235  0.97689  1.0000
  C   C53       1.0  0.89867  0.05625  0.05938  1.0000
  C   C54       1.0  0.10134  0.94375  0.94062  1.0000
  C   C55       1.0  0.87674  0.12761  0.12263  1.0000
  C   C56       1.0  0.12327  0.87240  0.87738  1.0000
  Cl  Cl1       1.0  0.23076  0.34088  0.15405  1.0000
  Cl  Cl2       1.0  0.76923  0.65911  0.84595  1.0000
  Cl  Cl3       1.0  0.26107  0.30115  0.00784  1.0000
  Cl  Cl4       1.0  0.73893  0.69885  0.99217  1.0000
  Cl  Cl5       1.0  0.57670  0.33839  0.95312  1.0000
  Cl  Cl6       1.0  0.42329  0.66160  0.04688  1.0000
  Cl  Cl7       1.0  0.86358  0.41237  0.04539  1.0000
  Cl  Cl8       1.0  0.13641  0.58762  0.95461  1.0000
  Cl  Cl9       1.0  0.83542  0.42891  0.19102  1.0000
  Cl  Cl10      1.0  0.16459  0.57109  0.80898  1.0000
  Cl  Cl11      1.0  0.80301  0.39013  0.37044  1.0000
  Cl  Cl12      1.0  0.19699  0.60987  0.62956  1.0000
  Cl  Cl13      1.0  0.76621  0.31882  0.50551  1.0000
  Cl  Cl14      1.0  0.23379  0.68118  0.49449  1.0000
  Cl  Cl15      1.0  0.45269  0.28425  0.56034  1.0000
  Cl  Cl16      1.0  0.54731  0.71575  0.43966  1.0000
  Cl  Cl17      1.0  0.17641  0.35009  0.48463  1.0000
  Cl  Cl18      1.0  0.82360  0.64991  0.51537  1.0000
  Cl  Cl19      1.0  0.21451  0.42899  0.34936  1.0000
  Cl  Cl20      1.0  0.78549  0.57101  0.65064  1.0000
  Cl  Cl21      1.0  0.95944  0.10297  0.33934  1.0000
  Cl  Cl22      1.0  0.04056  0.89703  0.66066  1.0000
  Cl  Cl23      1.0  0.26532  0.13931  0.27983  1.0000
  Cl  Cl24      1.0  0.73469  0.86068  0.72017  1.0000
  Cl  Cl25      1.0  0.32415  0.96847  0.15882  1.0000
  Cl  Cl26      1.0  0.67584  0.03153  0.84117  1.0000
  Cl  Cl27      1.0  0.07360  0.75921  0.10048  1.0000
  Cl  Cl28      1.0  0.92639  0.24078  0.89952  1.0000
  Cl  Cl29      1.0  0.76227  0.72752  0.15763  1.0000
  Cl  Cl30      1.0  0.23771  0.27249  0.84237  1.0000
  Cl  Cl31      1.0  0.37319  0.67785  0.22626  1.0000
  Cl  Cl32      1.0  0.62680  0.32215  0.77374  1.0000
  Cl  Cl33      1.0  0.06105  0.64084  0.27998  1.0000
  Cl  Cl34      1.0  0.93895  0.35916  0.72002  1.0000
  Cl  Cl35      1.0  0.99354  0.80778  0.40123  1.0000
  Cl  Cl36      1.0  0.00646  0.19221  0.59877  1.0000
  Cl  Cl37      1.0  0.23443  0.02219  0.46037  1.0000
  Cl  Cl38      1.0  0.76556  0.97780  0.53963  1.0000
  Cl  Cl39      1.0  0.54926  0.06025  0.40633  1.0000
  Cl  Cl40      1.0  0.45073  0.93975  0.59367  1.0000
  O   O1        1.0  0.71734  0.10213  0.13242  1.0000
  O   O2        1.0  0.28267  0.89788  0.86758  1.0000
