data_image0
_chemical_formula_structural       Zn2H38C48N12O10
_chemical_formula_sum              "Zn2 H38 C48 N12 O10"
_cell_length_a       9.5948
_cell_length_b       12.0992
_cell_length_c       12.148
_cell_angle_alpha    64.2659
_cell_angle_beta     75.9188
_cell_angle_gamma    77.6085

_space_group_name_H-M_alt    "P 1"
_space_group_IT_number       1

loop_
  _space_group_symop_operation_xyz
  'x, y, z'

loop_
  _atom_site_type_symbol
  _atom_site_label
  _atom_site_symmetry_multiplicity
  _atom_site_fract_x
  _atom_site_fract_y
  _atom_site_fract_z
  _atom_site_occupancy
  Zn  Zn1       1.0  0.44595  0.30710  0.80268  1.0000
  Zn  Zn2       1.0  0.55405  0.69290  0.19732  1.0000
  H   H1        1.0  0.00992  0.30063  0.77420  1.0000
  H   H2        1.0  0.99008  0.69937  0.22580  1.0000
  H   H3        1.0  0.76511  0.01575  0.82941  1.0000
  H   H4        1.0  0.23490  0.98425  0.17059  1.0000
  H   H5        1.0  0.20844  0.92383  0.89228  1.0000
  H   H6        1.0  0.79156  0.07617  0.10772  1.0000
  H   H7        1.0  0.12365  0.74456  0.00463  1.0000
  H   H8        1.0  0.87635  0.25544  0.99537  1.0000
  H   H9        1.0  0.17885  0.75914  0.84808  1.0000
  H   H10       1.0  0.82115  0.24086  0.15192  1.0000
  H   H11       1.0  0.90800  0.67959  0.82258  1.0000
  H   H12       1.0  0.09200  0.32041  0.17742  1.0000
  H   H13       1.0  0.15857  0.52960  0.11719  1.0000
  H   H14       1.0  0.84143  0.47041  0.88281  1.0000
  H   H15       1.0  0.48757  0.08013  0.07755  1.0000
  H   H16       1.0  0.51243  0.91987  0.92245  1.0000
  H   H17       1.0  0.41799  0.46699  0.96421  1.0000
  H   H18       1.0  0.58201  0.53301  0.03579  1.0000
  H   H19       1.0  0.56660  0.16166  0.32434  1.0000
  H   H20       1.0  0.43340  0.83834  0.67566  1.0000
  H   H21       1.0  0.58989  0.03533  0.28001  1.0000
  H   H22       1.0  0.41011  0.96467  0.71999  1.0000
  H   H23       1.0  0.41127  0.89724  0.35300  1.0000
  H   H24       1.0  0.58873  0.10276  0.64700  1.0000
  H   H25       1.0  0.05361  0.92543  0.63681  1.0000
  H   H26       1.0  0.94639  0.07457  0.36319  1.0000
  H   H27       1.0  0.10978  0.13238  0.59534  1.0000
  H   H28       1.0  0.89022  0.86762  0.40466  1.0000
  H   H29       1.0  0.32266  0.21899  0.43762  1.0000
  H   H30       1.0  0.67734  0.78101  0.56238  1.0000
  H   H31       1.0  0.09351  0.75126  0.58221  1.0000
  H   H32       1.0  0.90649  0.24874  0.41779  1.0000
  H   H33       1.0  0.20172  0.76476  0.43543  1.0000
  H   H34       1.0  0.79828  0.23524  0.56457  1.0000
  H   H35       1.0  0.17863  0.52662  0.71876  1.0000
  H   H36       1.0  0.82137  0.47339  0.28124  1.0000
  H   H37       1.0  0.62672  0.54507  0.62554  1.0000
  H   H38       1.0  0.37328  0.45493  0.37446  1.0000
  C   C1        1.0  0.26072  0.15399  0.83125  1.0000
  C   C2        1.0  0.73928  0.84601  0.16875  1.0000
  C   C3        1.0  0.12333  0.11567  0.82944  1.0000
  C   C4        1.0  0.87667  0.88433  0.17056  1.0000
  C   C5        1.0  0.00371  0.20413  0.79749  1.0000
  C   C6        1.0  0.99629  0.79587  0.20251  1.0000
  C   C7        1.0  0.87405  0.16793  0.79869  1.0000
  C   C8        1.0  0.12595  0.83207  0.20131  1.0000
  C   C9        1.0  0.74151  0.26176  0.77803  1.0000
  C   C10       1.0  0.25849  0.73824  0.22197  1.0000
  C   C11       1.0  0.86611  0.04411  0.82771  1.0000
  C   C12       1.0  0.13389  0.95589  0.17229  1.0000
  C   C13       1.0  0.98652  0.95525  0.86029  1.0000
  C   C14       1.0  0.01348  0.04475  0.13971  1.0000
  C   C15       1.0  0.11467  0.99055  0.86305  1.0000
  C   C16       1.0  0.88533  0.00945  0.13695  1.0000
  C   C17       1.0  0.08713  0.74183  0.92672  1.0000
  C   C18       1.0  0.91287  0.25817  0.07328  1.0000
  C   C19       1.0  0.03967  0.61792  0.96463  1.0000
  C   C20       1.0  0.96033  0.38208  0.03537  1.0000
  C   C21       1.0  0.94953  0.60060  0.89982  1.0000
  C   C22       1.0  0.05047  0.39940  0.10018  1.0000
  C   C23       1.0  0.08948  0.51631  0.06547  1.0000
  C   C24       1.0  0.91052  0.48369  0.93452  1.0000
  C   C25       1.0  0.46954  0.17277  0.07550  1.0000
  C   C26       1.0  0.53046  0.82723  0.92450  1.0000
  C   C27       1.0  0.43697  0.36889  0.02123  1.0000
  C   C28       1.0  0.56303  0.63111  0.97877  1.0000
  C   C29       1.0  0.51323  0.11220  0.29236  1.0000
  C   C30       1.0  0.48676  0.88780  0.70764  1.0000
  C   C31       1.0  0.38031  0.06394  0.38477  1.0000
  C   C32       1.0  0.61969  0.93606  0.61523  1.0000
  C   C33       1.0  0.34614  0.94900  0.40629  1.0000
  C   C34       1.0  0.65386  0.05100  0.59371  1.0000
  C   C35       1.0  0.22999  0.89761  0.49824  1.0000
  C   C36       1.0  0.77001  0.10239  0.50176  1.0000
  C   C37       1.0  0.14483  0.96433  0.56561  1.0000
  C   C38       1.0  0.85517  0.03567  0.43439  1.0000
  C   C39       1.0  0.17589  0.08123  0.54174  1.0000
  C   C40       1.0  0.82411  0.91877  0.45826  1.0000
  C   C41       1.0  0.29428  0.13030  0.45273  1.0000
  C   C42       1.0  0.70572  0.86970  0.54727  1.0000
  C   C43       1.0  0.19940  0.77112  0.52332  1.0000
  C   C44       1.0  0.80060  0.22888  0.47668  1.0000
  C   C45       1.0  0.28384  0.55863  0.67588  1.0000
  C   C46       1.0  0.71616  0.44137  0.32412  1.0000
  C   C47       1.0  0.51124  0.57124  0.62507  1.0000
  C   C48       1.0  0.48876  0.42876  0.37493  1.0000
  N   N1        1.0  0.44063  0.27957  0.98008  1.0000
  N   N2        1.0  0.55937  0.72043  0.01992  1.0000
  N   N3        1.0  0.46180  0.32367  0.13649  1.0000
  N   N4        1.0  0.53820  0.67633  0.86351  1.0000
  N   N5        1.0  0.48265  0.19889  0.16907  1.0000
  N   N6        1.0  0.51735  0.80111  0.83093  1.0000
  N   N7        1.0  0.30697  0.67140  0.58777  1.0000
  N   N8        1.0  0.69303  0.32860  0.41223  1.0000
  N   N9        1.0  0.45163  0.68086  0.55354  1.0000
  N   N10       1.0  0.54837  0.31914  0.44646  1.0000
  N   N11       1.0  0.41185  0.49285  0.70170  1.0000
  N   N12       1.0  0.58815  0.50715  0.29830  1.0000
  O   O1        1.0  0.26767  0.27225  0.77891  1.0000
  O   O2        1.0  0.73233  0.72775  0.22109  1.0000
  O   O3        1.0  0.35995  0.07502  0.88104  1.0000
  O   O4        1.0  0.64005  0.92499  0.11896  1.0000
  O   O5        1.0  0.73611  0.36012  0.79031  1.0000
  O   O6        1.0  0.26389  0.63988  0.20969  1.0000
  O   O7        1.0  0.63655  0.23000  0.75114  1.0000
  O   O8        1.0  0.36345  0.77000  0.24886  1.0000
  O   O9        1.0  0.96749  0.83606  0.88931  1.0000
  O   O10       1.0  0.03251  0.16394  0.11069  1.0000
