data_image0
_chemical_formula_structural       Zn2H38C48N12O10
_chemical_formula_sum              "Zn2 H38 C48 N12 O10"
_cell_length_a       9.51946
_cell_length_b       11.9335
_cell_length_c       11.974
_cell_angle_alpha    115.721
_cell_angle_beta     90.2097
_cell_angle_gamma    102.478

_space_group_name_H-M_alt    "P 1"
_space_group_IT_number       1

loop_
  _space_group_symop_operation_xyz
  'x, y, z'

loop_
  _atom_site_type_symbol
  _atom_site_label
  _atom_site_symmetry_multiplicity
  _atom_site_fract_x
  _atom_site_fract_y
  _atom_site_fract_z
  _atom_site_occupancy
  Zn  Zn1       1.0  0.40050  0.65922  0.24125  1.0000
  Zn  Zn2       1.0  0.59951  0.34078  0.75875  1.0000
  H   H1        1.0  0.96284  0.67949  0.21355  1.0000
  H   H2        1.0  0.03716  0.32051  0.78645  1.0000
  H   H3        1.0  0.19418  0.07485  0.40146  1.0000
  H   H4        1.0  0.80582  0.92515  0.59854  1.0000
  H   H5        1.0  0.72752  0.97458  0.32403  1.0000
  H   H6        1.0  0.27248  0.02542  0.67597  1.0000
  H   H7        1.0  0.15933  0.24518  0.39271  1.0000
  H   H8        1.0  0.84067  0.75482  0.60729  1.0000
  H   H9        1.0  0.12668  0.26976  0.54807  1.0000
  H   H10       1.0  0.87333  0.73025  0.45194  1.0000
  H   H11       1.0  0.88778  0.37758  0.61395  1.0000
  H   H12       1.0  0.11222  0.62242  0.38605  1.0000
  H   H13       1.0  0.18428  0.42533  0.35769  1.0000
  H   H14       1.0  0.81572  0.57467  0.64231  1.0000
  H   H15       1.0  0.54063  0.41595  0.13511  1.0000
  H   H16       1.0  0.45937  0.58404  0.86488  1.0000
  H   H17       1.0  0.10716  0.19500  0.01714  1.0000
  H   H18       1.0  0.89284  0.80500  0.98287  1.0000
  H   H19       1.0  0.38561  0.11655  0.90547  1.0000
  H   H20       1.0  0.61439  0.88345  0.09452  1.0000
  H   H21       1.0  0.30979  0.07049  0.01932  1.0000
  H   H22       1.0  0.69020  0.92951  0.98069  1.0000
  H   H23       1.0  0.62737  0.20323  0.91055  1.0000
  H   H24       1.0  0.37263  0.79677  0.08945  1.0000
  H   H25       1.0  0.88359  0.25371  0.99211  1.0000
  H   H26       1.0  0.11641  0.74629  0.00789  1.0000
  H   H27       1.0  0.94299  0.24194  0.19175  1.0000
  H   H28       1.0  0.05701  0.75806  0.80825  1.0000
  H   H29       1.0  0.74824  0.18085  0.30194  1.0000
  H   H30       1.0  0.25176  0.81915  0.69805  1.0000
  H   H31       1.0  0.35038  0.12240  0.21194  1.0000
  H   H32       1.0  0.64962  0.87760  0.78806  1.0000
  H   H33       1.0  0.45152  0.02849  0.24062  1.0000
  H   H34       1.0  0.54849  0.97150  0.75938  1.0000
  H   H35       1.0  0.52141  0.09908  0.46940  1.0000
  H   H36       1.0  0.47860  0.90092  0.53060  1.0000
  H   H37       1.0  0.48128  0.39552  0.37422  1.0000
  H   H38       1.0  0.51873  0.60448  0.62578  1.0000
  C   C1        1.0  0.69006  0.71617  0.22395  1.0000
  C   C2        1.0  0.30994  0.28383  0.77605  1.0000
  C   C3        1.0  0.83050  0.81681  0.26268  1.0000
  C   C4        1.0  0.16950  0.18319  0.73732  1.0000
  C   C5        1.0  0.96210  0.78054  0.25505  1.0000
  C   C6        1.0  0.03790  0.21947  0.74495  1.0000
  C   C7        1.0  0.09165  0.87455  0.30363  1.0000
  C   C8        1.0  0.90835  0.12545  0.69637  1.0000
  C   C9        1.0  0.23295  0.83714  0.30038  1.0000
  C   C10       1.0  0.76705  0.16286  0.69962  1.0000
  C   C11       1.0  0.09151  0.00504  0.35947  1.0000
  C   C12       1.0  0.90849  0.99496  0.64053  1.0000
  C   C13       1.0  0.96051  0.04086  0.36363  1.0000
  C   C14       1.0  0.03949  0.95914  0.63637  1.0000
  C   C15       1.0  0.82994  0.94651  0.31551  1.0000
  C   C16       1.0  0.17005  0.05349  0.68449  1.0000
  C   C17       1.0  0.08002  0.26570  0.46148  1.0000
  C   C18       1.0  0.91998  0.73430  0.53852  1.0000
  C   C19       1.0  0.04033  0.38781  0.48315  1.0000
  C   C20       1.0  0.95966  0.61219  0.51685  1.0000
  C   C21       1.0  0.93666  0.43074  0.56354  1.0000
  C   C22       1.0  0.06333  0.56926  0.43645  1.0000
  C   C23       1.0  0.10315  0.45795  0.42027  1.0000
  C   C24       1.0  0.89685  0.54205  0.57973  1.0000
  C   C25       1.0  0.42332  0.38608  0.11696  1.0000
  C   C26       1.0  0.57668  0.61392  0.88303  1.0000
  C   C27       1.0  0.20002  0.27623  0.05852  1.0000
  C   C28       1.0  0.79997  0.72377  0.94149  1.0000
  C   C29       1.0  0.38894  0.14425  0.00593  1.0000
  C   C30       1.0  0.61106  0.85575  0.99407  1.0000
  C   C31       1.0  0.54106  0.16358  0.05894  1.0000
  C   C32       1.0  0.45893  0.83642  0.94106  1.0000
  C   C33       1.0  0.65409  0.19596  0.99540  1.0000
  C   C34       1.0  0.34591  0.80404  0.00460  1.0000
  C   C35       1.0  0.79858  0.22379  0.04123  1.0000
  C   C36       1.0  0.20141  0.77621  0.95877  1.0000
  C   C37       1.0  0.83114  0.21743  0.15184  1.0000
  C   C38       1.0  0.16886  0.78257  0.84816  1.0000
  C   C39       1.0  0.71981  0.18365  0.21502  1.0000
  C   C40       1.0  0.28019  0.81636  0.78498  1.0000
  C   C41       1.0  0.57419  0.15722  0.17052  1.0000
  C   C42       1.0  0.42581  0.84278  0.82948  1.0000
  C   C43       1.0  0.45854  0.12358  0.24517  1.0000
  C   C44       1.0  0.54147  0.87642  0.75483  1.0000
  C   C45       1.0  0.52177  0.19242  0.47545  1.0000
  C   C46       1.0  0.47823  0.80758  0.52455  1.0000
  C   C47       1.0  0.49906  0.34411  0.42682  1.0000
  C   C48       1.0  0.50094  0.65588  0.57318  1.0000
  N   N1        1.0  0.33757  0.46638  0.14561  1.0000
  N   N2        1.0  0.66243  0.53362  0.85439  1.0000
  N   N3        1.0  0.19547  0.39764  0.10902  1.0000
  N   N4        1.0  0.80453  0.60237  0.89098  1.0000
  N   N5        1.0  0.33987  0.26429  0.06273  1.0000
  N   N6        1.0  0.66013  0.73571  0.93727  1.0000
  N   N7        1.0  0.48900  0.21507  0.37760  1.0000
  N   N8        1.0  0.51100  0.78493  0.62240  1.0000
  N   N9        1.0  0.53436  0.39861  0.54826  1.0000
  N   N10       1.0  0.46564  0.60139  0.45174  1.0000
  N   N11       1.0  0.54893  0.30237  0.57821  1.0000
  N   N12       1.0  0.45108  0.69762  0.42178  1.0000
  O   O1        1.0  0.68730  0.60945  0.21989  1.0000
  O   O2        1.0  0.31270  0.39055  0.78011  1.0000
  O   O3        1.0  0.57630  0.75194  0.20260  1.0000
  O   O4        1.0  0.42370  0.24806  0.79739  1.0000
  O   O5        1.0  0.22568  0.71650  0.23119  1.0000
  O   O6        1.0  0.77433  0.28350  0.76881  1.0000
  O   O7        1.0  0.34642  0.91949  0.36088  1.0000
  O   O8        1.0  0.65358  0.08051  0.63914  1.0000
  O   O9        1.0  0.94836  0.16481  0.41314  1.0000
  O   O10       1.0  0.05164  0.83519  0.58686  1.0000
