data_image0
_chemical_formula_structural       Zn2H38C48N12O10
_chemical_formula_sum              "Zn2 H38 C48 N12 O10"
_cell_length_a       9.50303
_cell_length_b       12.2188
_cell_length_c       12.1908
_cell_angle_alpha    110.185
_cell_angle_beta     99.6298
_cell_angle_gamma    102.818

_space_group_name_H-M_alt    "P 1"
_space_group_IT_number       1

loop_
  _space_group_symop_operation_xyz
  'x, y, z'

loop_
  _atom_site_type_symbol
  _atom_site_label
  _atom_site_symmetry_multiplicity
  _atom_site_fract_x
  _atom_site_fract_y
  _atom_site_fract_z
  _atom_site_occupancy
  Zn  Zn1       1.0  0.34108  0.19440  0.80248  1.0000
  Zn  Zn2       1.0  0.65892  0.80559  0.19752  1.0000
  H   H1        1.0  0.68627  0.50471  0.84214  1.0000
  H   H2        1.0  0.31374  0.49529  0.15786  1.0000
  H   H3        1.0  0.16575  0.58350  0.90210  1.0000
  H   H4        1.0  0.83425  0.41650  0.09789  1.0000
  H   H5        1.0  0.88489  0.21189  0.76798  1.0000
  H   H6        1.0  0.11511  0.78811  0.23203  1.0000
  H   H7        1.0  0.11931  0.75090  0.86119  1.0000
  H   H8        1.0  0.88068  0.24910  0.13881  1.0000
  H   H9        1.0  0.14627  0.76908  0.01637  1.0000
  H   H10       1.0  0.85373  0.23092  0.98363  1.0000
  H   H11       1.0  0.94480  0.85888  0.78459  1.0000
  H   H12       1.0  0.05521  0.14112  0.21541  1.0000
  H   H13       1.0  0.11999  0.94509  0.16273  1.0000
  H   H14       1.0  0.88001  0.05492  0.83727  1.0000
  H   H15       1.0  0.45540  0.15714  0.20888  1.0000
  H   H16       1.0  0.54461  0.84286  0.79112  1.0000
  H   H17       1.0  0.51689  0.42249  0.05669  1.0000
  H   H18       1.0  0.48310  0.57751  0.94331  1.0000
  H   H19       1.0  0.64899  0.49992  0.26190  1.0000
  H   H20       1.0  0.35101  0.50008  0.73810  1.0000
  H   H21       1.0  0.71290  0.39401  0.30857  1.0000
  H   H22       1.0  0.28710  0.60599  0.69142  1.0000
  H   H23       1.0  0.53444  0.62775  0.37972  1.0000
  H   H24       1.0  0.46557  0.37226  0.62029  1.0000
  H   H25       1.0  0.54849  0.29891  0.43462  1.0000
  H   H26       1.0  0.45152  0.70109  0.56539  1.0000
  H   H27       1.0  0.24859  0.73217  0.61800  1.0000
  H   H28       1.0  0.75141  0.26783  0.38199  1.0000
  H   H29       1.0  0.02872  0.99593  0.61538  1.0000
  H   H30       1.0  0.97127  0.00407  0.38462  1.0000
  H   H31       1.0  0.95035  0.73491  0.41214  1.0000
  H   H32       1.0  0.04964  0.26509  0.58786  1.0000
  H   H33       1.0  0.86224  0.74606  0.53193  1.0000
  H   H34       1.0  0.13776  0.25393  0.46808  1.0000
  H   H35       1.0  0.11414  0.59331  0.37160  1.0000
  H   H36       1.0  0.88587  0.40670  0.62841  1.0000
  H   H37       1.0  0.84718  0.59940  0.62621  1.0000
  H   H38       1.0  0.15282  0.40060  0.37380  1.0000
  C   C1        1.0  0.62322  0.25887  0.78559  1.0000
  C   C2        1.0  0.37678  0.74113  0.21441  1.0000
  C   C3        1.0  0.76938  0.34864  0.80154  1.0000
  C   C4        1.0  0.23062  0.65136  0.19846  1.0000
  C   C5        1.0  0.78385  0.47269  0.83607  1.0000
  C   C6        1.0  0.21614  0.52730  0.16392  1.0000
  C   C7        1.0  0.92587  0.55839  0.87062  1.0000
  C   C8        1.0  0.07413  0.44161  0.12938  1.0000
  C   C9        1.0  0.05344  0.51935  0.87009  1.0000
  C   C10       1.0  0.94656  0.48065  0.12991  1.0000
  C   C11       1.0  0.03713  0.39358  0.82947  1.0000
  C   C12       1.0  0.96287  0.60642  0.17053  1.0000
  C   C13       1.0  0.17339  0.35129  0.82868  1.0000
  C   C14       1.0  0.82661  0.64871  0.17132  1.0000
  C   C15       1.0  0.89621  0.30869  0.79513  1.0000
  C   C16       1.0  0.10378  0.69131  0.20486  1.0000
  C   C17       1.0  0.06929  0.77013  0.93872  1.0000
  C   C18       1.0  0.93070  0.22987  0.06128  1.0000
  C   C19       1.0  0.03650  0.88998  0.97048  1.0000
  C   C20       1.0  0.96350  0.11002  0.02952  1.0000
  C   C21       1.0  0.96962  0.92154  0.87930  1.0000
  C   C22       1.0  0.03038  0.07847  0.12071  1.0000
  C   C23       1.0  0.06672  0.96944  0.09178  1.0000
  C   C24       1.0  0.93328  0.03056  0.90823  1.0000
  C   C25       1.0  0.44692  0.20056  0.14498  1.0000
  C   C26       1.0  0.55309  0.79944  0.85502  1.0000
  C   C27       1.0  0.47761  0.33675  0.06654  1.0000
  C   C28       1.0  0.52239  0.66325  0.93345  1.0000
  C   C29       1.0  0.61286  0.42142  0.28584  1.0000
  C   C30       1.0  0.38714  0.57858  0.71416  1.0000
  C   C31       1.0  0.54884  0.45847  0.39389  1.0000
  C   C32       1.0  0.45117  0.54154  0.60611  1.0000
  C   C33       1.0  0.52122  0.57199  0.43307  1.0000
  C   C34       1.0  0.47879  0.42801  0.56693  1.0000
  C   C35       1.0  0.52681  0.38724  0.46196  1.0000
  C   C36       1.0  0.47320  0.61276  0.53804  1.0000
  C   C37       1.0  0.22830  0.81963  0.63675  1.0000
  C   C38       1.0  0.77170  0.18037  0.36324  1.0000
  C   C39       1.0  0.11351  0.95299  0.63252  1.0000
  C   C40       1.0  0.88648  0.04701  0.36748  1.0000
  C   C41       1.0  0.96113  0.73015  0.50154  1.0000
  C   C42       1.0  0.03886  0.26984  0.49846  1.0000
  C   C43       1.0  0.97734  0.60919  0.49815  1.0000
  C   C44       1.0  0.02266  0.39081  0.50185  1.0000
  C   C45       1.0  0.06331  0.55225  0.42751  1.0000
  C   C46       1.0  0.93670  0.44775  0.57250  1.0000
  C   C47       1.0  0.91432  0.55617  0.57068  1.0000
  C   C48       1.0  0.08568  0.44384  0.42934  1.0000
  N   N1        1.0  0.39733  0.22936  0.98021  1.0000
  N   N2        1.0  0.60267  0.77064  0.01979  1.0000
  N   N3        1.0  0.37699  0.14247  0.02883  1.0000
  N   N4        1.0  0.62302  0.85753  0.97116  1.0000
  N   N5        1.0  0.51167  0.32297  0.17288  1.0000
  N   N6        1.0  0.48833  0.67703  0.82712  1.0000
  N   N7        1.0  0.25158  0.01133  0.70364  1.0000
  N   N8        1.0  0.74842  0.98867  0.29635  1.0000
  N   N9        1.0  0.32511  0.92721  0.70680  1.0000
  N   N10       1.0  0.67490  0.07279  0.29319  1.0000
  N   N11       1.0  0.09425  0.83075  0.58778  1.0000
  N   N12       1.0  0.90575  0.16925  0.41222  1.0000
  O   O1        1.0  0.50248  0.28888  0.75808  1.0000
  O   O2        1.0  0.49752  0.71111  0.24191  1.0000
  O   O3        1.0  0.62422  0.16555  0.80574  1.0000
  O   O4        1.0  0.37578  0.83445  0.19427  1.0000
  O   O5        1.0  0.15126  0.23665  0.76129  1.0000
  O   O6        1.0  0.84873  0.76335  0.23871  1.0000
  O   O7        1.0  0.29966  0.42497  0.89053  1.0000
  O   O8        1.0  0.70034  0.57503  0.10947  1.0000
  O   O9        1.0  0.92654  0.67718  0.90409  1.0000
  O   O10       1.0  0.07346  0.32282  0.09591  1.0000
