data_image0
_chemical_formula_structural       Cu4H16C24N20O4
_chemical_formula_sum              "Cu4 H16 C24 N20 O4"
_cell_length_a       9.52189
_cell_length_b       9.52241
_cell_length_c       10.2104
_cell_angle_alpha    98.0887
_cell_angle_beta     108.665
_cell_angle_gamma    120.401

_space_group_name_H-M_alt    "P 1"
_space_group_IT_number       1

loop_
  _space_group_symop_operation_xyz
  'x, y, z'

loop_
  _atom_site_type_symbol
  _atom_site_label
  _atom_site_symmetry_multiplicity
  _atom_site_fract_x
  _atom_site_fract_y
  _atom_site_fract_z
  _atom_site_occupancy
  Cu  Cu1       1.0  0.64334  0.60713  0.19421  1.0000
  Cu  Cu2       1.0  0.91288  0.44907  0.30577  1.0000
  Cu  Cu3       1.0  0.35666  0.39287  0.80579  1.0000
  Cu  Cu4       1.0  0.08712  0.55093  0.69422  1.0000
  H   H1        1.0  0.72121  0.90688  0.97741  1.0000
  H   H2        1.0  0.42961  0.74388  0.52265  1.0000
  H   H3        1.0  0.27879  0.09312  0.02259  1.0000
  H   H4        1.0  0.57039  0.25612  0.47735  1.0000
  H   H5        1.0  0.68959  0.81727  0.71730  1.0000
  H   H6        1.0  0.60012  0.97245  0.78273  1.0000
  H   H7        1.0  0.31042  0.18273  0.28270  1.0000
  H   H8        1.0  0.39988  0.02754  0.21727  1.0000
  H   H9        1.0  0.98887  0.60526  0.87137  1.0000
  H   H10       1.0  0.23346  0.11706  0.62863  1.0000
  H   H11       1.0  0.01113  0.39474  0.12863  1.0000
  H   H12       1.0  0.76654  0.88294  0.37136  1.0000
  H   H13       1.0  0.01687  0.70925  0.12516  1.0000
  H   H14       1.0  0.08374  0.89126  0.37482  1.0000
  H   H15       1.0  0.98313  0.29075  0.87484  1.0000
  H   H16       1.0  0.91626  0.10874  0.62518  1.0000
  C   C1        1.0  0.77530  0.83902  0.94439  1.0000
  C   C2        1.0  0.39466  0.83089  0.55566  1.0000
  C   C3        1.0  0.22470  0.16098  0.05561  1.0000
  C   C4        1.0  0.60534  0.16911  0.44434  1.0000
  C   C5        1.0  0.76018  0.78899  0.80423  1.0000
  C   C6        1.0  0.48478  0.95597  0.69582  1.0000
  C   C7        1.0  0.23982  0.21102  0.19577  1.0000
  C   C8        1.0  0.51522  0.04403  0.30418  1.0000
  C   C9        1.0  0.83830  0.70514  0.77302  1.0000
  C   C10       1.0  0.43189  0.06507  0.72699  1.0000
  C   C11       1.0  0.16170  0.29486  0.22698  1.0000
  C   C12       1.0  0.56811  0.93492  0.27301  1.0000
  C   C13       1.0  0.92894  0.67300  0.88940  1.0000
  C   C14       1.0  0.28323  0.03916  0.61063  1.0000
  C   C15       1.0  0.07106  0.32700  0.11060  1.0000
  C   C16       1.0  0.71676  0.96083  0.38937  1.0000
  C   C17       1.0  0.94461  0.72670  0.02912  1.0000
  C   C18       1.0  0.19726  0.91511  0.47089  1.0000
  C   C19       1.0  0.05539  0.27330  0.97088  1.0000
  C   C20       1.0  0.80274  0.08489  0.52911  1.0000
  C   C21       1.0  0.82619  0.65823  0.62619  1.0000
  C   C22       1.0  0.53185  0.19991  0.87379  1.0000
  C   C23       1.0  0.17381  0.34178  0.37381  1.0000
  C   C24       1.0  0.46815  0.80009  0.12621  1.0000
  N   N1        1.0  0.86806  0.80886  0.05641  1.0000
  N   N2        1.0  0.25235  0.81145  0.44363  1.0000
  N   N3        1.0  0.13194  0.19114  0.94359  1.0000
  N   N4        1.0  0.74765  0.18855  0.55637  1.0000
  N   N5        1.0  0.92234  0.60722  0.58840  1.0000
  N   N6        1.0  0.51872  0.33389  0.91157  1.0000
  N   N7        1.0  0.07767  0.39279  0.41160  1.0000
  N   N8        1.0  0.48128  0.66611  0.08843  1.0000
  N   N9        1.0  0.86726  0.57765  0.44241  1.0000
  N   N10       1.0  0.63525  0.42488  0.05755  1.0000
  N   N11       1.0  0.13274  0.42235  0.55759  1.0000
  N   N12       1.0  0.36475  0.57512  0.94244  1.0000
  N   N13       1.0  0.74435  0.61272  0.39542  1.0000
  N   N14       1.0  0.71726  0.34892  0.10453  1.0000
  N   N15       1.0  0.25565  0.38728  0.60457  1.0000
  N   N16       1.0  0.28274  0.65108  0.89547  1.0000
  N   N17       1.0  0.71623  0.66268  0.50745  1.0000
  N   N18       1.0  0.65508  0.20871  0.99251  1.0000
  N   N19       1.0  0.28377  0.33732  0.49254  1.0000
  N   N20       1.0  0.34491  0.79129  0.00749  1.0000
  O   O1        1.0  0.87973  0.85512  0.18882  1.0000
  O   O2        1.0  0.16626  0.69071  0.31122  1.0000
  O   O3        1.0  0.12027  0.14487  0.81118  1.0000
  O   O4        1.0  0.83374  0.30929  0.68879  1.0000
