data_image0
_chemical_formula_structural       Cd2H32C40N12O8
_chemical_formula_sum              "Cd2 H32 C40 N12 O8"
_cell_length_a       4.93915
_cell_length_b       9.20939
_cell_length_c       20.1762
_cell_angle_alpha    90.0019
_cell_angle_beta     91.3047
_cell_angle_gamma    90.0013

_space_group_name_H-M_alt    "P 1"
_space_group_IT_number       1

loop_
  _space_group_symop_operation_xyz
  'x, y, z'

loop_
  _atom_site_type_symbol
  _atom_site_label
  _atom_site_symmetry_multiplicity
  _atom_site_fract_x
  _atom_site_fract_y
  _atom_site_fract_z
  _atom_site_occupancy
  Cd  Cd1       1.0  0.50000  0.50001  0.50000  1.0000
  Cd  Cd2       1.0  0.50000  0.99999  0.00000  1.0000
  H   H1        1.0  0.00700  0.28808  0.99223  1.0000
  H   H2        1.0  0.99300  0.78810  0.50776  1.0000
  H   H3        1.0  0.99299  0.71190  0.00777  1.0000
  H   H4        1.0  0.00700  0.21193  0.49224  1.0000
  H   H5        1.0  0.73061  0.25909  0.10460  1.0000
  H   H6        1.0  0.26937  0.75911  0.39540  1.0000
  H   H7        1.0  0.26938  0.74088  0.89540  1.0000
  H   H8        1.0  0.73062  0.24091  0.60461  1.0000
  H   H9        1.0  0.40047  0.64117  0.12217  1.0000
  H   H10       1.0  0.59954  0.14119  0.37784  1.0000
  H   H11       1.0  0.59955  0.35881  0.87782  1.0000
  H   H12       1.0  0.40045  0.85882  0.62216  1.0000
  H   H13       1.0  0.72732  0.59881  0.09344  1.0000
  H   H14       1.0  0.27268  0.09882  0.40657  1.0000
  H   H15       1.0  0.27270  0.40116  0.90656  1.0000
  H   H16       1.0  0.72730  0.90120  0.59343  1.0000
  H   H17       1.0  0.35946  0.36686  0.21712  1.0000
  H   H18       1.0  0.64054  0.86688  0.28288  1.0000
  H   H19       1.0  0.64054  0.63313  0.78288  1.0000
  H   H20       1.0  0.35947  0.13313  0.71713  1.0000
  H   H21       1.0  0.98725  0.68289  0.18501  1.0000
  H   H22       1.0  0.01276  0.18290  0.31500  1.0000
  H   H23       1.0  0.01275  0.31710  0.81499  1.0000
  H   H24       1.0  0.98722  0.81711  0.68499  1.0000
  H   H25       1.0  0.16523  0.64190  0.29936  1.0000
  H   H26       1.0  0.83479  0.14191  0.20064  1.0000
  H   H27       1.0  0.83477  0.35810  0.70063  1.0000
  H   H28       1.0  0.16522  0.85809  0.79935  1.0000
  H   H29       1.0  0.52525  0.33822  0.33320  1.0000
  H   H30       1.0  0.47474  0.83823  0.16680  1.0000
  H   H31       1.0  0.47475  0.66179  0.66680  1.0000
  H   H32       1.0  0.52529  0.16176  0.83321  1.0000
  C   C1        1.0  0.17559  0.31760  0.02510  1.0000
  C   C2        1.0  0.82440  0.81763  0.47490  1.0000
  C   C3        1.0  0.82440  0.68237  0.97490  1.0000
  C   C4        1.0  0.17559  0.18240  0.52511  1.0000
  C   C5        1.0  0.54545  0.29953  0.08159  1.0000
  C   C6        1.0  0.45453  0.79954  0.41841  1.0000
  C   C7        1.0  0.45454  0.70045  0.91841  1.0000
  C   C8        1.0  0.54546  0.20048  0.58159  1.0000
  C   C9        1.0  0.56045  0.55810  0.12333  1.0000
  C   C10       1.0  0.43955  0.05811  0.37667  1.0000
  C   C11       1.0  0.43956  0.44188  0.87666  1.0000
  C   C12       1.0  0.56042  0.94191  0.62333  1.0000
  C   C13       1.0  0.66250  0.52748  0.19288  1.0000
  C   C14       1.0  0.33751  0.02749  0.30713  1.0000
  C   C15       1.0  0.33751  0.47251  0.80712  1.0000
  C   C16       1.0  0.66249  0.97252  0.69288  1.0000
  C   C17       1.0  0.53505  0.42871  0.23471  1.0000
  C   C18       1.0  0.46494  0.92872  0.26529  1.0000
  C   C19       1.0  0.46495  0.57129  0.76529  1.0000
  C   C20       1.0  0.53506  0.07129  0.73472  1.0000
  C   C21       1.0  0.88696  0.60557  0.21728  1.0000
  C   C22       1.0  0.11305  0.10558  0.28272  1.0000
  C   C23       1.0  0.11304  0.39442  0.78271  1.0000
  C   C24       1.0  0.88695  0.89443  0.71727  1.0000
  C   C25       1.0  0.98496  0.58433  0.28185  1.0000
  C   C26       1.0  0.01505  0.08434  0.21815  1.0000
  C   C27       1.0  0.01504  0.41567  0.71815  1.0000
  C   C28       1.0  0.98496  0.91566  0.78184  1.0000
  C   C29       1.0  0.62980  0.41026  0.29969  1.0000
  C   C30       1.0  0.37020  0.91027  0.20031  1.0000
  C   C31       1.0  0.37021  0.58974  0.70031  1.0000
  C   C32       1.0  0.62981  0.08972  0.79969  1.0000
  C   C33       1.0  0.85760  0.48568  0.32387  1.0000
  C   C34       1.0  0.14240  0.98569  0.17613  1.0000
  C   C35       1.0  0.14241  0.51433  0.67612  1.0000
  C   C36       1.0  0.85761  0.01431  0.82387  1.0000
  C   C37       1.0  0.96517  0.45640  0.39329  1.0000
  C   C38       1.0  0.03483  0.95641  0.10671  1.0000
  C   C39       1.0  0.03484  0.54361  0.60671  1.0000
  C   C40       1.0  0.96518  0.04358  0.89329  1.0000
  N   N1        1.0  0.38119  0.22369  0.04104  1.0000
  N   N2        1.0  0.61880  0.72371  0.45896  1.0000
  N   N3        1.0  0.61880  0.77629  0.95897  1.0000
  N   N4        1.0  0.38120  0.27632  0.54104  1.0000
  N   N5        1.0  0.44167  0.43292  0.08950  1.0000
  N   N6        1.0  0.55832  0.93294  0.41050  1.0000
  N   N7        1.0  0.55833  0.56706  0.91049  1.0000
  N   N8        1.0  0.44166  0.06708  0.58950  1.0000
  N   N9        1.0  0.20497  0.44674  0.05385  1.0000
  N   N10       1.0  0.79504  0.94676  0.44615  1.0000
  N   N11       1.0  0.79503  0.55324  0.94615  1.0000
  N   N12       1.0  0.20495  0.05326  0.55385  1.0000
  O   O1        1.0  0.19648  0.50928  0.40823  1.0000
  O   O2        1.0  0.80354  0.00929  0.09177  1.0000
  O   O3        1.0  0.80353  0.49073  0.59177  1.0000
  O   O4        1.0  0.19647  0.99070  0.90823  1.0000
  O   O5        1.0  0.82038  0.37903  0.43124  1.0000
  O   O6        1.0  0.17961  0.87903  0.06876  1.0000
  O   O7        1.0  0.17962  0.62099  0.56876  1.0000
  O   O8        1.0  0.82040  0.12095  0.93125  1.0000
