data_image0
_chemical_formula_structural       Bi4H40C12S12O44
_chemical_formula_sum              "Bi4 H40 C12 S12 O44"
_cell_length_a       10.4813
_cell_length_b       10.498
_cell_length_c       11.475
_cell_angle_alpha    115.446
_cell_angle_beta     90
_cell_angle_gamma    90

_space_group_name_H-M_alt    "P 1"
_space_group_IT_number       1

loop_
  _space_group_symop_operation_xyz
  'x, y, z'

loop_
  _atom_site_type_symbol
  _atom_site_label
  _atom_site_symmetry_multiplicity
  _atom_site_fract_x
  _atom_site_fract_y
  _atom_site_fract_z
  _atom_site_occupancy
  Bi  Bi1       1.0  0.65343  0.24376  0.27570  1.0000
  Bi  Bi2       1.0  0.15343  0.25624  0.72431  1.0000
  Bi  Bi3       1.0  0.34657  0.75625  0.72431  1.0000
  Bi  Bi4       1.0  0.84657  0.74376  0.27569  1.0000
  H   H1        1.0  0.46571  0.36630  0.01838  1.0000
  H   H2        1.0  0.96571  0.13370  0.98162  1.0000
  H   H3        1.0  0.53429  0.63370  0.98162  1.0000
  H   H4        1.0  0.03429  0.86630  0.01838  1.0000
  H   H5        1.0  0.48321  0.54140  0.14646  1.0000
  H   H6        1.0  0.98321  0.95860  0.85355  1.0000
  H   H7        1.0  0.51679  0.45860  0.85355  1.0000
  H   H8        1.0  0.01679  0.04140  0.14646  1.0000
  H   H9        1.0  0.11447  0.45058  0.43984  1.0000
  H   H10       1.0  0.61447  0.04942  0.56016  1.0000
  H   H11       1.0  0.88553  0.54942  0.56016  1.0000
  H   H12       1.0  0.38553  0.95058  0.43983  1.0000
  H   H13       1.0  0.15265  0.29972  0.29234  1.0000
  H   H14       1.0  0.65264  0.20028  0.70766  1.0000
  H   H15       1.0  0.84735  0.70028  0.70766  1.0000
  H   H16       1.0  0.34735  0.79972  0.29234  1.0000
  H   H17       1.0  0.19525  0.61170  0.34352  1.0000
  H   H18       1.0  0.69525  0.88830  0.65647  1.0000
  H   H19       1.0  0.80475  0.38829  0.65647  1.0000
  H   H20       1.0  0.30475  0.11170  0.34352  1.0000
  H   H21       1.0  0.24377  0.45975  0.20073  1.0000
  H   H22       1.0  0.74377  0.04025  0.79927  1.0000
  H   H23       1.0  0.75623  0.54025  0.79927  1.0000
  H   H24       1.0  0.25623  0.95975  0.20073  1.0000
  H   H25       1.0  0.88548  0.18438  0.40186  1.0000
  H   H26       1.0  0.38548  0.31561  0.59814  1.0000
  H   H27       1.0  0.11452  0.81562  0.59814  1.0000
  H   H28       1.0  0.61452  0.68438  0.40186  1.0000
  H   H29       1.0  0.78068  0.10083  0.43436  1.0000
  H   H30       1.0  0.28068  0.39917  0.56564  1.0000
  H   H31       1.0  0.21932  0.89917  0.56563  1.0000
  H   H32       1.0  0.71932  0.60083  0.43437  1.0000
  H   H33       1.0  0.51503  0.11644  0.01035  1.0000
  H   H34       1.0  0.01503  0.38356  0.98965  1.0000
  H   H35       1.0  0.48497  0.88356  0.98965  1.0000
  H   H36       1.0  0.98497  0.61644  0.01035  1.0000
  H   H37       1.0  0.40963  0.17409  0.11719  1.0000
  H   H38       1.0  0.90963  0.32591  0.88282  1.0000
  H   H39       1.0  0.59037  0.82591  0.88281  1.0000
  H   H40       1.0  0.09037  0.67409  0.11718  1.0000
  C   C1        1.0  0.51183  0.46933  0.04793  1.0000
  C   C2        1.0  0.01183  0.03067  0.95207  1.0000
  C   C3        1.0  0.48817  0.53067  0.95207  1.0000
  C   C4        1.0  0.98817  0.96934  0.04793  1.0000
  C   C5        1.0  0.12827  0.41216  0.33546  1.0000
  C   C6        1.0  0.62827  0.08784  0.66454  1.0000
  C   C7        1.0  0.87173  0.58784  0.66454  1.0000
  C   C8        1.0  0.37173  0.91216  0.33546  1.0000
  C   C9        1.0  0.22503  0.50079  0.30468  1.0000
  C   C10       1.0  0.72503  0.99921  0.69532  1.0000
  C   C11       1.0  0.77497  0.49921  0.69532  1.0000
  C   C12       1.0  0.27497  0.00079  0.30468  1.0000
  S   S1        1.0  0.67780  0.43948  0.06016  1.0000
  S   S2        1.0  0.17780  0.06052  0.93985  1.0000
  S   S3        1.0  0.32220  0.56052  0.93985  1.0000
  S   S4        1.0  0.82220  0.93948  0.06016  1.0000
  S   S5        1.0  0.97608  0.42401  0.27150  1.0000
  S   S6        1.0  0.47608  0.07599  0.72850  1.0000
  S   S7        1.0  0.02392  0.57599  0.72851  1.0000
  S   S8        1.0  0.52392  0.92401  0.27150  1.0000
  S   S9        1.0  0.37446  0.50372  0.38073  1.0000
  S   S10       1.0  0.87446  0.99628  0.61927  1.0000
  S   S11       1.0  0.62554  0.49628  0.61927  1.0000
  S   S12       1.0  0.12554  0.00372  0.38073  1.0000
  O   O1        1.0  0.72552  0.33656  0.93639  1.0000
  O   O2        1.0  0.22552  0.16344  0.06361  1.0000
  O   O3        1.0  0.27447  0.66344  0.06361  1.0000
  O   O4        1.0  0.77448  0.83656  0.93639  1.0000
  O   O5        1.0  0.68815  0.39840  0.16753  1.0000
  O   O6        1.0  0.18815  0.10160  0.83247  1.0000
  O   O7        1.0  0.31185  0.60160  0.83247  1.0000
  O   O8        1.0  0.81185  0.89840  0.16752  1.0000
  O   O9        1.0  0.34265  0.53709  0.51762  1.0000
  O   O10       1.0  0.84265  0.96291  0.48238  1.0000
  O   O11       1.0  0.65735  0.46291  0.48238  1.0000
  O   O12       1.0  0.15735  0.03709  0.51762  1.0000
  O   O13       1.0  0.88728  0.35029  0.32062  1.0000
  O   O14       1.0  0.38728  0.14971  0.67937  1.0000
  O   O15       1.0  0.11272  0.64971  0.67938  1.0000
  O   O16       1.0  0.61272  0.85029  0.32062  1.0000
  O   O17       1.0  0.95032  0.57991  0.33193  1.0000
  O   O18       1.0  0.45032  0.92009  0.66807  1.0000
  O   O19       1.0  0.04968  0.42009  0.66807  1.0000
  O   O20       1.0  0.54968  0.07991  0.33193  1.0000
  O   O21       1.0  0.98574  0.36328  0.13167  1.0000
  O   O22       1.0  0.48574  0.13672  0.86833  1.0000
  O   O23       1.0  0.01426  0.63672  0.86833  1.0000
  O   O24       1.0  0.51426  0.86328  0.13167  1.0000
  O   O25       1.0  0.79322  0.18591  0.41999  1.0000
  O   O26       1.0  0.29322  0.31409  0.58001  1.0000
  O   O27       1.0  0.20678  0.81409  0.58001  1.0000
  O   O28       1.0  0.70678  0.68591  0.41999  1.0000
  O   O29       1.0  0.49812  0.13988  0.10211  1.0000
  O   O30       1.0  0.99812  0.36012  0.89789  1.0000
  O   O31       1.0  0.50188  0.86012  0.89789  1.0000
  O   O32       1.0  0.00188  0.63988  0.10211  1.0000
  O   O33       1.0  0.45055  0.61323  0.36758  1.0000
  O   O34       1.0  0.95055  0.88677  0.63242  1.0000
  O   O35       1.0  0.54945  0.38677  0.63242  1.0000
  O   O36       1.0  0.04945  0.11323  0.36758  1.0000
  O   O37       1.0  0.42678  0.35955  0.31605  1.0000
  O   O38       1.0  0.92678  0.14045  0.68394  1.0000
  O   O39       1.0  0.57322  0.64045  0.68394  1.0000
  O   O40       1.0  0.07322  0.85955  0.31605  1.0000
  O   O41       1.0  0.73815  0.58113  0.09672  1.0000
  O   O42       1.0  0.23815  0.91887  0.90328  1.0000
  O   O43       1.0  0.26185  0.41887  0.90328  1.0000
  O   O44       1.0  0.76185  0.08113  0.09672  1.0000
