data_image0
_chemical_formula_structural       Cu4H20C22S2I4N4
_chemical_formula_sum              "Cu4 H20 C22 S2 I4 N4"
_cell_length_a       7.74641
_cell_length_b       8.15078
_cell_length_c       11.9429
_cell_angle_alpha    92.932
_cell_angle_beta     93.5177
_cell_angle_gamma    110.039

_space_group_name_H-M_alt    "P 1"
_space_group_IT_number       1

loop_
  _space_group_symop_operation_xyz
  'x, y, z'

loop_
  _atom_site_type_symbol
  _atom_site_label
  _atom_site_symmetry_multiplicity
  _atom_site_fract_x
  _atom_site_fract_y
  _atom_site_fract_z
  _atom_site_occupancy
  Cu  Cu1       1.0  0.56996  0.59475  0.92045  1.0000
  Cu  Cu2       1.0  0.43003  0.40526  0.07954  1.0000
  Cu  Cu3       1.0  0.60729  0.55532  0.58923  1.0000
  Cu  Cu4       1.0  0.39271  0.44468  0.41076  1.0000
  H   H1        1.0  0.98011  0.71142  0.97781  1.0000
  H   H2        1.0  0.01989  0.28859  0.02220  1.0000
  H   H3        1.0  0.26022  0.94612  0.92431  1.0000
  H   H4        1.0  0.73978  0.05388  0.07570  1.0000
  H   H5        1.0  0.22282  0.15085  0.78237  1.0000
  H   H6        1.0  0.77718  0.84916  0.21763  1.0000
  H   H7        1.0  0.90182  0.11292  0.70185  1.0000
  H   H8        1.0  0.09818  0.88708  0.29815  1.0000
  H   H9        1.0  0.57877  0.93343  0.67890  1.0000
  H   H10       1.0  0.42123  0.06657  0.32110  1.0000
  H   H11       1.0  0.50672  0.92156  0.81976  1.0000
  H   H12       1.0  0.49328  0.07844  0.18024  1.0000
  H   H13       1.0  0.97476  0.79411  0.53314  1.0000
  H   H14       1.0  0.02524  0.20589  0.46686  1.0000
  H   H15       1.0  0.30356  0.83295  0.58138  1.0000
  H   H16       1.0  0.69644  0.16704  0.41862  1.0000
  H   H17       1.0  0.11741  0.40705  0.79786  1.0000
  H   H18       1.0  0.88259  0.59295  0.20214  1.0000
  H   H19       1.0  0.79431  0.37702  0.73281  1.0000
  H   H20       1.0  0.20570  0.62298  0.26719  1.0000
  C   C1        1.0  0.96866  0.80657  0.91942  1.0000
  C   C2        1.0  0.03133  0.19343  0.08058  1.0000
  C   C3        1.0  0.12418  0.93604  0.88798  1.0000
  C   C4        1.0  0.87582  0.06396  0.11202  1.0000
  C   C5        1.0  0.10247  0.05058  0.81013  1.0000
  C   C6        1.0  0.89753  0.94943  0.18987  1.0000
  C   C7        1.0  0.92499  0.03059  0.76598  1.0000
  C   C8        1.0  0.07501  0.96942  0.23402  1.0000
  C   C9        1.0  0.77479  0.90028  0.80319  1.0000
  C   C10       1.0  0.22522  0.09972  0.19680  1.0000
  C   C11       1.0  0.58088  0.87204  0.75837  1.0000
  C   C12       1.0  0.41913  0.12797  0.24163  1.0000
  C   C13       1.0  0.01252  0.70891  0.59005  1.0000
  C   C14       1.0  0.98748  0.29109  0.40995  1.0000
  C   C15       1.0  0.19604  0.73137  0.61843  1.0000
  C   C16       1.0  0.80396  0.26862  0.38157  1.0000
  C   C17       1.0  0.23696  0.62106  0.69370  1.0000
  C   C18       1.0  0.76304  0.37894  0.30630  1.0000
  C   C19       1.0  0.09125  0.49134  0.73615  1.0000
  C   C20       1.0  0.90875  0.50866  0.26385  1.0000
  C   C21       1.0  0.91161  0.47561  0.70106  1.0000
  C   C22       1.0  0.08839  0.52438  0.29894  1.0000
  S   S1        1.0  0.46445  0.63489  0.73528  1.0000
  S   S2        1.0  0.53555  0.36511  0.26472  1.0000
  I   I1        1.0  0.37166  0.69599  0.05757  1.0000
  I   I2        1.0  0.62833  0.30401  0.94243  1.0000
  I   I3        1.0  0.60157  0.78062  0.43809  1.0000
  I   I4        1.0  0.39843  0.21938  0.56191  1.0000
  N   N1        1.0  0.79666  0.78958  0.87923  1.0000
  N   N2        1.0  0.20334  0.21042  0.12077  1.0000
  N   N3        1.0  0.87068  0.58308  0.62977  1.0000
  N   N4        1.0  0.12933  0.41692  0.37024  1.0000
