data_image0
_chemical_formula_structural       Zn4H48C56N16O16
_chemical_formula_sum              "Zn4 H48 C56 N16 O16"
_cell_length_a       8.05795
_cell_length_b       11.6017
_cell_length_c       16.622
_cell_angle_alpha    90
_cell_angle_beta     90
_cell_angle_gamma    100.117

_space_group_name_H-M_alt    "P 1"
_space_group_IT_number       1

loop_
  _space_group_symop_operation_xyz
  'x, y, z'

loop_
  _atom_site_type_symbol
  _atom_site_label
  _atom_site_symmetry_multiplicity
  _atom_site_fract_x
  _atom_site_fract_y
  _atom_site_fract_z
  _atom_site_occupancy
  Zn  Zn1       1.0  0.35314  0.92051  0.29955  1.0000
  Zn  Zn2       1.0  0.35314  0.42051  0.20045  1.0000
  Zn  Zn3       1.0  0.64686  0.07949  0.70045  1.0000
  Zn  Zn4       1.0  0.64686  0.57949  0.79955  1.0000
  H   H1        1.0  0.31012  0.63848  0.29203  1.0000
  H   H2        1.0  0.31012  0.13848  0.20797  1.0000
  H   H3        1.0  0.68988  0.36152  0.70798  1.0000
  H   H4        1.0  0.68988  0.86152  0.79202  1.0000
  H   H5        1.0  0.38531  0.51073  0.42350  1.0000
  H   H6        1.0  0.38531  0.01073  0.07649  1.0000
  H   H7        1.0  0.61469  0.48927  0.57650  1.0000
  H   H8        1.0  0.61469  0.98927  0.92350  1.0000
  H   H9        1.0  0.48039  0.68107  0.54035  1.0000
  H   H10       1.0  0.48039  0.18107  0.95965  1.0000
  H   H11       1.0  0.51961  0.31893  0.45965  1.0000
  H   H12       1.0  0.51961  0.81893  0.04035  1.0000
  H   H13       1.0  0.70488  0.88190  0.22753  1.0000
  H   H14       1.0  0.70489  0.38190  0.27247  1.0000
  H   H15       1.0  0.29512  0.11809  0.77247  1.0000
  H   H16       1.0  0.29511  0.61809  0.72753  1.0000
  H   H17       1.0  0.99488  0.04689  0.24804  1.0000
  H   H18       1.0  0.99488  0.54689  0.25196  1.0000
  H   H19       1.0  0.00512  0.95310  0.75196  1.0000
  H   H20       1.0  0.00512  0.45311  0.74804  1.0000
  H   H21       1.0  0.87655  0.23858  0.30751  1.0000
  H   H22       1.0  0.87655  0.73858  0.19248  1.0000
  H   H23       1.0  0.12345  0.76142  0.69249  1.0000
  H   H24       1.0  0.12345  0.26142  0.80752  1.0000
  H   H25       1.0  0.13781  0.05020  0.55966  1.0000
  H   H26       1.0  0.13782  0.55019  0.94034  1.0000
  H   H27       1.0  0.86219  0.94980  0.44034  1.0000
  H   H28       1.0  0.86218  0.44980  0.05966  1.0000
  H   H29       1.0  0.98228  0.18741  0.62977  1.0000
  H   H30       1.0  0.98228  0.68741  0.87023  1.0000
  H   H31       1.0  0.01772  0.81259  0.37023  1.0000
  H   H32       1.0  0.01772  0.31259  0.12977  1.0000
  H   H33       1.0  0.93855  0.37122  0.56177  1.0000
  H   H34       1.0  0.93855  0.87122  0.93823  1.0000
  H   H35       1.0  0.06145  0.62878  0.43823  1.0000
  H   H36       1.0  0.06145  0.12878  0.06177  1.0000
  H   H37       1.0  0.06383  0.42140  0.42618  1.0000
  H   H38       1.0  0.06383  0.92139  0.07382  1.0000
  H   H39       1.0  0.93617  0.57861  0.57382  1.0000
  H   H40       1.0  0.93618  0.07861  0.92618  1.0000
  H   H41       1.0  0.46953  0.87446  0.47325  1.0000
  H   H42       1.0  0.46953  0.37446  0.02676  1.0000
  H   H43       1.0  0.53047  0.12554  0.52675  1.0000
  H   H44       1.0  0.53048  0.62554  0.97325  1.0000
  H   H45       1.0  0.55415  0.17498  0.31816  1.0000
  H   H46       1.0  0.55415  0.67498  0.18184  1.0000
  H   H47       1.0  0.44585  0.82502  0.68184  1.0000
  H   H48       1.0  0.44585  0.32502  0.81816  1.0000
  C   C1        1.0  0.35420  0.66822  0.35145  1.0000
  C   C2        1.0  0.35420  0.16821  0.14855  1.0000
  C   C3        1.0  0.64580  0.33178  0.64855  1.0000
  C   C4        1.0  0.64580  0.83178  0.85145  1.0000
  C   C5        1.0  0.39218  0.60446  0.41863  1.0000
  C   C6        1.0  0.39218  0.10445  0.08137  1.0000
  C   C7        1.0  0.60781  0.39554  0.58137  1.0000
  C   C8        1.0  0.60782  0.89555  0.91863  1.0000
  C   C9        1.0  0.44082  0.68790  0.47828  1.0000
  C   C10       1.0  0.44082  0.18789  0.02172  1.0000
  C   C11       1.0  0.55918  0.31211  0.52172  1.0000
  C   C12       1.0  0.55918  0.81211  0.97828  1.0000
  C   C13       1.0  0.72034  0.97088  0.24970  1.0000
  C   C14       1.0  0.72034  0.47089  0.25030  1.0000
  C   C15       1.0  0.27966  0.02911  0.75030  1.0000
  C   C16       1.0  0.27966  0.52911  0.74970  1.0000
  C   C17       1.0  0.86549  0.05590  0.25916  1.0000
  C   C18       1.0  0.86549  0.55590  0.24083  1.0000
  C   C19       1.0  0.13451  0.94410  0.74084  1.0000
  C   C20       1.0  0.13451  0.44410  0.75916  1.0000
  C   C21       1.0  0.80807  0.15299  0.29052  1.0000
  C   C22       1.0  0.80807  0.65300  0.20947  1.0000
  C   C23       1.0  0.19193  0.84700  0.70947  1.0000
  C   C24       1.0  0.19193  0.34700  0.79053  1.0000
  C   C25       1.0  0.18959  0.15895  0.45441  1.0000
  C   C26       1.0  0.18959  0.65895  0.04560  1.0000
  C   C27       1.0  0.81041  0.84105  0.54560  1.0000
  C   C28       1.0  0.81041  0.34105  0.95441  1.0000
  C   C29       1.0  0.12163  0.13196  0.53090  1.0000
  C   C30       1.0  0.12163  0.63196  0.96910  1.0000
  C   C31       1.0  0.87837  0.86804  0.46910  1.0000
  C   C32       1.0  0.87837  0.36804  0.03090  1.0000
  C   C33       1.0  0.03329  0.20889  0.56984  1.0000
  C   C34       1.0  0.03329  0.70888  0.93016  1.0000
  C   C35       1.0  0.96671  0.79112  0.43016  1.0000
  C   C36       1.0  0.96671  0.29112  0.06984  1.0000
  C   C37       1.0  0.00987  0.31216  0.53184  1.0000
  C   C38       1.0  0.00987  0.81215  0.96815  1.0000
  C   C39       1.0  0.99013  0.68785  0.46815  1.0000
  C   C40       1.0  0.99013  0.18785  0.03185  1.0000
  C   C41       1.0  0.07831  0.33989  0.45574  1.0000
  C   C42       1.0  0.07830  0.83989  0.04425  1.0000
  C   C43       1.0  0.92170  0.66011  0.54426  1.0000
  C   C44       1.0  0.92170  0.16011  0.95574  1.0000
  C   C45       1.0  0.17183  0.26499  0.41719  1.0000
  C   C46       1.0  0.17183  0.76499  0.08281  1.0000
  C   C47       1.0  0.82817  0.73501  0.58281  1.0000
  C   C48       1.0  0.82817  0.23502  0.91719  1.0000
  C   C49       1.0  0.27861  0.07311  0.41262  1.0000
  C   C50       1.0  0.27861  0.57311  0.08738  1.0000
  C   C51       1.0  0.72139  0.92689  0.58738  1.0000
  C   C52       1.0  0.72139  0.42689  0.91262  1.0000
  C   C53       1.0  0.26735  0.30385  0.34180  1.0000
  C   C54       1.0  0.26735  0.80385  0.15820  1.0000
  C   C55       1.0  0.73265  0.69615  0.65820  1.0000
  C   C56       1.0  0.73265  0.19615  0.84180  1.0000
  N   N1        1.0  0.37908  0.78334  0.36919  1.0000
  N   N2        1.0  0.37908  0.28334  0.13081  1.0000
  N   N3        1.0  0.62091  0.21666  0.63081  1.0000
  N   N4        1.0  0.62092  0.71666  0.86919  1.0000
  N   N5        1.0  0.43119  0.79328  0.44647  1.0000
  N   N6        1.0  0.43119  0.29328  0.05353  1.0000
  N   N7        1.0  0.56881  0.20672  0.55353  1.0000
  N   N8        1.0  0.56881  0.70672  0.94647  1.0000
  N   N9        1.0  0.58310  0.01299  0.27373  1.0000
  N   N10       1.0  0.58311  0.51300  0.22627  1.0000
  N   N11       1.0  0.41689  0.98700  0.72627  1.0000
  N   N12       1.0  0.41689  0.48700  0.77373  1.0000
  N   N13       1.0  0.63905  0.12395  0.29857  1.0000
  N   N14       1.0  0.63905  0.62395  0.20143  1.0000
  N   N15       1.0  0.36095  0.87605  0.70143  1.0000
  N   N16       1.0  0.36095  0.37605  0.79857  1.0000
  O   O1        1.0  0.21953  0.03557  0.34325  1.0000
  O   O2        1.0  0.21953  0.53557  0.15675  1.0000
  O   O3        1.0  0.78047  0.96443  0.65675  1.0000
  O   O4        1.0  0.78047  0.46443  0.84325  1.0000
  O   O5        1.0  0.40105  0.03925  0.44618  1.0000
  O   O6        1.0  0.40105  0.53925  0.05382  1.0000
  O   O7        1.0  0.59895  0.96074  0.55382  1.0000
  O   O8        1.0  0.59895  0.46075  0.94618  1.0000
  O   O9        1.0  0.19709  0.36507  0.29149  1.0000
  O   O10       1.0  0.19709  0.86507  0.20851  1.0000
  O   O11       1.0  0.80291  0.63493  0.70851  1.0000
  O   O12       1.0  0.80291  0.13493  0.79149  1.0000
  O   O13       1.0  0.41414  0.28146  0.33209  1.0000
  O   O14       1.0  0.41414  0.78146  0.16791  1.0000
  O   O15       1.0  0.58586  0.71854  0.66791  1.0000
  O   O16       1.0  0.58586  0.21854  0.83209  1.0000
