data_image0
_chemical_formula_structural       Zn4H48C56N16O16
_chemical_formula_sum              "Zn4 H48 C56 N16 O16"
_cell_length_a       7.7512
_cell_length_b       12.2347
_cell_length_c       16.6417
_cell_angle_alpha    90
_cell_angle_beta     90
_cell_angle_gamma    99.5682

_space_group_name_H-M_alt    "P 1"
_space_group_IT_number       1

loop_
  _space_group_symop_operation_xyz
  'x, y, z'

loop_
  _atom_site_type_symbol
  _atom_site_label
  _atom_site_symmetry_multiplicity
  _atom_site_fract_x
  _atom_site_fract_y
  _atom_site_fract_z
  _atom_site_occupancy
  Zn  Zn1       1.0  0.84332  0.92069  0.68622  1.0000
  Zn  Zn2       1.0  0.15668  0.57932  0.18622  1.0000
  Zn  Zn3       1.0  0.15668  0.07931  0.31378  1.0000
  Zn  Zn4       1.0  0.84334  0.42068  0.81378  1.0000
  H   H1        1.0  0.14662  0.88580  0.78462  1.0000
  H   H2        1.0  0.85339  0.61420  0.28461  1.0000
  H   H3        1.0  0.85337  0.11420  0.21537  1.0000
  H   H4        1.0  0.14663  0.38580  0.71538  1.0000
  H   H5        1.0  0.84325  0.66372  0.72169  1.0000
  H   H6        1.0  0.15674  0.83628  0.22170  1.0000
  H   H7        1.0  0.15674  0.33627  0.27831  1.0000
  H   H8        1.0  0.84327  0.16373  0.77831  1.0000
  H   H9        1.0  0.61357  0.44156  0.55956  1.0000
  H   H10       1.0  0.38640  0.05843  0.05955  1.0000
  H   H11       1.0  0.38645  0.55844  0.44044  1.0000
  H   H12       1.0  0.61355  0.94156  0.94044  1.0000
  H   H13       1.0  0.49822  0.38344  0.42379  1.0000
  H   H14       1.0  0.50178  0.11657  0.92379  1.0000
  H   H15       1.0  0.50180  0.61656  0.57621  1.0000
  H   H16       1.0  0.49822  0.88343  0.07621  1.0000
  H   H17       1.0  0.51336  0.19379  0.37372  1.0000
  H   H18       1.0  0.48665  0.30622  0.87372  1.0000
  H   H19       1.0  0.48665  0.80621  0.62629  1.0000
  H   H20       1.0  0.51336  0.69379  0.12629  1.0000
  H   H21       1.0  0.62471  0.05795  0.46407  1.0000
  H   H22       1.0  0.37531  0.44205  0.96408  1.0000
  H   H23       1.0  0.37529  0.94204  0.53593  1.0000
  H   H24       1.0  0.62473  0.55795  0.03593  1.0000
  H   H25       1.0  0.46968  0.99054  0.78399  1.0000
  H   H26       1.0  0.53032  0.50948  0.28397  1.0000
  H   H27       1.0  0.53032  0.00946  0.21599  1.0000
  H   H28       1.0  0.46969  0.49054  0.71600  1.0000
  H   H29       1.0  0.45099  0.18571  0.70331  1.0000
  H   H30       1.0  0.54899  0.31429  0.20330  1.0000
  H   H31       1.0  0.54901  0.81429  0.29669  1.0000
  H   H32       1.0  0.45102  0.68572  0.79668  1.0000
  H   H33       1.0  0.10555  0.16057  0.65411  1.0000
  H   H34       1.0  0.89444  0.33942  0.15411  1.0000
  H   H35       1.0  0.89445  0.83945  0.34590  1.0000
  H   H36       1.0  0.10558  0.66058  0.84589  1.0000
  H   H37       1.0  0.93349  0.52223  0.62540  1.0000
  H   H38       1.0  0.06649  0.97777  0.12542  1.0000
  H   H39       1.0  0.06649  0.47776  0.37460  1.0000
  H   H40       1.0  0.93349  0.02223  0.87459  1.0000
  H   H41       1.0  0.98360  0.62934  0.47749  1.0000
  H   H42       1.0  0.01640  0.87067  0.97750  1.0000
  H   H43       1.0  0.01639  0.37065  0.52251  1.0000
  H   H44       1.0  0.98357  0.12931  0.02251  1.0000
  H   H45       1.0  0.92667  0.84072  0.51134  1.0000
  H   H46       1.0  0.07335  0.65930  0.01134  1.0000
  H   H47       1.0  0.07333  0.15928  0.48866  1.0000
  H   H48       1.0  0.92666  0.34069  0.98867  1.0000
  C   C1        1.0  0.73516  0.08899  0.61713  1.0000
  C   C2        1.0  0.26484  0.41100  0.11713  1.0000
  C   C3        1.0  0.26485  0.91101  0.38287  1.0000
  C   C4        1.0  0.73517  0.58900  0.88287  1.0000
  C   C5        1.0  0.68190  0.17314  0.56160  1.0000
  C   C6        1.0  0.31808  0.32684  0.06159  1.0000
  C   C7        1.0  0.31811  0.82685  0.43841  1.0000
  C   C8        1.0  0.68190  0.67314  0.93840  1.0000
  C   C9        1.0  0.68286  0.28268  0.58827  1.0000
  C   C10       1.0  0.31711  0.21732  0.08827  1.0000
  C   C11       1.0  0.31715  0.71732  0.41173  1.0000
  C   C12       1.0  0.68285  0.78267  0.91173  1.0000
  C   C13       1.0  0.61351  0.35698  0.53880  1.0000
  C   C14       1.0  0.38648  0.14301  0.03878  1.0000
  C   C15       1.0  0.38650  0.64301  0.46121  1.0000
  C   C16       1.0  0.61349  0.85698  0.96121  1.0000
  C   C17       1.0  0.55133  0.32476  0.46208  1.0000
  C   C18       1.0  0.44865  0.17524  0.96208  1.0000
  C   C19       1.0  0.44867  0.67524  0.53792  1.0000
  C   C20       1.0  0.55133  0.82475  0.03792  1.0000
  C   C21       1.0  0.55875  0.21817  0.43409  1.0000
  C   C22       1.0  0.44126  0.28183  0.93409  1.0000
  C   C23       1.0  0.44126  0.78183  0.56592  1.0000
  C   C24       1.0  0.55875  0.71817  0.06591  1.0000
  C   C25       1.0  0.62195  0.14240  0.48415  1.0000
  C   C26       1.0  0.37805  0.35761  0.98415  1.0000
  C   C27       1.0  0.37806  0.85760  0.51586  1.0000
  C   C28       1.0  0.62196  0.64240  0.01586  1.0000
  C   C29       1.0  0.35956  0.01955  0.75562  1.0000
  C   C30       1.0  0.64044  0.48045  0.25560  1.0000
  C   C31       1.0  0.64044  0.98044  0.24438  1.0000
  C   C32       1.0  0.35958  0.51956  0.74438  1.0000
  C   C33       1.0  0.34686  0.11650  0.71367  1.0000
  C   C34       1.0  0.65313  0.38351  0.21366  1.0000
  C   C35       1.0  0.65314  0.88350  0.28632  1.0000
  C   C36       1.0  0.34689  0.61651  0.78632  1.0000
  C   C37       1.0  0.17228  0.10428  0.68811  1.0000
  C   C38       1.0  0.82773  0.39571  0.18810  1.0000
  C   C39       1.0  0.82772  0.89573  0.31189  1.0000
  C   C40       1.0  0.17230  0.60429  0.81189  1.0000
  C   C41       1.0  0.92281  0.60621  0.60796  1.0000
  C   C42       1.0  0.07717  0.89380  0.10797  1.0000
  C   C43       1.0  0.07718  0.39379  0.39204  1.0000
  C   C44       1.0  0.92282  0.10620  0.89203  1.0000
  C   C45       1.0  0.94811  0.66132  0.53471  1.0000
  C   C46       1.0  0.05189  0.83870  0.03472  1.0000
  C   C47       1.0  0.05188  0.33867  0.46529  1.0000
  C   C48       1.0  0.94809  0.16130  0.96529  1.0000
  C   C49       1.0  0.91988  0.76949  0.55076  1.0000
  C   C50       1.0  0.08013  0.73052  0.05076  1.0000
  C   C51       1.0  0.08012  0.23051  0.44925  1.0000
  C   C52       1.0  0.91987  0.26948  0.94925  1.0000
  C   C53       1.0  0.77917  0.32493  0.66355  1.0000
  C   C54       1.0  0.22080  0.17506  0.16354  1.0000
  C   C55       1.0  0.22083  0.67506  0.33646  1.0000
  C   C56       1.0  0.77917  0.82493  0.83645  1.0000
  N   N1        1.0  0.08351  0.00633  0.71330  1.0000
  N   N2        1.0  0.91649  0.49366  0.21330  1.0000
  N   N3        1.0  0.91648  0.99368  0.28670  1.0000
  N   N4        1.0  0.08354  0.50634  0.78670  1.0000
  N   N5        1.0  0.19973  0.95603  0.75363  1.0000
  N   N6        1.0  0.80027  0.54397  0.25362  1.0000
  N   N7        1.0  0.80026  0.04397  0.24636  1.0000
  N   N8        1.0  0.19974  0.45604  0.74637  1.0000
  N   N9        1.0  0.87886  0.77930  0.62871  1.0000
  N   N10       1.0  0.12113  0.72071  0.12871  1.0000
  N   N11       1.0  0.12113  0.22069  0.37129  1.0000
  N   N12       1.0  0.87888  0.27929  0.87130  1.0000
  N   N13       1.0  0.88157  0.67929  0.66260  1.0000
  N   N14       1.0  0.11841  0.82071  0.16262  1.0000
  N   N15       1.0  0.11842  0.32072  0.33739  1.0000
  N   N16       1.0  0.88159  0.17929  0.83739  1.0000
  O   O1        1.0  0.76992  0.99808  0.58712  1.0000
  O   O2        1.0  0.23007  0.50192  0.08712  1.0000
  O   O3        1.0  0.23008  0.00192  0.41288  1.0000
  O   O4        1.0  0.76993  0.49808  0.91288  1.0000
  O   O5        1.0  0.74020  0.10602  0.69233  1.0000
  O   O6        1.0  0.25978  0.39397  0.19233  1.0000
  O   O7        1.0  0.25981  0.89397  0.30767  1.0000
  O   O8        1.0  0.74023  0.60603  0.80767  1.0000
  O   O9        1.0  0.69297  0.36743  0.71866  1.0000
  O   O10       1.0  0.30701  0.13257  0.21865  1.0000
  O   O11       1.0  0.30703  0.63256  0.28135  1.0000
  O   O12       1.0  0.69297  0.86743  0.78135  1.0000
  O   O13       1.0  0.94113  0.32285  0.66576  1.0000
  O   O14       1.0  0.05885  0.17714  0.16575  1.0000
  O   O15       1.0  0.05888  0.67715  0.33425  1.0000
  O   O16       1.0  0.94112  0.82286  0.83425  1.0000
