data_image0
_chemical_formula_structural       Fe2H20C28N4O12
_chemical_formula_sum              "Fe2 H20 C28 N4 O12"
_cell_length_a       7.63694
_cell_length_b       9.75462
_cell_length_c       10.525
_cell_angle_alpha    63.3198
_cell_angle_beta     85.1942
_cell_angle_gamma    80.937

_space_group_name_H-M_alt    "P 1"
_space_group_IT_number       1

loop_
  _space_group_symop_operation_xyz
  'x, y, z'

loop_
  _atom_site_type_symbol
  _atom_site_label
  _atom_site_symmetry_multiplicity
  _atom_site_fract_x
  _atom_site_fract_y
  _atom_site_fract_z
  _atom_site_occupancy
  Fe  Fe1       1.0  0.65431  0.75453  0.13595  1.0000
  Fe  Fe2       1.0  0.34570  0.24547  0.86404  1.0000
  H   H1        1.0  0.78509  0.53486  0.37030  1.0000
  H   H2        1.0  0.21496  0.46515  0.62969  1.0000
  H   H3        1.0  0.95102  0.59254  0.27607  1.0000
  H   H4        1.0  0.04901  0.40748  0.72390  1.0000
  H   H5        1.0  0.21763  0.12413  0.61984  1.0000
  H   H6        1.0  0.78236  0.87586  0.38016  1.0000
  H   H7        1.0  0.31646  0.34726  0.45604  1.0000
  H   H8        1.0  0.68355  0.65275  0.54394  1.0000
  H   H9        1.0  0.58450  0.34955  0.07916  1.0000
  H   H10       1.0  0.41552  0.65042  0.92084  1.0000
  H   H11       1.0  0.35519  0.94563  0.37783  1.0000
  H   H12       1.0  0.64478  0.05438  0.62218  1.0000
  H   H13       1.0  0.78240  0.05025  0.93844  1.0000
  H   H14       1.0  0.21758  0.94975  0.06159  1.0000
  H   H15       1.0  0.97366  0.13120  0.72406  1.0000
  H   H16       1.0  0.02627  0.86880  0.27594  1.0000
  H   H17       1.0  0.09976  0.65179  0.80875  1.0000
  H   H18       1.0  0.90024  0.34820  0.19128  1.0000
  H   H19       1.0  0.89579  0.58779  0.02068  1.0000
  H   H20       1.0  0.10425  0.41220  0.97937  1.0000
  C   C1        1.0  0.31624  0.14037  0.42754  1.0000
  C   C2        1.0  0.68375  0.85963  0.57244  1.0000
  C   C3        1.0  0.35585  0.29037  0.38755  1.0000
  C   C4        1.0  0.64414  0.70963  0.61245  1.0000
  C   C5        1.0  0.45464  0.36405  0.26362  1.0000
  C   C6        1.0  0.54538  0.63593  0.73638  1.0000
  C   C7        1.0  0.50881  0.29136  0.17592  1.0000
  C   C8        1.0  0.49120  0.70863  0.82409  1.0000
  C   C9        1.0  0.47316  0.14095  0.21770  1.0000
  C   C10       1.0  0.52683  0.85905  0.78229  1.0000
  C   C11       1.0  0.37901  0.06399  0.34371  1.0000
  C   C12       1.0  0.62097  0.93601  0.65629  1.0000
  C   C13       1.0  0.15834  0.93180  0.61268  1.0000
  C   C14       1.0  0.84161  0.06819  0.38733  1.0000
  C   C15       1.0  0.85941  0.96460  0.90946  1.0000
  C   C16       1.0  0.14056  0.03541  0.09055  1.0000
  C   C17       1.0  0.96715  0.00816  0.78872  1.0000
  C   C18       1.0  0.03282  0.99185  0.21128  1.0000
  C   C19       1.0  0.05506  0.89662  0.74788  1.0000
  C   C20       1.0  0.94491  0.10338  0.25214  1.0000
  C   C21       1.0  0.03209  0.74211  0.83604  1.0000
  C   C22       1.0  0.96792  0.25789  0.16398  1.0000
  C   C23       1.0  0.92289  0.70568  0.95487  1.0000
  C   C24       1.0  0.07712  0.29431  0.04517  1.0000
  C   C25       1.0  0.51625  0.51339  0.22855  1.0000
  C   C26       1.0  0.48380  0.48659  0.77144  1.0000
  C   C27       1.0  0.54747  0.06050  0.12981  1.0000
  C   C28       1.0  0.45253  0.93952  0.87016  1.0000
  N   N1        1.0  0.22104  0.07183  0.55456  1.0000
  N   N2        1.0  0.77892  0.92819  0.44543  1.0000
  N   N3        1.0  0.83181  0.81492  0.99205  1.0000
  N   N4        1.0  0.16817  0.18509  0.00797  1.0000
  O   O1        1.0  0.17922  0.83967  0.55920  1.0000
  O   O2        1.0  0.82074  0.16033  0.44082  1.0000
  O   O3        1.0  0.64086  0.55724  0.13241  1.0000
  O   O4        1.0  0.35918  0.44273  0.86756  1.0000
  O   O5        1.0  0.45901  0.60018  0.28878  1.0000
  O   O6        1.0  0.54107  0.39982  0.71121  1.0000
  O   O7        1.0  0.62413  0.92063  0.19536  1.0000
  O   O8        1.0  0.37586  0.07938  0.80462  1.0000
  O   O9        1.0  0.54211  0.13286  0.99414  1.0000
  O   O10       1.0  0.45791  0.86716  0.00584  1.0000
  O   O11       1.0  0.83837  0.62858  0.30961  1.0000
  O   O12       1.0  0.16165  0.37141  0.69039  1.0000
