data_image0
_chemical_formula_structural       Cd2H22C20N2O20
_chemical_formula_sum              "Cd2 H22 C20 N2 O20"
_cell_length_a       7.74995
_cell_length_b       7.86827
_cell_length_c       11.0811
_cell_angle_alpha    95.382
_cell_angle_beta     90.5845
_cell_angle_gamma    108.763

_space_group_name_H-M_alt    "P 1"
_space_group_IT_number       1

loop_
  _space_group_symop_operation_xyz
  'x, y, z'

loop_
  _atom_site_type_symbol
  _atom_site_label
  _atom_site_symmetry_multiplicity
  _atom_site_fract_x
  _atom_site_fract_y
  _atom_site_fract_z
  _atom_site_occupancy
  Cd  Cd1       1.0  0.73544  0.90003  0.55242  1.0000
  Cd  Cd2       1.0  0.26456  0.09997  0.44758  1.0000
  H   H1        1.0  0.37070  0.57520  0.52421  1.0000
  H   H2        1.0  0.62930  0.42480  0.47579  1.0000
  H   H3        1.0  0.39923  0.75569  0.45741  1.0000
  H   H4        1.0  0.60077  0.24432  0.54259  1.0000
  H   H5        1.0  0.02353  0.91570  0.71085  1.0000
  H   H6        1.0  0.97647  0.08430  0.28916  1.0000
  H   H7        1.0  0.85747  0.74391  0.73745  1.0000
  H   H8        1.0  0.14253  0.25609  0.26255  1.0000
  H   H9        1.0  0.42945  0.78189  0.77158  1.0000
  H   H10       1.0  0.57055  0.21811  0.22841  1.0000
  H   H11       1.0  0.51805  0.99356  0.86211  1.0000
  H   H12       1.0  0.48195  0.00643  0.13789  1.0000
  H   H13       1.0  0.95256  0.83633  0.98261  1.0000
  H   H14       1.0  0.04744  0.16367  0.01739  1.0000
  H   H15       1.0  0.88433  0.68291  0.16644  1.0000
  H   H16       1.0  0.11567  0.31709  0.83356  1.0000
  H   H17       1.0  0.46667  0.73409  0.96675  1.0000
  H   H18       1.0  0.53333  0.26590  0.03325  1.0000
  H   H19       1.0  0.90408  0.38113  0.38055  1.0000
  H   H20       1.0  0.09593  0.61887  0.61945  1.0000
  H   H21       1.0  0.81086  0.46173  0.26002  1.0000
  H   H22       1.0  0.18915  0.53826  0.73998  1.0000
  C   C1        1.0  0.40388  0.00471  0.68728  1.0000
  C   C2        1.0  0.59612  0.99529  0.31272  1.0000
  C   C3        1.0  0.40435  0.90991  0.80014  1.0000
  C   C4        1.0  0.59564  0.09008  0.19986  1.0000
  C   C5        1.0  0.21200  0.79321  0.95990  1.0000
  C   C6        1.0  0.78799  0.20678  0.04010  1.0000
  C   C7        1.0  0.04885  0.77754  0.01939  1.0000
  C   C8        1.0  0.95115  0.22245  0.98061  1.0000
  C   C9        1.0  0.01069  0.68943  0.12287  1.0000
  C   C10       1.0  0.98931  0.31057  0.87713  1.0000
  C   C11       1.0  0.13020  0.60799  0.17009  1.0000
  C   C12       1.0  0.86980  0.39201  0.82991  1.0000
  C   C13       1.0  0.29605  0.62961  0.11161  1.0000
  C   C14       1.0  0.70396  0.37040  0.88839  1.0000
  C   C15       1.0  0.33717  0.72249  0.00763  1.0000
  C   C16       1.0  0.66283  0.27751  0.99237  1.0000
  C   C17       1.0  0.92592  0.49563  0.32669  1.0000
  C   C18       1.0  0.07408  0.50437  0.67331  1.0000
  C   C19       1.0  0.92564  0.66295  0.40895  1.0000
  C   C20       1.0  0.07437  0.33705  0.59105  1.0000
  N   N1        1.0  0.43532  0.56387  0.15674  1.0000
  N   N2        1.0  0.56468  0.43613  0.84326  1.0000
  O   O1        1.0  0.55956  0.07123  0.64335  1.0000
  O   O2        1.0  0.44044  0.92877  0.35665  1.0000
  O   O3        1.0  0.25434  0.01223  0.64423  1.0000
  O   O4        1.0  0.74566  0.98777  0.35577  1.0000
  O   O5        1.0  0.23424  0.87952  0.85705  1.0000
  O   O6        1.0  0.76576  0.12047  0.14295  1.0000
  O   O7        1.0  0.59465  0.63533  0.12519  1.0000
  O   O8        1.0  0.40535  0.36468  0.87480  1.0000
  O   O9        1.0  0.39459  0.43882  0.22380  1.0000
  O   O10       1.0  0.60542  0.56117  0.77619  1.0000
  O   O11       1.0  0.09363  0.51283  0.26793  1.0000
  O   O12       1.0  0.90637  0.48716  0.73207  1.0000
  O   O13       1.0  0.05717  0.80564  0.40995  1.0000
  O   O14       1.0  0.94284  0.19436  0.59005  1.0000
  O   O15       1.0  0.78217  0.63909  0.47053  1.0000
  O   O16       1.0  0.21784  0.36092  0.52947  1.0000
  O   O17       1.0  0.43084  0.70837  0.53118  1.0000
  O   O18       1.0  0.56916  0.29163  0.46882  1.0000
  O   O19       1.0  0.89041  0.87159  0.72338  1.0000
  O   O20       1.0  0.10958  0.12841  0.27662  1.0000
