data_image0
_chemical_formula_structural       U2H20C14N4O14
_chemical_formula_sum              "U2 H20 C14 N4 O14"
_cell_length_a       6.92897
_cell_length_b       8.17301
_cell_length_c       11.1253
_cell_angle_alpha    106.814
_cell_angle_beta     95.9583
_cell_angle_gamma    110.788

_space_group_name_H-M_alt    "P 1"
_space_group_IT_number       1

loop_
  _space_group_symop_operation_xyz
  'x, y, z'

loop_
  _atom_site_type_symbol
  _atom_site_label
  _atom_site_symmetry_multiplicity
  _atom_site_fract_x
  _atom_site_fract_y
  _atom_site_fract_z
  _atom_site_occupancy
  U   U1        1.0  0.03126  0.14317  0.74444  1.0000
  U   U2        1.0  0.96873  0.85682  0.25556  1.0000
  H   H1        1.0  0.45150  0.17299  0.13010  1.0000
  H   H2        1.0  0.54850  0.82701  0.86990  1.0000
  H   H3        1.0  0.53213  0.41369  0.15401  1.0000
  H   H4        1.0  0.46787  0.58631  0.84599  1.0000
  H   H5        1.0  0.68912  0.15108  0.97103  1.0000
  H   H6        1.0  0.31088  0.84892  0.02897  1.0000
  H   H7        1.0  0.78617  0.39605  0.01091  1.0000
  H   H8        1.0  0.21383  0.60395  0.98909  1.0000
  H   H9        1.0  0.84780  0.19069  0.18167  1.0000
  H   H10       1.0  0.15220  0.80931  0.81833  1.0000
  H   H11       1.0  0.11271  0.35119  0.35316  1.0000
  H   H12       1.0  0.88730  0.64881  0.64684  1.0000
  H   H13       1.0  0.24829  0.64030  0.59315  1.0000
  H   H14       1.0  0.75171  0.35970  0.40685  1.0000
  H   H15       1.0  0.47517  0.83588  0.60429  1.0000
  H   H16       1.0  0.52483  0.16413  0.39571  1.0000
  H   H17       1.0  0.40311  0.72506  0.35825  1.0000
  H   H18       1.0  0.59690  0.27494  0.64175  1.0000
  H   H19       1.0  0.47613  0.58281  0.42840  1.0000
  H   H20       1.0  0.52387  0.41719  0.57160  1.0000
  C   C1        1.0  0.33787  0.22524  0.96893  1.0000
  C   C2        1.0  0.66214  0.77476  0.03107  1.0000
  C   C3        1.0  0.50932  0.27850  0.08437  1.0000
  C   C4        1.0  0.49069  0.72151  0.91562  1.0000
  C   C5        1.0  0.71814  0.28261  0.04758  1.0000
  C   C6        1.0  0.28187  0.71739  0.95242  1.0000
  C   C7        1.0  0.03674  0.46722  0.22721  1.0000
  C   C8        1.0  0.96326  0.53278  0.77279  1.0000
  C   C9        1.0  0.31839  0.73493  0.54186  1.0000
  C   C10       1.0  0.68161  0.26508  0.45814  1.0000
  C   C11       1.0  0.19064  0.84944  0.53410  1.0000
  C   C12       1.0  0.80936  0.15056  0.46590  1.0000
  C   C13       1.0  0.34999  0.63096  0.41206  1.0000
  C   C14       1.0  0.65001  0.36903  0.58794  1.0000
  N   N1        1.0  0.87183  0.30646  0.15729  1.0000
  N   N2        1.0  0.12817  0.69354  0.84272  1.0000
  N   N3        1.0  0.15980  0.47033  0.33109  1.0000
  N   N4        1.0  0.84020  0.52967  0.66891  1.0000
  O   O1        1.0  0.21931  0.31490  0.96956  1.0000
  O   O2        1.0  0.78068  0.68509  0.03044  1.0000
  O   O3        1.0  0.30670  0.08773  0.86574  1.0000
  O   O4        1.0  0.69331  0.91228  0.13426  1.0000
  O   O5        1.0  0.23565  0.29564  0.69032  1.0000
  O   O6        1.0  0.76434  0.70436  0.30969  1.0000
  O   O7        1.0  0.82074  0.98097  0.78948  1.0000
  O   O8        1.0  0.17924  0.01901  0.21051  1.0000
  O   O9        1.0  0.07819  0.61505  0.19730  1.0000
  O   O10       1.0  0.92182  0.38495  0.80271  1.0000
  O   O11       1.0  0.07895  0.87183  0.61693  1.0000
  O   O12       1.0  0.92103  0.12816  0.38306  1.0000
  O   O13       1.0  0.20355  0.92431  0.44768  1.0000
  O   O14       1.0  0.79644  0.07569  0.55232  1.0000
