data_image0
_chemical_formula_structural       Cu4H24C16Br4N4O4
_chemical_formula_sum              "Cu4 H24 C16 Br4 N4 O4"
_cell_length_a       6.28762
_cell_length_b       8.52523
_cell_length_c       13.0707
_cell_angle_alpha    81.6646
_cell_angle_beta     76.1273
_cell_angle_gamma    68.3605

_space_group_name_H-M_alt    "P 1"
_space_group_IT_number       1

loop_
  _space_group_symop_operation_xyz
  'x, y, z'

loop_
  _atom_site_type_symbol
  _atom_site_label
  _atom_site_symmetry_multiplicity
  _atom_site_fract_x
  _atom_site_fract_y
  _atom_site_fract_z
  _atom_site_occupancy
  Cu  Cu1       1.0  0.37919  0.83341  0.82387  1.0000
  Cu  Cu2       1.0  0.03642  0.66654  0.67606  1.0000
  Cu  Cu3       1.0  0.62085  0.16657  0.17613  1.0000
  Cu  Cu4       1.0  0.96359  0.33347  0.32394  1.0000
  H   H1        1.0  0.13156  0.15762  0.93396  1.0000
  H   H2        1.0  0.22275  0.34245  0.56609  1.0000
  H   H3        1.0  0.86846  0.84239  0.06604  1.0000
  H   H4        1.0  0.77722  0.65755  0.43391  1.0000
  H   H5        1.0  0.93589  0.13529  0.86397  1.0000
  H   H6        1.0  0.93474  0.36511  0.63602  1.0000
  H   H7        1.0  0.06412  0.86471  0.13605  1.0000
  H   H8        1.0  0.06523  0.63489  0.36399  1.0000
  H   H9        1.0  0.61860  0.08032  0.70855  1.0000
  H   H10       1.0  0.40783  0.41968  0.79145  1.0000
  H   H11       1.0  0.38140  0.91968  0.29144  1.0000
  H   H12       1.0  0.59217  0.58032  0.20855  1.0000
  H   H13       1.0  0.52542  0.12798  0.84288  1.0000
  H   H14       1.0  0.49623  0.37196  0.65712  1.0000
  H   H15       1.0  0.47460  0.87202  0.15711  1.0000
  H   H16       1.0  0.50377  0.62804  0.34288  1.0000
  H   H17       1.0  0.81582  0.42918  0.81796  1.0000
  H   H18       1.0  0.06200  0.07126  0.68222  1.0000
  H   H19       1.0  0.18419  0.57082  0.18205  1.0000
  H   H20       1.0  0.93799  0.92873  0.31779  1.0000
  H   H21       1.0  0.01939  0.44783  0.88481  1.0000
  H   H22       1.0  0.35092  0.05220  0.61525  1.0000
  H   H23       1.0  0.98062  0.55216  0.11519  1.0000
  H   H24       1.0  0.64905  0.94780  0.38475  1.0000
  C   C1        1.0  0.47977  0.73819  0.94293  1.0000
  C   C2        1.0  0.16012  0.76190  0.55699  1.0000
  C   C3        1.0  0.52023  0.26175  0.05708  1.0000
  C   C4        1.0  0.83987  0.23811  0.44300  1.0000
  C   C5        1.0  0.07655  0.18527  0.85772  1.0000
  C   C6        1.0  0.11917  0.31494  0.64230  1.0000
  C   C7        1.0  0.92345  0.81472  0.14229  1.0000
  C   C8        1.0  0.88081  0.68506  0.35770  1.0000
  C   C9        1.0  0.47139  0.15428  0.76662  1.0000
  C   C10       1.0  0.39235  0.34577  0.73339  1.0000
  C   C11       1.0  0.52861  0.84572  0.23338  1.0000
  C   C12       1.0  0.60764  0.65423  0.26661  1.0000
  C   C13       1.0  0.99904  0.37693  0.82637  1.0000
  C   C14       1.0  0.20159  0.12327  0.67369  1.0000
  C   C15       1.0  0.00097  0.62307  0.17363  1.0000
  C   C16       1.0  0.79841  0.87673  0.32631  1.0000
  Br  Br1       1.0  0.62885  0.70747  0.65927  1.0000
  Br  Br2       1.0  0.99603  0.79223  0.84072  1.0000
  Br  Br3       1.0  0.37116  0.29251  0.34073  1.0000
  Br  Br4       1.0  0.00396  0.20785  0.15926  1.0000
  N   N1        1.0  0.27644  0.08993  0.77686  1.0000
  N   N2        1.0  0.14326  0.41021  0.72316  1.0000
  N   N3        1.0  0.72357  0.91006  0.22314  1.0000
  N   N4        1.0  0.85674  0.58979  0.27684  1.0000
  O   O1        1.0  0.52854  0.66734  0.02133  1.0000
  O   O2        1.0  0.21617  0.83269  0.47855  1.0000
  O   O3        1.0  0.47148  0.33267  0.97868  1.0000
  O   O4        1.0  0.78382  0.16731  0.52144  1.0000
