data_image0
_chemical_formula_structural       Cd4H16C32O16
_chemical_formula_sum              "Cd4 H16 C32 O16"
_cell_length_a       7.04126
_cell_length_b       8.34092
_cell_length_c       13.7743
_cell_angle_alpha    106.681
_cell_angle_beta     89.9997
_cell_angle_gamma    90

_space_group_name_H-M_alt    "P 1"
_space_group_IT_number       1

loop_
  _space_group_symop_operation_xyz
  'x, y, z'

loop_
  _atom_site_type_symbol
  _atom_site_label
  _atom_site_symmetry_multiplicity
  _atom_site_fract_x
  _atom_site_fract_y
  _atom_site_fract_z
  _atom_site_occupancy
  Cd  Cd1       1.0  0.39125  0.21381  0.07611  1.0000
  Cd  Cd2       1.0  0.10875  0.71381  0.07611  1.0000
  Cd  Cd3       1.0  0.60875  0.78619  0.92389  1.0000
  Cd  Cd4       1.0  0.89125  0.28619  0.92389  1.0000
  H   H1        1.0  0.15322  0.19610  0.38508  1.0000
  H   H2        1.0  0.34678  0.69609  0.38508  1.0000
  H   H3        1.0  0.84678  0.80390  0.61492  1.0000
  H   H4        1.0  0.65321  0.30390  0.61492  1.0000
  H   H5        1.0  0.51631  0.94811  0.28751  1.0000
  H   H6        1.0  0.98370  0.44811  0.28750  1.0000
  H   H7        1.0  0.48369  0.05189  0.71249  1.0000
  H   H8        1.0  0.01631  0.55189  0.71250  1.0000
  H   H9        1.0  0.92943  0.16811  0.51923  1.0000
  H   H10       1.0  0.57057  0.66811  0.51923  1.0000
  H   H11       1.0  0.07057  0.83190  0.48077  1.0000
  H   H12       1.0  0.42943  0.33189  0.48077  1.0000
  H   H13       1.0  0.60676  0.04719  0.46948  1.0000
  H   H14       1.0  0.89325  0.54720  0.46947  1.0000
  H   H15       1.0  0.39324  0.95281  0.53052  1.0000
  H   H16       1.0  0.10676  0.45280  0.53052  1.0000
  C   C1        1.0  0.11330  0.10706  0.18866  1.0000
  C   C2        1.0  0.38670  0.60706  0.18866  1.0000
  C   C3        1.0  0.88670  0.89294  0.81134  1.0000
  C   C4        1.0  0.61330  0.39294  0.81134  1.0000
  C   C5        1.0  0.96852  0.07806  0.26175  1.0000
  C   C6        1.0  0.53148  0.57805  0.26175  1.0000
  C   C7        1.0  0.03147  0.92194  0.73825  1.0000
  C   C8        1.0  0.46852  0.42194  0.73825  1.0000
  C   C9        1.0  0.78800  0.00544  0.23372  1.0000
  C   C10       1.0  0.71200  0.50544  0.23372  1.0000
  C   C11       1.0  0.21200  0.99456  0.76628  1.0000
  C   C12       1.0  0.28800  0.49456  0.76628  1.0000
  C   C13       1.0  0.01452  0.13821  0.36499  1.0000
  C   C14       1.0  0.48548  0.63820  0.36499  1.0000
  C   C15       1.0  0.98548  0.86179  0.63501  1.0000
  C   C16       1.0  0.51452  0.36180  0.63501  1.0000
  C   C17       1.0  0.65715  0.00045  0.30978  1.0000
  C   C18       1.0  0.84285  0.50046  0.30978  1.0000
  C   C19       1.0  0.34285  0.99955  0.69022  1.0000
  C   C20       1.0  0.15715  0.49955  0.69022  1.0000
  C   C21       1.0  0.88780  0.12490  0.43969  1.0000
  C   C22       1.0  0.61220  0.62489  0.43969  1.0000
  C   C23       1.0  0.11220  0.87511  0.56031  1.0000
  C   C24       1.0  0.38780  0.37511  0.56031  1.0000
  C   C25       1.0  0.70807  0.05666  0.41163  1.0000
  C   C26       1.0  0.79193  0.55666  0.41162  1.0000
  C   C27       1.0  0.29193  0.94334  0.58838  1.0000
  C   C28       1.0  0.20807  0.44334  0.58838  1.0000
  C   C29       1.0  0.71978  0.92923  0.12725  1.0000
  C   C30       1.0  0.78022  0.42923  0.12724  1.0000
  C   C31       1.0  0.28022  0.07077  0.87276  1.0000
  C   C32       1.0  0.21978  0.57077  0.87276  1.0000
  O   O1        1.0  0.20941  0.24256  0.21744  1.0000
  O   O2        1.0  0.29060  0.74256  0.21744  1.0000
  O   O3        1.0  0.79059  0.75744  0.78256  1.0000
  O   O4        1.0  0.70940  0.25744  0.78256  1.0000
  O   O5        1.0  0.13885  0.00247  0.10185  1.0000
  O   O6        1.0  0.36115  0.50247  0.10185  1.0000
  O   O7        1.0  0.86115  0.99753  0.89815  1.0000
  O   O8        1.0  0.63885  0.49753  0.89815  1.0000
  O   O9        1.0  0.80498  0.80207  0.06853  1.0000
  O   O10       1.0  0.69502  0.30208  0.06853  1.0000
  O   O11       1.0  0.19501  0.19793  0.93147  1.0000
  O   O12       1.0  0.30498  0.69792  0.93147  1.0000
  O   O13       1.0  0.56721  0.98014  0.09732  1.0000
  O   O14       1.0  0.93280  0.48014  0.09731  1.0000
  O   O15       1.0  0.43279  0.01986  0.90269  1.0000
  O   O16       1.0  0.06720  0.51986  0.90269  1.0000
