data_image0
_chemical_formula_structural       K2H10C14S2N8
_chemical_formula_sum              "K2 H10 C14 S2 N8"
_cell_length_a       6.3185
_cell_length_b       7.04352
_cell_length_c       11.2466
_cell_angle_alpha    100.544
_cell_angle_beta     102.485
_cell_angle_gamma    112.165

_space_group_name_H-M_alt    "P 1"
_space_group_IT_number       1

loop_
  _space_group_symop_operation_xyz
  'x, y, z'

loop_
  _atom_site_type_symbol
  _atom_site_label
  _atom_site_symmetry_multiplicity
  _atom_site_fract_x
  _atom_site_fract_y
  _atom_site_fract_z
  _atom_site_occupancy
  K   K1        1.0  0.77497  0.93957  0.09734  1.0000
  K   K2        1.0  0.22505  0.06046  0.90267  1.0000
  H   H1        1.0  0.61240  0.17842  0.55280  1.0000
  H   H2        1.0  0.38762  0.82162  0.44722  1.0000
  H   H3        1.0  0.76198  0.09916  0.37327  1.0000
  H   H4        1.0  0.23799  0.90083  0.62674  1.0000
  H   H5        1.0  0.20664  0.23807  0.40883  1.0000
  H   H6        1.0  0.79332  0.76188  0.59115  1.0000
  H   H7        1.0  0.49362  0.47026  0.62369  1.0000
  H   H8        1.0  0.50636  0.52968  0.37630  1.0000
  H   H9        1.0  0.33868  0.54971  0.80404  1.0000
  H   H10       1.0  0.66135  0.45029  0.19596  1.0000
  C   C1        1.0  0.73988  0.27199  0.84319  1.0000
  C   C2        1.0  0.26015  0.72803  0.15682  1.0000
  C   C3        1.0  0.96757  0.36557  0.68761  1.0000
  C   C4        1.0  0.03242  0.63444  0.31238  1.0000
  C   C5        1.0  0.80490  0.23871  0.56733  1.0000
  C   C6        1.0  0.19510  0.76128  0.43267  1.0000
  C   C7        1.0  0.89190  0.19448  0.46719  1.0000
  C   C8        1.0  0.10805  0.80548  0.53281  1.0000
  C   C9        1.0  0.13962  0.27573  0.48741  1.0000
  C   C10       1.0  0.86033  0.72421  0.51257  1.0000
  C   C11       1.0  0.30044  0.40357  0.60811  1.0000
  C   C12       1.0  0.69953  0.59639  0.39187  1.0000
  C   C13       1.0  0.21563  0.44952  0.70952  1.0000
  C   C14       1.0  0.78436  0.55047  0.29047  1.0000
  S   S1        1.0  0.66438  0.00508  0.81123  1.0000
  S   S2        1.0  0.33563  0.99495  0.18878  1.0000
  N   N1        1.0  0.87436  0.41141  0.78823  1.0000
  N   N2        1.0  0.12567  0.58861  0.21178  1.0000
  N   N3        1.0  0.89893  0.61194  0.83986  1.0000
  N   N4        1.0  0.10112  0.38810  0.16015  1.0000
  N   N5        1.0  0.78243  0.59463  0.92257  1.0000
  N   N6        1.0  0.21761  0.40540  0.07744  1.0000
  N   N7        1.0  0.68253  0.39137  0.92810  1.0000
  N   N8        1.0  0.31750  0.60866  0.07191  1.0000
