data_image0
_chemical_formula_structural       Cs4H20C28S4N16
_chemical_formula_sum              "Cs4 H20 C28 S4 N16"
_cell_length_a       6.72989
_cell_length_b       7.22545
_cell_length_c       21.5356
_cell_angle_alpha    90.0022
_cell_angle_beta     89.9984
_cell_angle_gamma    109.378

_space_group_name_H-M_alt    "P 1"
_space_group_IT_number       1

loop_
  _space_group_symop_operation_xyz
  'x, y, z'

loop_
  _atom_site_type_symbol
  _atom_site_label
  _atom_site_symmetry_multiplicity
  _atom_site_fract_x
  _atom_site_fract_y
  _atom_site_fract_z
  _atom_site_occupancy
  Cs  Cs1       1.0  0.21927  0.40742  0.55063  1.0000
  Cs  Cs2       1.0  0.78072  0.09258  0.05063  1.0000
  Cs  Cs3       1.0  0.78069  0.59255  0.44937  1.0000
  Cs  Cs4       1.0  0.21928  0.90743  0.94937  1.0000
  H   H1        1.0  0.62142  0.09592  0.72614  1.0000
  H   H2        1.0  0.37855  0.40409  0.22613  1.0000
  H   H3        1.0  0.37858  0.90411  0.27385  1.0000
  H   H4        1.0  0.62148  0.59592  0.77386  1.0000
  H   H5        1.0  0.36632  0.05724  0.81238  1.0000
  H   H6        1.0  0.63367  0.44278  0.31237  1.0000
  H   H7        1.0  0.63372  0.94282  0.18763  1.0000
  H   H8        1.0  0.36642  0.55725  0.68762  1.0000
  H   H9        1.0  0.97807  0.91730  0.79176  1.0000
  H   H10       1.0  0.02190  0.58271  0.29174  1.0000
  H   H11       1.0  0.02195  0.08273  0.20826  1.0000
  H   H12       1.0  0.97819  0.41733  0.70823  1.0000
  H   H13       1.0  0.85130  0.81483  0.68413  1.0000
  H   H14       1.0  0.14868  0.68517  0.18413  1.0000
  H   H15       1.0  0.14869  0.18515  0.31589  1.0000
  H   H16       1.0  0.85134  0.31483  0.81585  1.0000
  H   H17       1.0  0.10906  0.85986  0.59757  1.0000
  H   H18       1.0  0.89093  0.64014  0.09755  1.0000
  H   H19       1.0  0.89088  0.14008  0.40245  1.0000
  H   H20       1.0  0.10906  0.35985  0.90243  1.0000
  C   C1        1.0  0.37854  0.98104  0.65748  1.0000
  C   C2        1.0  0.62144  0.51897  0.15748  1.0000
  C   C3        1.0  0.62142  0.01892  0.34252  1.0000
  C   C4        1.0  0.37858  0.48106  0.84252  1.0000
  C   C5        1.0  0.45244  0.03683  0.71754  1.0000
  C   C6        1.0  0.54753  0.46318  0.21753  1.0000
  C   C7        1.0  0.54755  0.96319  0.28246  1.0000
  C   C8        1.0  0.45251  0.53684  0.78246  1.0000
  C   C9        1.0  0.30746  0.01379  0.76559  1.0000
  C   C10       1.0  0.69253  0.48621  0.26558  1.0000
  C   C11       1.0  0.69255  0.98624  0.23442  1.0000
  C   C12       1.0  0.30754  0.51381  0.73441  1.0000
  C   C13       1.0  0.09123  0.93491  0.75394  1.0000
  C   C14       1.0  0.90873  0.56510  0.25392  1.0000
  C   C15       1.0  0.90877  0.06513  0.24608  1.0000
  C   C16       1.0  0.09133  0.43493  0.74605  1.0000
  C   C17       1.0  0.01950  0.87877  0.69363  1.0000
  C   C18       1.0  0.98049  0.62122  0.19362  1.0000
  C   C19       1.0  0.98048  0.12120  0.30639  1.0000
  C   C20       1.0  0.01955  0.37880  0.80636  1.0000
  C   C21       1.0  0.16271  0.90214  0.64492  1.0000
  C   C22       1.0  0.83726  0.59785  0.14491  1.0000
  C   C23       1.0  0.83725  0.09783  0.35510  1.0000
  C   C24       1.0  0.16275  0.40216  0.85508  1.0000
  C   C25       1.0  0.67117  0.16725  0.58391  1.0000
  C   C26       1.0  0.32880  0.33276  0.08391  1.0000
  C   C27       1.0  0.32878  0.83270  0.41609  1.0000
  C   C28       1.0  0.67119  0.66727  0.91610  1.0000
  S   S1        1.0  0.71629  0.40279  0.60677  1.0000
  S   S2        1.0  0.28372  0.09722  0.10676  1.0000
  S   S3        1.0  0.28367  0.59716  0.39323  1.0000
  S   S4        1.0  0.71630  0.90280  0.89324  1.0000
  N   N1        1.0  0.52602  0.00104  0.60838  1.0000
  N   N2        1.0  0.47395  0.49896  0.10837  1.0000
  N   N3        1.0  0.47394  0.99891  0.39163  1.0000
  N   N4        1.0  0.52604  0.50106  0.89163  1.0000
  N   N5        1.0  0.53803  0.84056  0.57746  1.0000
  N   N6        1.0  0.46193  0.65944  0.07746  1.0000
  N   N7        1.0  0.46191  0.15940  0.42254  1.0000
  N   N8        1.0  0.53806  0.34058  0.92255  1.0000
  N   N9        1.0  0.68459  0.90624  0.53592  1.0000
  N   N10       1.0  0.31537  0.59376  0.03592  1.0000
  N   N11       1.0  0.31536  0.09372  0.46408  1.0000
  N   N12       1.0  0.68462  0.40627  0.96409  1.0000
  N   N13       1.0  0.76968  0.10349  0.53778  1.0000
  N   N14       1.0  0.23028  0.39651  0.03778  1.0000
  N   N15       1.0  0.23027  0.89645  0.46222  1.0000
  N   N16       1.0  0.76971  0.60352  0.96223  1.0000
