data_image0
_chemical_formula_structural       Na2Ag2H16C28S4N4O12
_chemical_formula_sum              "Na2 Ag2 H16 C28 S4 N4 O12"
_cell_length_a       8.15313
_cell_length_b       8.8859
_cell_length_c       11.1798
_cell_angle_alpha    100.193
_cell_angle_beta     99.3858
_cell_angle_gamma    91.769

_space_group_name_H-M_alt    "P 1"
_space_group_IT_number       1

loop_
  _space_group_symop_operation_xyz
  'x, y, z'

loop_
  _atom_site_type_symbol
  _atom_site_label
  _atom_site_symmetry_multiplicity
  _atom_site_fract_x
  _atom_site_fract_y
  _atom_site_fract_z
  _atom_site_occupancy
  Na  Na1       1.0  0.26588  0.70672  0.09799  1.0000
  Na  Na2       1.0  0.73411  0.29328  0.90201  1.0000
  Ag  Ag1       1.0  0.27427  0.29927  0.02016  1.0000
  Ag  Ag2       1.0  0.72574  0.70074  0.97984  1.0000
  H   H1        1.0  0.52969  0.88894  0.44119  1.0000
  H   H2        1.0  0.47030  0.11105  0.55881  1.0000
  H   H3        1.0  0.82044  0.81787  0.45847  1.0000
  H   H4        1.0  0.17956  0.18212  0.54154  1.0000
  H   H5        1.0  0.00050  0.88466  0.31090  1.0000
  H   H6        1.0  0.99950  0.11533  0.68910  1.0000
  H   H7        1.0  0.88882  0.03158  0.14882  1.0000
  H   H8        1.0  0.11117  0.96842  0.85118  1.0000
  H   H9        1.0  0.91963  0.68972  0.62480  1.0000
  H   H10       1.0  0.08036  0.31027  0.37520  1.0000
  H   H11       1.0  0.07283  0.74768  0.45851  1.0000
  H   H12       1.0  0.92717  0.25232  0.54149  1.0000
  H   H13       1.0  0.35903  0.67339  0.45374  1.0000
  H   H14       1.0  0.64097  0.32662  0.54627  1.0000
  H   H15       1.0  0.50729  0.54008  0.61669  1.0000
  H   H16       1.0  0.49272  0.45995  0.38331  1.0000
  C   C1        1.0  0.54913  0.00479  0.28754  1.0000
  C   C2        1.0  0.45087  0.99520  0.71246  1.0000
  C   C3        1.0  0.60697  0.92190  0.37827  1.0000
  C   C4        1.0  0.39302  0.07808  0.62173  1.0000
  C   C5        1.0  0.77223  0.88061  0.38635  1.0000
  C   C6        1.0  0.22777  0.11937  0.61365  1.0000
  C   C7        1.0  0.87279  0.91876  0.30464  1.0000
  C   C8        1.0  0.12721  0.08123  0.69536  1.0000
  C   C9        1.0  0.81106  0.00005  0.21224  1.0000
  C   C10       1.0  0.18894  0.99993  0.78777  1.0000
  C   C11       1.0  0.64769  0.04357  0.20530  1.0000
  C   C12       1.0  0.35230  0.95642  0.79470  1.0000
  C   C13       1.0  0.55681  0.13371  0.11836  1.0000
  C   C14       1.0  0.44319  0.86628  0.88164  1.0000
  C   C15       1.0  0.12965  0.57674  0.70661  1.0000
  C   C16       1.0  0.87035  0.42326  0.29339  1.0000
  C   C17       1.0  0.04601  0.65525  0.62091  1.0000
  C   C18       1.0  0.95400  0.34475  0.37908  1.0000
  C   C19       1.0  0.13273  0.68833  0.52943  1.0000
  C   C20       1.0  0.86727  0.31168  0.47057  1.0000
  C   C21       1.0  0.29585  0.64570  0.52653  1.0000
  C   C22       1.0  0.70415  0.35432  0.47347  1.0000
  C   C23       1.0  0.37845  0.56894  0.61543  1.0000
  C   C24       1.0  0.62156  0.43107  0.38457  1.0000
  C   C25       1.0  0.29277  0.53378  0.70572  1.0000
  C   C26       1.0  0.70724  0.46623  0.29428  1.0000
  C   C27       1.0  0.35491  0.45379  0.80948  1.0000
  C   C28       1.0  0.64509  0.54621  0.19052  1.0000
  S   S1        1.0  0.35064  0.07837  0.25074  1.0000
  S   S2        1.0  0.64936  0.92163  0.74926  1.0000
  S   S3        1.0  0.06134  0.51410  0.83282  1.0000
  S   S4        1.0  0.93866  0.48590  0.16718  1.0000
  N   N1        1.0  0.39774  0.15930  0.13869  1.0000
  N   N2        1.0  0.60228  0.84070  0.86131  1.0000
  N   N3        1.0  0.23525  0.43782  0.88103  1.0000
  N   N4        1.0  0.76476  0.56218  0.11896  1.0000
  O   O1        1.0  0.31312  0.19182  0.35159  1.0000
  O   O2        1.0  0.68688  0.80819  0.64841  1.0000
  O   O3        1.0  0.22473  0.95201  0.20488  1.0000
  O   O4        1.0  0.77524  0.04801  0.79512  1.0000
  O   O5        1.0  0.61781  0.18243  0.03682  1.0000
  O   O6        1.0  0.38219  0.81755  0.96319  1.0000
  O   O7        1.0  0.92199  0.40028  0.79091  1.0000
  O   O8        1.0  0.07801  0.59973  0.20909  1.0000
  O   O9        1.0  0.03214  0.64334  0.92630  1.0000
  O   O10       1.0  0.96786  0.35667  0.07369  1.0000
  O   O11       1.0  0.49736  0.40775  0.82848  1.0000
  O   O12       1.0  0.50264  0.59224  0.17151  1.0000
