data_image0
_chemical_formula_structural       Cu4H38C24I6N4O4
_chemical_formula_sum              "Cu4 H38 C24 I6 N4 O4"
_cell_length_a       8.46399
_cell_length_b       8.6934
_cell_length_c       12.9545
_cell_angle_alpha    107.822
_cell_angle_beta     91.7513
_cell_angle_gamma    96.8567

_space_group_name_H-M_alt    "P 1"
_space_group_IT_number       1

loop_
  _space_group_symop_operation_xyz
  'x, y, z'

loop_
  _atom_site_type_symbol
  _atom_site_label
  _atom_site_symmetry_multiplicity
  _atom_site_fract_x
  _atom_site_fract_y
  _atom_site_fract_z
  _atom_site_occupancy
  Cu  Cu1       1.0  0.47607  0.78240  0.66651  1.0000
  Cu  Cu2       1.0  0.52393  0.21760  0.33349  1.0000
  Cu  Cu3       1.0  0.40631  0.97456  0.57500  1.0000
  Cu  Cu4       1.0  0.59369  0.02543  0.42500  1.0000
  H   H1        1.0  0.51865  0.82787  0.89712  1.0000
  H   H2        1.0  0.48134  0.17213  0.10288  1.0000
  H   H3        1.0  0.65453  0.49710  0.61912  1.0000
  H   H4        1.0  0.34547  0.50291  0.38088  1.0000
  H   H5        1.0  0.95639  0.35022  0.84054  1.0000
  H   H6        1.0  0.04361  0.64979  0.15946  1.0000
  H   H7        1.0  0.78611  0.27056  0.62453  1.0000
  H   H8        1.0  0.21389  0.72944  0.37547  1.0000
  H   H9        1.0  0.71037  0.18808  0.72615  1.0000
  H   H10       1.0  0.28963  0.81192  0.27385  1.0000
  H   H11       1.0  0.74892  0.42889  0.93178  1.0000
  H   H12       1.0  0.25108  0.57111  0.06822  1.0000
  H   H13       1.0  0.12748  0.14532  0.75278  1.0000
  H   H14       1.0  0.87252  0.85468  0.24722  1.0000
  H   H15       1.0  0.96443  0.05972  0.65246  1.0000
  H   H16       1.0  0.03557  0.94028  0.34754  1.0000
  H   H17       1.0  0.78470  0.02386  0.79443  1.0000
  H   H18       1.0  0.21530  0.97614  0.20557  1.0000
  H   H19       1.0  0.96322  0.93995  0.80892  1.0000
  H   H20       1.0  0.03678  0.06005  0.19107  1.0000
  H   H21       1.0  0.00293  0.50051  0.69826  1.0000
  H   H22       1.0  0.99707  0.49949  0.30174  1.0000
  H   H23       1.0  0.10291  0.33199  0.63574  1.0000
  H   H24       1.0  0.89709  0.66801  0.36426  1.0000
  H   H25       1.0  0.27363  0.38964  0.81200  1.0000
  H   H26       1.0  0.72637  0.61036  0.18800  1.0000
  H   H27       1.0  0.29143  0.55399  0.75600  1.0000
  H   H28       1.0  0.70857  0.44601  0.24400  1.0000
  H   H29       1.0  0.86055  0.01598  0.00971  1.0000
  H   H30       1.0  0.13945  0.98402  0.99029  1.0000
  H   H31       1.0  0.71770  0.12751  0.97067  1.0000
  H   H32       1.0  0.28230  0.87249  0.02933  1.0000
  H   H33       1.0  0.98953  0.71781  0.86909  1.0000
  H   H34       1.0  0.01047  0.28219  0.13091  1.0000
  H   H35       1.0  0.18342  0.77559  0.83044  1.0000
  H   H36       1.0  0.81658  0.22440  0.16955  1.0000
  H   H37       1.0  0.62606  0.68131  0.01611  1.0000
  H   H38       1.0  0.37394  0.31868  0.98389  1.0000
  C   C1        1.0  0.57449  0.71812  0.86303  1.0000
  C   C2        1.0  0.42550  0.28188  0.13698  1.0000
  C   C3        1.0  0.65015  0.53409  0.70740  1.0000
  C   C4        1.0  0.34985  0.46592  0.29261  1.0000
  C   C5        1.0  0.78269  0.29268  0.71246  1.0000
  C   C6        1.0  0.21731  0.70733  0.28755  1.0000
  C   C7        1.0  0.71380  0.44500  0.76783  1.0000
  C   C8        1.0  0.28620  0.55500  0.23217  1.0000
  C   C9        1.0  0.70402  0.49589  0.88074  1.0000
  C   C10       1.0  0.29598  0.50412  0.11927  1.0000
  C   C11       1.0  0.99739  0.13188  0.73759  1.0000
  C   C12       1.0  0.00262  0.86813  0.26241  1.0000
  C   C13       1.0  0.91462  0.05440  0.81497  1.0000
  C   C14       1.0  0.08538  0.94560  0.18503  1.0000
  C   C15       1.0  0.06665  0.40641  0.71401  1.0000
  C   C16       1.0  0.93334  0.59359  0.28598  1.0000
  C   C17       1.0  0.20979  0.48271  0.79420  1.0000
  C   C18       1.0  0.79022  0.51729  0.20580  1.0000
  C   C19       1.0  0.84340  0.13476  0.99956  1.0000
  C   C20       1.0  0.15660  0.86524  0.00044  1.0000
  C   C21       1.0  0.11869  0.73461  0.89208  1.0000
  C   C22       1.0  0.88131  0.26539  0.10792  1.0000
  C   C23       1.0  0.63511  0.63575  0.92854  1.0000
  C   C24       1.0  0.36490  0.36423  0.07146  1.0000
  I   I1        1.0  0.18354  0.71426  0.57606  1.0000
  I   I2        1.0  0.81646  0.28574  0.42394  1.0000
  I   I3        1.0  0.67442  0.82144  0.51372  1.0000
  I   I4        1.0  0.32558  0.17857  0.48628  1.0000
  I   I5        1.0  0.43772  0.08179  0.80128  1.0000
  I   I6        1.0  0.56228  0.91821  0.19872  1.0000
  N   N1        1.0  0.57966  0.66795  0.75364  1.0000
  N   N2        1.0  0.42033  0.33204  0.24635  1.0000
  N   N3        1.0  0.95102  0.29947  0.75654  1.0000
  N   N4        1.0  0.04898  0.70053  0.24346  1.0000
  O   O1        1.0  0.94677  0.17020  0.92148  1.0000
  O   O2        1.0  0.05324  0.82979  0.07852  1.0000
  O   O3        1.0  0.16652  0.58311  0.89663  1.0000
  O   O4        1.0  0.83348  0.41689  0.10337  1.0000
