data_image0
_chemical_formula_structural       Zn2H8C10N2O6
_chemical_formula_sum              "Zn2 H8 C10 N2 O6"
_cell_length_a       4.99572
_cell_length_b       5.00737
_cell_length_c       12.0467
_cell_angle_alpha    95.4739
_cell_angle_beta     97.1072
_cell_angle_gamma    105.863

_space_group_name_H-M_alt    "P 1"
_space_group_IT_number       1

loop_
  _space_group_symop_operation_xyz
  'x, y, z'

loop_
  _atom_site_type_symbol
  _atom_site_label
  _atom_site_symmetry_multiplicity
  _atom_site_fract_x
  _atom_site_fract_y
  _atom_site_fract_z
  _atom_site_occupancy
  Zn  Zn1       1.0  0.67918  0.90367  0.46010  1.0000
  Zn  Zn2       1.0  0.19758  0.41928  0.51290  1.0000
  H   H1        1.0  0.82131  0.53317  0.27995  1.0000
  H   H2        1.0  0.50677  0.21850  0.69575  1.0000
  H   H3        1.0  0.71958  0.40419  0.07148  1.0000
  H   H4        1.0  0.61788  0.29837  0.90318  1.0000
  H   H5        1.0  0.16302  0.93261  0.06400  1.0000
  H   H6        1.0  0.09369  0.86382  0.89473  1.0000
  H   H7        1.0  0.29208  0.03823  0.27297  1.0000
  H   H8        1.0  0.01735  0.75482  0.68775  1.0000
  C   C1        1.0  0.67940  0.61824  0.22743  1.0000
  C   C2        1.0  0.42225  0.35839  0.74508  1.0000
  C   C3        1.0  0.61792  0.54615  0.11103  1.0000
  C   C4        1.0  0.48076  0.40712  0.86207  1.0000
  C   C5        1.0  0.43088  0.65785  0.04641  1.0000
  C   C6        1.0  0.36649  0.59220  0.92211  1.0000
  C   C7        1.0  0.31177  0.83871  0.10696  1.0000
  C   C8        1.0  0.19258  0.71663  0.85746  1.0000
  C   C9        1.0  0.38297  0.90135  0.22352  1.0000
  C   C10       1.0  0.14579  0.65922  0.74052  1.0000
  N   N1        1.0  0.56555  0.79460  0.28332  1.0000
  N   N2        1.0  0.25827  0.48249  0.68525  1.0000
  O   O1        1.0  0.75941  0.97722  0.76518  1.0000
  O   O2        1.0  0.77278  0.33597  0.44797  1.0000
  O   O3        1.0  0.11085  0.99990  0.44784  1.0000
  O   O4        1.0  0.63724  0.51168  0.51002  1.0000
  O   O5        1.0  0.28939  0.85865  0.50869  1.0000
  O   O6        1.0  0.80297  0.04126  0.66633  1.0000
