data_image0
_chemical_formula_structural       Mn2P4H36C36N4O12
_chemical_formula_sum              "Mn2 P4 H36 C36 N4 O12"
_cell_length_a       7.6613
_cell_length_b       10.8248
_cell_length_c       10.9886
_cell_angle_alpha    96.4332
_cell_angle_beta     91.5867
_cell_angle_gamma    94.8587

_space_group_name_H-M_alt    "P 1"
_space_group_IT_number       1

loop_
  _space_group_symop_operation_xyz
  'x, y, z'

loop_
  _atom_site_type_symbol
  _atom_site_label
  _atom_site_symmetry_multiplicity
  _atom_site_fract_x
  _atom_site_fract_y
  _atom_site_fract_z
  _atom_site_occupancy
  Mn  Mn1       1.0  0.23954  0.96755  0.65611  1.0000
  Mn  Mn2       1.0  0.76042  0.03250  0.34394  1.0000
  P   P1        1.0  0.65877  0.14744  0.62446  1.0000
  P   P2        1.0  0.34122  0.85257  0.37554  1.0000
  P   P3        1.0  0.85720  0.82194  0.54012  1.0000
  P   P4        1.0  0.14284  0.17805  0.45991  1.0000
  H   H1        1.0  0.93943  0.12902  0.65531  1.0000
  H   H2        1.0  0.06057  0.87099  0.34469  1.0000
  H   H3        1.0  0.61334  0.90610  0.60514  1.0000
  H   H4        1.0  0.38663  0.09392  0.39486  1.0000
  H   H5        1.0  0.15112  0.23154  0.79032  1.0000
  H   H6        1.0  0.84889  0.76844  0.20964  1.0000
  H   H7        1.0  0.08804  0.32626  0.00190  1.0000
  H   H8        1.0  0.91194  0.67377  0.99805  1.0000
  H   H9        1.0  0.12717  0.19872  0.17843  1.0000
  H   H10       1.0  0.87280  0.80128  0.82155  1.0000
  H   H11       1.0  0.23379  0.99130  0.13824  1.0000
  H   H12       1.0  0.76619  0.00868  0.86171  1.0000
  H   H13       1.0  0.34535  0.83078  0.09534  1.0000
  H   H14       1.0  0.65463  0.16921  0.90462  1.0000
  H   H15       1.0  0.46316  0.62643  0.03030  1.0000
  H   H16       1.0  0.53685  0.37354  0.96964  1.0000
  H   H17       1.0  0.50504  0.56535  0.80496  1.0000
  H   H18       1.0  0.49497  0.43463  0.19494  1.0000
  H   H19       1.0  0.41318  0.70998  0.65628  1.0000
  H   H20       1.0  0.58680  0.29005  0.34367  1.0000
  H   H21       1.0  0.78486  0.62207  0.42450  1.0000
  H   H22       1.0  0.21516  0.37792  0.57559  1.0000
  H   H23       1.0  0.01069  0.65408  0.46363  1.0000
  H   H24       1.0  0.98932  0.34593  0.53642  1.0000
  H   H25       1.0  0.09069  0.66702  0.70224  1.0000
  H   H26       1.0  0.90933  0.33298  0.29781  1.0000
  H   H27       1.0  0.07447  0.52869  0.86834  1.0000
  H   H28       1.0  0.92558  0.47130  0.13171  1.0000
  H   H29       1.0  0.83391  0.35833  0.86284  1.0000
  H   H30       1.0  0.16612  0.64167  0.13720  1.0000
  H   H31       1.0  0.62968  0.46462  0.52488  1.0000
  H   H32       1.0  0.37030  0.53540  0.47517  1.0000
  H   H33       1.0  0.52089  0.27955  0.77646  1.0000
  H   H34       1.0  0.47914  0.72039  0.22356  1.0000
  H   H35       1.0  0.46487  0.30497  0.62419  1.0000
  H   H36       1.0  0.53516  0.69507  0.37586  1.0000
  C   C1        1.0  0.16975  0.18172  0.86994  1.0000
  C   C2        1.0  0.83024  0.81827  0.13004  1.0000
  C   C3        1.0  0.13379  0.23339  0.98735  1.0000
  C   C4        1.0  0.86617  0.76662  0.01262  1.0000
  C   C5        1.0  0.15712  0.16406  0.08513  1.0000
  C   C6        1.0  0.84283  0.83593  0.91483  1.0000
  C   C7        1.0  0.21774  0.04640  0.06228  1.0000
  C   C8        1.0  0.78220  0.95359  0.93767  1.0000
  C   C9        1.0  0.25231  0.00074  0.94178  1.0000
  C   C10       1.0  0.74767  0.99924  0.05818  1.0000
  C   C11       1.0  0.31821  0.87687  0.90998  1.0000
  C   C12       1.0  0.68177  0.12312  0.08998  1.0000
  C   C13       1.0  0.36203  0.80050  0.99897  1.0000
  C   C14       1.0  0.63795  0.19948  0.00098  1.0000
  C   C15       1.0  0.42790  0.68683  0.96218  1.0000
  C   C16       1.0  0.57210  0.31314  0.03777  1.0000
  C   C17       1.0  0.44949  0.65175  0.83786  1.0000
  C   C18       1.0  0.55051  0.34823  0.16207  1.0000
  C   C19       1.0  0.40032  0.73173  0.75465  1.0000
  C   C20       1.0  0.59968  0.26829  0.24530  1.0000
  C   C21       1.0  0.87878  0.65657  0.50051  1.0000
  C   C22       1.0  0.12125  0.34342  0.49956  1.0000
  C   C23       1.0  0.86054  0.57657  0.60340  1.0000
  C   C24       1.0  0.13946  0.42343  0.39667  1.0000
  C   C25       1.0  0.98505  0.59323  0.70101  1.0000
  C   C26       1.0  0.01495  0.40678  0.29906  1.0000
  C   C27       1.0  0.97412  0.51599  0.79433  1.0000
  C   C28       1.0  0.02590  0.48401  0.20572  1.0000
  C   C29       1.0  0.83879  0.42097  0.79179  1.0000
  C   C30       1.0  0.16122  0.57904  0.20825  1.0000
  C   C31       1.0  0.71246  0.40190  0.69494  1.0000
  C   C32       1.0  0.28752  0.59812  0.30512  1.0000
  C   C33       1.0  0.72501  0.48089  0.60202  1.0000
  C   C34       1.0  0.27496  0.51914  0.39804  1.0000
  C   C35       1.0  0.57471  0.29345  0.68695  1.0000
  C   C36       1.0  0.42531  0.70656  0.31309  1.0000
  N   N1        1.0  0.22691  0.06793  0.84689  1.0000
  N   N2        1.0  0.77314  0.93208  0.15308  1.0000
  N   N3        1.0  0.33581  0.84099  0.78956  1.0000
  N   N4        1.0  0.66417  0.15902  0.21039  1.0000
  O   O1        1.0  0.87794  0.88142  0.41964  1.0000
  O   O2        1.0  0.12208  0.11848  0.58033  1.0000
  O   O3        1.0  0.52784  0.03867  0.64684  1.0000
  O   O4        1.0  0.47219  0.96134  0.35314  1.0000
  O   O5        1.0  0.98176  0.87563  0.64617  1.0000
  O   O6        1.0  0.01827  0.12438  0.35386  1.0000
  O   O7        1.0  0.70950  0.15982  0.49374  1.0000
  O   O8        1.0  0.29048  0.84023  0.50625  1.0000
  O   O9        1.0  0.83187  0.13822  0.70634  1.0000
  O   O10       1.0  0.16812  0.86175  0.29364  1.0000
  O   O11       1.0  0.65986  0.82211  0.58020  1.0000
  O   O12       1.0  0.34019  0.17793  0.41982  1.0000
