data_image0
_chemical_formula_structural       Co2P4H36C36N4O12
_chemical_formula_sum              "Co2 P4 H36 C36 N4 O12"
_cell_length_a       7.74005
_cell_length_b       10.7312
_cell_length_c       10.4825
_cell_angle_alpha    95.6873
_cell_angle_beta     93.369
_cell_angle_gamma    92.473

_space_group_name_H-M_alt    "P 1"
_space_group_IT_number       1

loop_
  _space_group_symop_operation_xyz
  'x, y, z'

loop_
  _atom_site_type_symbol
  _atom_site_label
  _atom_site_symmetry_multiplicity
  _atom_site_fract_x
  _atom_site_fract_y
  _atom_site_fract_z
  _atom_site_occupancy
  Co  Co1       1.0  0.24472  0.46812  0.16866  1.0000
  Co  Co2       1.0  0.75527  0.53187  0.83133  1.0000
  P   P1        1.0  0.33152  0.35591  0.87985  1.0000
  P   P2        1.0  0.66848  0.64410  0.12014  1.0000
  P   P3        1.0  0.14584  0.66759  0.95501  1.0000
  P   P4        1.0  0.85416  0.33241  0.04499  1.0000
  H   H1        1.0  0.05436  0.38447  0.84400  1.0000
  H   H2        1.0  0.94564  0.61552  0.15600  1.0000
  H   H3        1.0  0.38971  0.58746  0.88629  1.0000
  H   H4        1.0  0.61028  0.41254  0.11371  1.0000
  H   H5        1.0  0.16539  0.73329  0.25985  1.0000
  H   H6        1.0  0.83460  0.26672  0.74015  1.0000
  H   H7        1.0  0.12021  0.84170  0.47679  1.0000
  H   H8        1.0  0.87979  0.15830  0.52322  1.0000
  H   H9        1.0  0.14357  0.71812  0.66992  1.0000
  H   H10       1.0  0.85644  0.28187  0.33008  1.0000
  H   H11       1.0  0.23284  0.49982  0.63961  1.0000
  H   H12       1.0  0.76716  0.50017  0.36038  1.0000
  H   H13       1.0  0.34245  0.32314  0.59406  1.0000
  H   H14       1.0  0.65753  0.67687  0.40593  1.0000
  H   H15       1.0  0.46192  0.11549  0.52066  1.0000
  H   H16       1.0  0.53810  0.88453  0.47935  1.0000
  H   H17       1.0  0.49615  0.06436  0.28281  1.0000
  H   H18       1.0  0.50387  0.93564  0.71721  1.0000
  H   H19       1.0  0.40120  0.21837  0.13222  1.0000
  H   H20       1.0  0.59880  0.78161  0.86778  1.0000
  H   H21       1.0  0.47556  0.21215  0.73891  1.0000
  H   H22       1.0  0.52445  0.78784  0.26110  1.0000
  H   H23       1.0  0.51728  0.19010  0.90305  1.0000
  H   H24       1.0  0.48270  0.80990  0.09696  1.0000
  H   H25       1.0  0.35738  0.02545  0.99572  1.0000
  H   H26       1.0  0.64261  0.97456  0.00428  1.0000
  H   H27       1.0  0.16470  0.14659  0.63712  1.0000
  H   H28       1.0  0.83529  0.85340  0.36288  1.0000
  H   H29       1.0  0.93143  0.97747  0.61919  1.0000
  H   H30       1.0  0.06856  0.02252  0.38080  1.0000
  H   H31       1.0  0.91271  0.83323  0.78945  1.0000
  H   H32       1.0  0.08729  0.16677  0.21055  1.0000
  H   H33       1.0  0.98544  0.83436  0.04184  1.0000
  H   H34       1.0  0.01456  0.16565  0.95817  1.0000
  H   H35       1.0  0.20778  0.86201  0.08984  1.0000
  H   H36       1.0  0.79222  0.13799  0.91016  1.0000
  C   C1        1.0  0.18154  0.68557  0.34610  1.0000
  C   C2        1.0  0.81848  0.31444  0.65390  1.0000
  C   C3        1.0  0.15482  0.74414  0.46711  1.0000
  C   C4        1.0  0.84520  0.25587  0.53289  1.0000
  C   C5        1.0  0.17006  0.67719  0.57439  1.0000
  C   C6        1.0  0.82997  0.32281  0.42561  1.0000
  C   C7        1.0  0.21967  0.55409  0.55744  1.0000
  C   C8        1.0  0.78035  0.44591  0.44254  1.0000
  C   C9        1.0  0.24887  0.50098  0.43409  1.0000
  C   C10       1.0  0.75112  0.49902  0.56590  1.0000
  C   C11       1.0  0.31113  0.37689  0.40319  1.0000
  C   C12       1.0  0.68886  0.62311  0.59680  1.0000
  C   C13       1.0  0.35733  0.29468  0.49302  1.0000
  C   C14       1.0  0.64267  0.70532  0.50698  1.0000
  C   C15       1.0  0.42337  0.18025  0.45158  1.0000
  C   C16       1.0  0.57666  0.81976  0.54842  1.0000
  C   C17       1.0  0.44124  0.15127  0.32030  1.0000
  C   C18       1.0  0.55876  0.84872  0.67971  1.0000
  C   C19       1.0  0.39129  0.23629  0.23508  1.0000
  C   C20       1.0  0.60872  0.76370  0.76492  1.0000
  C   C21       1.0  0.41412  0.20260  0.82970  1.0000
  C   C22       1.0  0.58587  0.79741  0.17030  1.0000
  C   C23       1.0  0.27902  0.09633  0.81655  1.0000
  C   C24       1.0  0.72097  0.90368  0.18345  1.0000
  C   C25       1.0  0.26538  0.01379  0.91176  1.0000
  C   C26       1.0  0.73461  0.98622  0.08825  1.0000
  C   C27       1.0  0.15837  0.08148  0.71021  1.0000
  C   C28       1.0  0.84161  0.91852  0.28980  1.0000
  C   C29       1.0  0.02687  0.98760  0.70104  1.0000
  C   C30       1.0  0.97312  0.01240  0.29895  1.0000
  C   C31       1.0  0.01440  0.90700  0.79682  1.0000
  C   C32       1.0  0.98559  0.09299  0.20318  1.0000
  C   C33       1.0  0.13387  0.91870  0.90352  1.0000
  C   C34       1.0  0.86613  0.08130  0.09648  1.0000
  C   C35       1.0  0.11666  0.83223  0.00698  1.0000
  C   C36       1.0  0.88333  0.16777  0.99302  1.0000
  N   N1        1.0  0.22364  0.56461  0.32791  1.0000
  N   N2        1.0  0.77636  0.43540  0.67208  1.0000
  N   N3        1.0  0.32724  0.34760  0.27456  1.0000
  N   N4        1.0  0.67277  0.65240  0.72544  1.0000
  O   O1        1.0  0.13407  0.59952  0.07825  1.0000
  O   O2        1.0  0.86592  0.40046  0.92175  1.0000
  O   O3        1.0  0.28434  0.35462  0.01860  1.0000
  O   O4        1.0  0.71565  0.64538  0.98140  1.0000
  O   O5        1.0  0.46022  0.45677  0.84592  1.0000
  O   O6        1.0  0.53978  0.54324  0.15408  1.0000
  O   O7        1.0  0.15649  0.36182  0.79231  1.0000
  O   O8        1.0  0.84350  0.63819  0.20768  1.0000
  O   O9        1.0  0.02066  0.62091  0.84283  1.0000
  O   O10       1.0  0.97933  0.37910  0.15718  1.0000
  O   O11       1.0  0.33927  0.67257  0.91366  1.0000
  O   O12       1.0  0.66073  0.32742  0.08634  1.0000
