data_image0
_chemical_formula_structural       Ni2P4H36C40N4O12
_chemical_formula_sum              "Ni2 P4 H36 C40 N4 O12"
_cell_length_a       7.76655
_cell_length_b       10.7125
_cell_length_c       11.5994
_cell_angle_alpha    82.9116
_cell_angle_beta     87.9904
_cell_angle_gamma    87.2757

_space_group_name_H-M_alt    "P 1"
_space_group_IT_number       1

loop_
  _space_group_symop_operation_xyz
  'x, y, z'

loop_
  _atom_site_type_symbol
  _atom_site_label
  _atom_site_symmetry_multiplicity
  _atom_site_fract_x
  _atom_site_fract_y
  _atom_site_fract_z
  _atom_site_occupancy
  Ni  Ni1       1.0  0.22446  0.52676  0.14855  1.0000
  Ni  Ni2       1.0  0.77548  0.47331  0.85141  1.0000
  P   P1        1.0  0.84343  0.66928  0.04693  1.0000
  P   P2        1.0  0.15664  0.33068  0.95302  1.0000
  P   P3        1.0  0.66520  0.35167  0.10802  1.0000
  P   P4        1.0  0.33469  0.64837  0.89198  1.0000
  H   H1        1.0  0.59453  0.58720  0.10143  1.0000
  H   H2        1.0  0.40548  0.41276  0.89864  1.0000
  H   H3        1.0  0.94067  0.37688  0.13216  1.0000
  H   H4        1.0  0.05929  0.62311  0.86774  1.0000
  H   H5        1.0  0.37967  0.78962  0.12948  1.0000
  H   H6        1.0  0.62039  0.21047  0.87059  1.0000
  H   H7        1.0  0.47438  0.92126  0.27885  1.0000
  H   H8        1.0  0.52581  0.07872  0.72128  1.0000
  H   H9        1.0  0.44041  0.84043  0.49091  1.0000
  H   H10       1.0  0.55974  0.15947  0.50921  1.0000
  H   H11       1.0  0.33889  0.65888  0.64394  1.0000
  H   H12       1.0  0.66115  0.34106  0.35609  1.0000
  H   H13       1.0  0.22339  0.44845  0.68715  1.0000
  H   H14       1.0  0.77660  0.55150  0.31285  1.0000
  H   H15       1.0  0.14010  0.24540  0.61037  1.0000
  H   H16       1.0  0.85986  0.75465  0.38965  1.0000
  H   H17       1.0  0.09386  0.13471  0.43532  1.0000
  H   H18       1.0  0.90603  0.86531  0.56472  1.0000
  H   H19       1.0  0.12932  0.25104  0.23622  1.0000
  H   H20       1.0  0.87074  0.74893  0.76379  1.0000
  H   H21       1.0  0.02254  0.83506  0.97380  1.0000
  H   H22       1.0  0.97745  0.16494  0.02617  1.0000
  H   H23       1.0  0.80900  0.86934  0.92653  1.0000
  H   H24       1.0  0.19097  0.13062  0.07348  1.0000
  H   H25       1.0  0.64493  0.02781  0.01369  1.0000
  H   H26       1.0  0.35501  0.97211  0.98631  1.0000
  H   H27       1.0  0.05653  0.82453  0.20275  1.0000
  H   H28       1.0  0.94361  0.17556  0.79720  1.0000
  H   H29       1.0  0.01196  0.96227  0.35945  1.0000
  H   H30       1.0  0.98810  0.03780  0.64050  1.0000
  H   H31       1.0  0.78347  0.13446  0.34291  1.0000
  H   H32       1.0  0.21650  0.86552  0.65708  1.0000
  H   H33       1.0  0.50506  0.21764  0.24681  1.0000
  H   H34       1.0  0.49489  0.78235  0.75312  1.0000
  H   H35       1.0  0.46803  0.19003  0.10217  1.0000
  H   H36       1.0  0.53199  0.80995  0.89775  1.0000
  C   C1        1.0  0.36804  0.75789  0.22189  1.0000
  C   C2        1.0  0.63201  0.24218  0.77817  1.0000
  C   C3        1.0  0.41863  0.83068  0.30702  1.0000
  C   C4        1.0  0.58147  0.16930  0.69306  1.0000
  C   C5        1.0  0.40098  0.78561  0.42370  1.0000
  C   C6        1.0  0.59910  0.21434  0.57638  1.0000
  C   C7        1.0  0.33353  0.66558  0.45579  1.0000
  C   C8        1.0  0.66646  0.33438  0.54424  1.0000
  C   C9        1.0  0.30894  0.60743  0.57264  1.0000
  C   C10       1.0  0.69106  0.39255  0.42739  1.0000
  C   C11       1.0  0.24682  0.48937  0.59720  1.0000
  C   C12       1.0  0.75318  0.51061  0.40283  1.0000
  C   C13       1.0  0.20929  0.41819  0.50504  1.0000
  C   C14       1.0  0.79068  0.58184  0.49496  1.0000
  C   C15       1.0  0.15691  0.29272  0.52221  1.0000
  C   C16       1.0  0.84303  0.70731  0.47781  1.0000
  C   C17       1.0  0.13147  0.23220  0.42579  1.0000
  C   C18       1.0  0.86847  0.76782  0.57422  1.0000
  C   C19       1.0  0.15205  0.29603  0.31299  1.0000
  C   C20       1.0  0.84792  0.70397  0.68703  1.0000
  C   C21       1.0  0.22885  0.47466  0.38877  1.0000
  C   C22       1.0  0.77109  0.52536  0.61125  1.0000
  C   C23       1.0  0.28900  0.59842  0.36439  1.0000
  C   C24       1.0  0.71097  0.40160  0.63563  1.0000
  C   C25       1.0  0.88609  0.83451  0.00241  1.0000
  C   C26       1.0  0.11391  0.16544  0.99758  1.0000
  C   C27       1.0  0.85413  0.91654  0.09781  1.0000
  C   C28       1.0  0.14586  0.08342  0.90218  1.0000
  C   C29       1.0  0.72451  0.01257  0.09044  1.0000
  C   C30       1.0  0.27547  0.98740  0.90956  1.0000
  C   C31       1.0  0.95715  0.89981  0.19583  1.0000
  C   C32       1.0  0.04292  0.10021  0.80414  1.0000
  C   C33       1.0  0.69729  0.09219  0.17736  1.0000
  C   C34       1.0  0.30270  0.90781  0.82261  1.0000
  C   C35       1.0  0.92990  0.97680  0.28388  1.0000
  C   C36       1.0  0.07012  0.02324  0.71608  1.0000
  C   C37       1.0  0.80084  0.07220  0.27535  1.0000
  C   C38       1.0  0.19914  0.92780  0.72461  1.0000
  C   C39       1.0  0.56903  0.20191  0.16334  1.0000
  C   C40       1.0  0.43095  0.79807  0.83660  1.0000
  N   N1        1.0  0.30475  0.64424  0.25000  1.0000
  N   N2        1.0  0.69524  0.35583  0.75004  1.0000
  N   N3        1.0  0.19758  0.41561  0.29436  1.0000
  N   N4        1.0  0.80240  0.58438  0.70566  1.0000
  O   O1        1.0  0.72171  0.34738  0.98100  1.0000
  O   O2        1.0  0.27816  0.65278  0.01897  1.0000
  O   O3        1.0  0.94771  0.61773  0.15078  1.0000
  O   O4        1.0  0.05240  0.38217  0.84908  1.0000
  O   O5        1.0  0.53790  0.45587  0.13725  1.0000
  O   O6        1.0  0.46199  0.54410  0.86285  1.0000
  O   O7        1.0  0.87514  0.60312  0.93516  1.0000
  O   O8        1.0  0.12480  0.39690  0.06473  1.0000
  O   O9        1.0  0.64329  0.67585  0.07706  1.0000
  O   O10       1.0  0.35680  0.32411  0.92298  1.0000
  O   O11       1.0  0.83438  0.35070  0.18147  1.0000
  O   O12       1.0  0.16557  0.64936  0.81847  1.0000
