data_image0
_chemical_formula_structural       Ni2P4H36C36N4O12
_chemical_formula_sum              "Ni2 P4 H36 C36 N4 O12"
_cell_length_a       8.01912
_cell_length_b       10.4067
_cell_length_c       10.7288
_cell_angle_alpha    95.5033
_cell_angle_beta     91.2335
_cell_angle_gamma    93.5093

_space_group_name_H-M_alt    "P 1"
_space_group_IT_number       1

loop_
  _space_group_symop_operation_xyz
  'x, y, z'

loop_
  _atom_site_type_symbol
  _atom_site_label
  _atom_site_symmetry_multiplicity
  _atom_site_fract_x
  _atom_site_fract_y
  _atom_site_fract_z
  _atom_site_occupancy
  Ni  Ni1       1.0  0.25827  0.33047  0.02965  1.0000
  Ni  Ni2       1.0  0.74173  0.66954  0.97037  1.0000
  P   P1        1.0  0.81263  0.37823  0.85531  1.0000
  P   P2        1.0  0.18740  0.62175  0.14466  1.0000
  P   P3        1.0  0.65841  0.45770  0.16908  1.0000
  P   P4        1.0  0.34158  0.54229  0.83091  1.0000
  H   H1        1.0  0.54215  0.34552  0.88159  1.0000
  H   H2        1.0  0.45786  0.65443  0.11835  1.0000
  H   H3        1.0  0.88948  0.39008  0.08529  1.0000
  H   H4        1.0  0.11051  0.60992  0.91470  1.0000
  H   H5        1.0  0.33068  0.23967  0.76322  1.0000
  H   H6        1.0  0.66932  0.76030  0.23679  1.0000
  H   H7        1.0  0.37256  0.02113  0.65386  1.0000
  H   H8        1.0  0.62738  0.97883  0.34617  1.0000
  H   H9        1.0  0.34843  0.82628  0.77840  1.0000
  H   H10       1.0  0.65146  0.17369  0.22161  1.0000
  H   H11       1.0  0.26175  0.85622  0.99760  1.0000
  H   H12       1.0  0.73822  0.14377  0.00243  1.0000
  H   H13       1.0  0.15271  0.90266  0.17638  1.0000
  H   H14       1.0  0.84728  0.09735  0.82365  1.0000
  H   H15       1.0  0.03733  0.97858  0.38517  1.0000
  H   H16       1.0  0.96259  0.02144  0.61483  1.0000
  H   H17       1.0  0.00685  0.21803  0.43574  1.0000
  H   H18       1.0  0.99307  0.78199  0.56423  1.0000
  H   H19       1.0  0.10492  0.36937  0.27973  1.0000
  H   H20       1.0  0.89508  0.63064  0.72027  1.0000
  H   H21       1.0  0.95897  0.24057  0.71155  1.0000
  H   H22       1.0  0.04106  0.75945  0.28843  1.0000
  H   H23       1.0  0.99921  0.40593  0.69061  1.0000
  H   H24       1.0  0.00082  0.59408  0.30940  1.0000
  H   H25       1.0  0.71200  0.59464  0.36224  1.0000
  H   H26       1.0  0.28806  0.40538  0.63770  1.0000
  H   H27       1.0  0.49730  0.54725  0.33381  1.0000
  H   H28       1.0  0.50273  0.45279  0.66620  1.0000
  H   H29       1.0  0.42180  0.29486  0.33493  1.0000
  H   H30       1.0  0.57823  0.70518  0.66507  1.0000
  H   H31       1.0  0.85182  0.49770  0.52330  1.0000
  H   H32       1.0  0.14823  0.50232  0.47670  1.0000
  H   H33       1.0  0.43822  0.12039  0.47676  1.0000
  H   H34       1.0  0.56177  0.87966  0.52325  1.0000
  H   H35       1.0  0.66083  0.13574  0.64401  1.0000
  H   H36       1.0  0.33917  0.86430  0.35600  1.0000
  C   C1        1.0  0.31441  0.15259  0.81102  1.0000
  C   C2        1.0  0.68558  0.84738  0.18898  1.0000
  C   C3        1.0  0.33906  0.03061  0.75193  1.0000
  C   C4        1.0  0.66090  0.96935  0.24808  1.0000
  C   C5        1.0  0.32350  0.92269  0.81931  1.0000
  C   C6        1.0  0.67644  0.07729  0.18070  1.0000
  C   C7        1.0  0.27608  0.93940  0.94350  1.0000
  C   C8        1.0  0.72390  0.06057  0.05652  1.0000
  C   C9        1.0  0.24899  0.06367  0.99677  1.0000
  C   C10       1.0  0.75102  0.93629  0.00324  1.0000
  C   C11       1.0  0.18903  0.09513  0.12222  1.0000
  C   C12       1.0  0.81098  0.90486  0.87781  1.0000
  C   C13       1.0  0.14138  0.00482  0.20486  1.0000
  C   C14       1.0  0.85860  0.99518  0.79517  1.0000
  C   C15       1.0  0.07697  0.04771  0.31978  1.0000
  C   C16       1.0  0.92299  0.95231  0.68022  1.0000
  C   C17       1.0  0.06151  0.18000  0.34878  1.0000
  C   C18       1.0  0.93844  0.82002  0.65122  1.0000
  C   C19       1.0  0.11310  0.26548  0.26300  1.0000
  C   C20       1.0  0.88687  0.73452  0.73702  1.0000
  C   C21       1.0  0.89902  0.33143  0.70161  1.0000
  C   C22       1.0  0.10103  0.66856  0.29837  1.0000
  C   C23       1.0  0.77263  0.31760  0.59489  1.0000
  C   C24       1.0  0.22742  0.68242  0.40510  1.0000
  C   C25       1.0  0.62378  0.51186  0.33267  1.0000
  C   C26       1.0  0.37624  0.48816  0.66732  1.0000
  C   C27       1.0  0.63627  0.40709  0.41876  1.0000
  C   C28       1.0  0.36377  0.59293  0.58124  1.0000
  C   C29       1.0  0.51940  0.30059  0.40760  1.0000
  C   C30       1.0  0.48063  0.69944  0.59240  1.0000
  C   C31       1.0  0.76189  0.41387  0.51252  1.0000
  C   C32       1.0  0.23817  0.58615  0.48749  1.0000
  C   C33       1.0  0.53053  0.20266  0.48688  1.0000
  C   C34       1.0  0.46950  0.79737  0.51312  1.0000
  C   C35       1.0  0.65624  0.21032  0.57957  1.0000
  C   C36       1.0  0.34380  0.78972  0.42043  1.0000
  N   N1        1.0  0.27354  0.16994  0.93215  1.0000
  N   N2        1.0  0.72647  0.83003  0.06785  1.0000
  N   N3        1.0  0.17584  0.22435  0.15200  1.0000
  N   N4        1.0  0.82417  0.77565  0.84802  1.0000
  O   O1        1.0  0.63667  0.58100  0.09921  1.0000
  O   O2        1.0  0.36330  0.41896  0.90078  1.0000
  O   O3        1.0  0.77544  0.52071  0.85811  1.0000
  O   O4        1.0  0.22452  0.47926  0.14188  1.0000
  O   O5        1.0  0.54511  0.34167  0.12465  1.0000
  O   O6        1.0  0.45492  0.65828  0.87537  1.0000
  O   O7        1.0  0.92997  0.33694  0.95447  1.0000
  O   O8        1.0  0.07003  0.66305  0.04553  1.0000
  O   O9        1.0  0.63949  0.29378  0.85328  1.0000
  O   O10       1.0  0.36052  0.70617  0.14669  1.0000
  O   O11       1.0  0.84978  0.42754  0.17229  1.0000
  O   O12       1.0  0.15024  0.57247  0.82770  1.0000
