data_image0
_chemical_formula_structural       Ni2P4H36C40N6O12
_chemical_formula_sum              "Ni2 P4 H36 C40 N6 O12"
_cell_length_a       10.8018
_cell_length_b       10.9423
_cell_length_c       11.2263
_cell_angle_alpha    64.0266
_cell_angle_beta     66.2473
_cell_angle_gamma    72.5397

_space_group_name_H-M_alt    "P 1"
_space_group_IT_number       1

loop_
  _space_group_symop_operation_xyz
  'x, y, z'

loop_
  _atom_site_type_symbol
  _atom_site_label
  _atom_site_symmetry_multiplicity
  _atom_site_fract_x
  _atom_site_fract_y
  _atom_site_fract_z
  _atom_site_occupancy
  Ni  Ni1       1.0  0.06804  0.02602  0.24573  1.0000
  Ni  Ni2       1.0  0.93196  0.97398  0.75427  1.0000
  P   P1        1.0  0.85681  0.67936  0.00400  1.0000
  P   P2        1.0  0.14319  0.32064  0.99599  1.0000
  P   P3        1.0  0.87957  0.84152  0.56737  1.0000
  P   P4        1.0  0.12042  0.15848  0.43263  1.0000
  H   H1        1.0  0.04651  0.54602  0.05569  1.0000
  H   H2        1.0  0.95350  0.45398  0.94431  1.0000
  H   H3        1.0  0.89640  0.65831  0.76197  1.0000
  H   H4        1.0  0.10360  0.34169  0.23803  1.0000
  H   H5        1.0  0.31531  0.84059  0.34168  1.0000
  H   H6        1.0  0.68469  0.15941  0.65833  1.0000
  H   H7        1.0  0.41542  0.59205  0.36948  1.0000
  H   H8        1.0  0.58458  0.40795  0.63053  1.0000
  H   H9        1.0  0.35480  0.48548  0.24563  1.0000
  H   H10       1.0  0.64520  0.51452  0.75437  1.0000
  H   H11       1.0  0.21209  0.63070  0.09019  1.0000
  H   H12       1.0  0.78791  0.36931  0.90981  1.0000
  H   H13       1.0  0.63575  0.20549  0.11712  1.0000
  H   H14       1.0  0.36425  0.79451  0.88288  1.0000
  H   H15       1.0  0.50229  0.31126  0.29818  1.0000
  H   H16       1.0  0.49771  0.68875  0.70182  1.0000
  H   H17       1.0  0.61584  0.30936  0.45351  1.0000
  H   H18       1.0  0.38415  0.69063  0.54650  1.0000
  H   H19       1.0  0.86117  0.19649  0.42503  1.0000
  H   H20       1.0  0.13883  0.80351  0.57497  1.0000
  H   H21       1.0  0.65171  0.79588  0.66706  1.0000
  H   H22       1.0  0.34829  0.20412  0.33293  1.0000
  H   H23       1.0  0.66611  0.95534  0.52733  1.0000
  H   H24       1.0  0.33389  0.04466  0.47267  1.0000
  H   H25       1.0  0.85661  0.60257  0.52504  1.0000
  H   H26       1.0  0.14339  0.39743  0.47496  1.0000
  H   H27       1.0  0.57542  0.95533  0.36950  1.0000
  H   H28       1.0  0.42459  0.04467  0.63049  1.0000
  H   H29       1.0  0.85778  0.50568  0.36355  1.0000
  H   H30       1.0  0.14222  0.49432  0.63644  1.0000
  H   H31       1.0  0.58002  0.86077  0.20316  1.0000
  H   H32       1.0  0.41999  0.13924  0.79683  1.0000
  H   H33       1.0  0.62700  0.64939  0.14563  1.0000
  H   H34       1.0  0.37300  0.35062  0.85436  1.0000
  H   H35       1.0  0.74604  0.50661  0.20896  1.0000
  H   H36       1.0  0.25396  0.49339  0.79104  1.0000
  C   C1        1.0  0.29927  0.78911  0.28615  1.0000
  C   C2        1.0  0.70072  0.21089  0.71386  1.0000
  C   C3        1.0  0.35318  0.65240  0.30089  1.0000
  C   C4        1.0  0.64681  0.34759  0.69912  1.0000
  C   C5        1.0  0.32128  0.59400  0.23045  1.0000
  C   C6        1.0  0.67872  0.40600  0.76955  1.0000
  C   C7        1.0  0.24206  0.67455  0.14303  1.0000
  C   C8        1.0  0.75794  0.32546  0.85697  1.0000
  C   C9        1.0  0.19500  0.81186  0.13082  1.0000
  C   C10       1.0  0.80500  0.18814  0.86919  1.0000
  C   C11       1.0  0.10010  0.90637  0.05285  1.0000
  C   C12       1.0  0.89991  0.09362  0.94715  1.0000
  C   C13       1.0  0.90934  0.08159  0.07326  1.0000
  C   C14       1.0  0.09066  0.91841  0.92674  1.0000
  C   C15       1.0  0.82074  0.15277  0.17086  1.0000
  C   C16       1.0  0.17926  0.84723  0.82914  1.0000
  C   C17       1.0  0.68376  0.20929  0.18374  1.0000
  C   C18       1.0  0.31624  0.79071  0.81626  1.0000
  C   C19       1.0  0.60939  0.26734  0.28516  1.0000
  C   C20       1.0  0.39061  0.73266  0.71484  1.0000
  C   C21       1.0  0.67222  0.26561  0.37265  1.0000
  C   C22       1.0  0.32778  0.73438  0.62736  1.0000
  C   C23       1.0  0.80820  0.20411  0.35686  1.0000
  C   C24       1.0  0.19180  0.79589  0.64314  1.0000
  C   C25       1.0  0.71288  0.84663  0.55805  1.0000
  C   C26       1.0  0.28711  0.15337  0.44195  1.0000
  C   C27       1.0  0.71401  0.78509  0.46104  1.0000
  C   C28       1.0  0.28599  0.21491  0.53895  1.0000
  C   C29       1.0  0.79271  0.65797  0.45742  1.0000
  C   C30       1.0  0.20729  0.34203  0.54257  1.0000
  C   C31       1.0  0.63678  0.85594  0.36906  1.0000
  C   C32       1.0  0.36323  0.14406  0.63094  1.0000
  C   C33       1.0  0.79308  0.60338  0.36601  1.0000
  C   C34       1.0  0.20692  0.39662  0.63399  1.0000
  C   C35       1.0  0.63790  0.80225  0.27646  1.0000
  C   C36       1.0  0.36211  0.19775  0.72354  1.0000
  C   C37       1.0  0.71560  0.67464  0.27417  1.0000
  C   C38       1.0  0.28440  0.32536  0.72583  1.0000
  C   C39       1.0  0.72312  0.61937  0.17014  1.0000
  C   C40       1.0  0.27688  0.38063  0.82985  1.0000
  N   N1        1.0  0.22033  0.86594  0.20517  1.0000
  N   N2        1.0  0.77967  0.13406  0.79484  1.0000
  N   N3        1.0  0.01067  0.99008  0.11896  1.0000
  N   N4        1.0  0.98933  0.00992  0.88104  1.0000
  N   N5        1.0  0.88064  0.14956  0.25823  1.0000
  N   N6        1.0  0.11935  0.85044  0.74177  1.0000
  O   O1        1.0  0.82141  0.83333  0.93706  1.0000
  O   O2        1.0  0.17859  0.16667  0.06294  1.0000
  O   O3        1.0  0.84993  0.93757  0.64402  1.0000
  O   O4        1.0  0.15007  0.06243  0.35598  1.0000
  O   O5        1.0  0.98480  0.86917  0.42359  1.0000
  O   O6        1.0  0.01520  0.13083  0.57641  1.0000
  O   O7        1.0  0.99359  0.64490  0.04115  1.0000
  O   O8        1.0  0.00642  0.35510  0.95884  1.0000
  O   O9        1.0  0.86833  0.59346  0.92077  1.0000
  O   O10       1.0  0.13167  0.40654  0.07923  1.0000
  O   O11       1.0  0.92620  0.68586  0.65575  1.0000
  O   O12       1.0  0.07379  0.31414  0.34425  1.0000
