data_image0
_chemical_formula_structural       CuH10C8N2O4
_chemical_formula_sum              "Cu1 H10 C8 N2 O4"
_cell_length_a       4.08468
_cell_length_b       5.9382
_cell_length_c       9.71926
_cell_angle_alpha    91.3658
_cell_angle_beta     99.6749
_cell_angle_gamma    98.9945

_space_group_name_H-M_alt    "P 1"
_space_group_IT_number       1

loop_
  _space_group_symop_operation_xyz
  'x, y, z'

loop_
  _atom_site_type_symbol
  _atom_site_label
  _atom_site_symmetry_multiplicity
  _atom_site_fract_x
  _atom_site_fract_y
  _atom_site_fract_z
  _atom_site_occupancy
  Cu  Cu1       1.0  0.50001  0.50001  1.00000  1.0000
  H   H1        1.0  0.27203  0.15613  0.12144  1.0000
  H   H2        1.0  0.72798  0.84388  0.87854  1.0000
  H   H3        1.0  0.95416  0.22361  0.00555  1.0000
  H   H4        1.0  0.04586  0.77640  0.99443  1.0000
  H   H5        1.0  0.07723  0.37436  0.15680  1.0000
  H   H6        1.0  0.92278  0.62565  0.84318  1.0000
  H   H7        1.0  0.10255  0.62084  0.42108  1.0000
  H   H8        1.0  0.89740  0.37914  0.57893  1.0000
  H   H9        1.0  0.61522  0.20818  0.34443  1.0000
  H   H10       1.0  0.38473  0.79182  0.65557  1.0000
  C   C1        1.0  0.66231  0.79495  0.22910  1.0000
  C   C2        1.0  0.33768  0.20506  0.77089  1.0000
  C   C3        1.0  0.84021  0.90240  0.36805  1.0000
  C   C4        1.0  0.15976  0.09756  0.63194  1.0000
  C   C5        1.0  0.05680  0.78631  0.45686  1.0000
  C   C6        1.0  0.94320  0.21369  0.54317  1.0000
  C   C7        1.0  0.78537  0.11767  0.41223  1.0000
  C   C8        1.0  0.21462  0.88232  0.58780  1.0000
  N   N1        1.0  0.16021  0.28991  0.07961  1.0000
  N   N2        1.0  0.83980  0.71011  0.92037  1.0000
  O   O1        1.0  0.73118  0.59715  0.19599  1.0000
  O   O2        1.0  0.26886  0.40287  0.80401  1.0000
  O   O3        1.0  0.45729  0.89418  0.15097  1.0000
  O   O4        1.0  0.54275  0.10578  0.84905  1.0000
