data_image0
_chemical_formula_structural       Sn4H44C20S4N4O8
_chemical_formula_sum              "Sn4 H44 C20 S4 N4 O8"
_cell_length_a       9.6203
_cell_length_b       10.5867
_cell_length_c       11.0057
_cell_angle_alpha    89.9997
_cell_angle_beta     90
_cell_angle_gamma    90.0001

_space_group_name_H-M_alt    "P 1"
_space_group_IT_number       1

loop_
  _space_group_symop_operation_xyz
  'x, y, z'

loop_
  _atom_site_type_symbol
  _atom_site_label
  _atom_site_symmetry_multiplicity
  _atom_site_fract_x
  _atom_site_fract_y
  _atom_site_fract_z
  _atom_site_occupancy
  Sn  Sn1       1.0  0.08872  0.05910  0.75485  1.0000
  Sn  Sn2       1.0  0.41127  0.94090  0.25485  1.0000
  Sn  Sn3       1.0  0.91128  0.55909  0.74515  1.0000
  Sn  Sn4       1.0  0.58872  0.44090  0.24516  1.0000
  H   H1        1.0  0.21599  0.28850  0.68075  1.0000
  H   H2        1.0  0.28401  0.71150  0.18075  1.0000
  H   H3        1.0  0.78401  0.78849  0.81925  1.0000
  H   H4        1.0  0.71599  0.21150  0.31925  1.0000
  H   H5        1.0  0.29208  0.17522  0.59396  1.0000
  H   H6        1.0  0.20792  0.82478  0.09396  1.0000
  H   H7        1.0  0.70792  0.67522  0.90604  1.0000
  H   H8        1.0  0.79209  0.32478  0.40604  1.0000
  H   H9        1.0  0.17571  0.28458  0.45102  1.0000
  H   H10       1.0  0.32429  0.71542  0.95102  1.0000
  H   H11       1.0  0.82429  0.78457  0.04898  1.0000
  H   H12       1.0  0.67572  0.21542  0.54898  1.0000
  H   H13       1.0  0.09460  0.06441  0.44574  1.0000
  H   H14       1.0  0.40540  0.93560  0.94574  1.0000
  H   H15       1.0  0.90540  0.56440  0.05426  1.0000
  H   H16       1.0  0.59460  0.43560  0.55427  1.0000
  H   H17       1.0  0.95832  0.16859  0.40451  1.0000
  H   H18       1.0  0.54168  0.83142  0.90451  1.0000
  H   H19       1.0  0.04168  0.66858  0.09548  1.0000
  H   H20       1.0  0.45832  0.33141  0.59549  1.0000
  H   H21       1.0  0.98085  0.24578  0.89162  1.0000
  H   H22       1.0  0.51914  0.75422  0.39163  1.0000
  H   H23       1.0  0.01914  0.74578  0.60838  1.0000
  H   H24       1.0  0.48085  0.25422  0.10838  1.0000
  H   H25       1.0  0.16493  0.25263  0.90555  1.0000
  H   H26       1.0  0.33506  0.74737  0.40555  1.0000
  H   H27       1.0  0.83506  0.75263  0.59445  1.0000
  H   H28       1.0  0.66493  0.24737  0.09445  1.0000
  H   H29       1.0  0.06920  0.13392  0.98794  1.0000
  H   H30       1.0  0.43079  0.86607  0.48795  1.0000
  H   H31       1.0  0.93080  0.63393  0.51205  1.0000
  H   H32       1.0  0.56920  0.36608  0.01206  1.0000
  H   H33       1.0  0.22654  0.88116  0.62721  1.0000
  H   H34       1.0  0.27346  0.11883  0.12721  1.0000
  H   H35       1.0  0.77346  0.38116  0.87279  1.0000
  H   H36       1.0  0.72654  0.61884  0.37279  1.0000
  H   H37       1.0  0.24060  0.84501  0.78565  1.0000
  H   H38       1.0  0.25940  0.15499  0.28565  1.0000
  H   H39       1.0  0.75940  0.34501  0.71435  1.0000
  H   H40       1.0  0.74060  0.65499  0.21434  1.0000
  H   H41       1.0  0.34992  0.96435  0.71744  1.0000
  H   H42       1.0  0.15007  0.03565  0.21744  1.0000
  H   H43       1.0  0.65007  0.46435  0.78256  1.0000
  H   H44       1.0  0.84992  0.53565  0.28255  1.0000
  C   C1        1.0  0.01864  0.36179  0.56440  1.0000
  C   C2        1.0  0.48135  0.63822  0.06441  1.0000
  C   C3        1.0  0.98136  0.86179  0.93560  1.0000
  C   C4        1.0  0.51865  0.13821  0.43560  1.0000
  C   C5        1.0  0.10958  0.24959  0.52617  1.0000
  C   C6        1.0  0.39042  0.75042  0.02617  1.0000
  C   C7        1.0  0.89042  0.74958  0.97383  1.0000
  C   C8        1.0  0.60958  0.25041  0.47383  1.0000
  C   C9        1.0  0.02420  0.13785  0.48018  1.0000
  C   C10       1.0  0.47580  0.86216  0.98018  1.0000
  C   C11       1.0  0.97581  0.63784  0.01981  1.0000
  C   C12       1.0  0.52420  0.36215  0.51982  1.0000
  C   C13       1.0  0.07502  0.18902  0.90400  1.0000
  C   C14       1.0  0.42497  0.81098  0.40401  1.0000
  C   C15       1.0  0.92497  0.68902  0.59599  1.0000
  C   C16       1.0  0.57502  0.31098  0.09600  1.0000
  C   C17       1.0  0.24673  0.92039  0.71773  1.0000
  C   C18       1.0  0.25326  0.07961  0.21773  1.0000
  C   C19       1.0  0.75326  0.42038  0.78227  1.0000
  C   C20       1.0  0.74674  0.57961  0.28227  1.0000
  S   S1        1.0  0.91039  0.07124  0.59651  1.0000
  S   S2        1.0  0.58961  0.92877  0.09651  1.0000
  S   S3        1.0  0.08961  0.57123  0.90348  1.0000
  S   S4        1.0  0.41039  0.42876  0.40350  1.0000
  N   N1        1.0  0.19909  0.21006  0.62810  1.0000
  N   N2        1.0  0.30092  0.78994  0.12810  1.0000
  N   N3        1.0  0.80092  0.71006  0.87190  1.0000
  N   N4        1.0  0.69909  0.28994  0.37190  1.0000
  O   O1        1.0  0.05655  0.41644  0.66414  1.0000
  O   O2        1.0  0.44346  0.58357  0.16413  1.0000
  O   O3        1.0  0.94345  0.91643  0.83586  1.0000
  O   O4        1.0  0.55655  0.08356  0.33587  1.0000
  O   O5        1.0  0.91912  0.39592  0.49923  1.0000
  O   O6        1.0  0.58089  0.60408  0.99922  1.0000
  O   O7        1.0  0.08088  0.89592  0.00077  1.0000
  O   O8        1.0  0.41912  0.10408  0.50077  1.0000
