data_image0
_chemical_formula_structural       Mn2Cr2H24C34N18O2
_chemical_formula_sum              "Mn2 Cr2 H24 C34 N18 O2"
_cell_length_a       7.85045
_cell_length_b       10.1049
_cell_length_c       13.4694
_cell_angle_alpha    70.125
_cell_angle_beta     79.4552
_cell_angle_gamma    73.4404

_space_group_name_H-M_alt    "P 1"
_space_group_IT_number       1

loop_
  _space_group_symop_operation_xyz
  'x, y, z'

loop_
  _atom_site_type_symbol
  _atom_site_label
  _atom_site_symmetry_multiplicity
  _atom_site_fract_x
  _atom_site_fract_y
  _atom_site_fract_z
  _atom_site_occupancy
  Mn  Mn1       1.0  0.62523  0.83170  0.49230  1.0000
  Mn  Mn2       1.0  0.37291  0.16460  0.51694  1.0000
  Cr  Cr1       1.0  0.75387  0.30541  0.72914  1.0000
  Cr  Cr2       1.0  0.24430  0.69757  0.26837  1.0000
  H   H1        1.0  0.39957  0.54974  0.75397  1.0000
  H   H2        1.0  0.59364  0.44804  0.24491  1.0000
  H   H3        1.0  0.17813  0.58921  0.90249  1.0000
  H   H4        1.0  0.81551  0.40712  0.09695  1.0000
  H   H5        1.0  0.20501  0.40564  0.08449  1.0000
  H   H6        1.0  0.79365  0.59220  0.91541  1.0000
  H   H7        1.0  0.02542  0.99328  0.78591  1.0000
  H   H8        1.0  0.97428  0.01058  0.21141  1.0000
  H   H9        1.0  0.06130  0.77701  0.94379  1.0000
  H   H10       1.0  0.93966  0.22577  0.05198  1.0000
  H   H11       1.0  0.85721  0.78077  0.11059  1.0000
  H   H12       1.0  0.14516  0.22010  0.88659  1.0000
  H   H13       1.0  0.60144  0.92935  0.20443  1.0000
  H   H14       1.0  0.40239  0.07054  0.79428  1.0000
  H   H15       1.0  0.37101  0.15624  0.19705  1.0000
  H   H16       1.0  0.63174  0.84297  0.80260  1.0000
  H   H17       1.0  0.02383  0.85124  0.56057  1.0000
  H   H18       1.0  0.98159  0.15115  0.43813  1.0000
  H   H19       1.0  0.96618  0.85544  0.69442  1.0000
  H   H20       1.0  0.03887  0.15065  0.30349  1.0000
  H   H21       1.0  0.84201  0.99075  0.59038  1.0000
  H   H22       1.0  0.15927  0.01006  0.40697  1.0000
  H   H23       1.0  0.84042  0.69028  0.67217  1.0000
  H   H24       1.0  0.17101  0.30791  0.33211  1.0000
  C   C1        1.0  0.67511  0.49639  0.62273  1.0000
  C   C2        1.0  0.32481  0.50584  0.37788  1.0000
  C   C3        1.0  0.88839  0.41942  0.77209  1.0000
  C   C4        1.0  0.10860  0.58286  0.22634  1.0000
  C   C5        1.0  0.01701  0.75728  0.35802  1.0000
  C   C6        1.0  0.97934  0.24391  0.64179  1.0000
  C   C7        1.0  0.38549  0.78023  0.33568  1.0000
  C   C8        1.0  0.61188  0.22393  0.66350  1.0000
  C   C9        1.0  0.40936  0.46964  0.83197  1.0000
  C   C10       1.0  0.58623  0.52903  0.16716  1.0000
  C   C11       1.0  0.28516  0.49124  0.91780  1.0000
  C   C12       1.0  0.71056  0.50648  0.08162  1.0000
  C   C13       1.0  0.29962  0.38928  0.01688  1.0000
  C   C14       1.0  0.69896  0.60933  0.98285  1.0000
  C   C15       1.0  0.43770  0.26111  0.02936  1.0000
  C   C16       1.0  0.56315  0.73898  0.97008  1.0000
  C   C17       1.0  0.55701  0.24734  0.93884  1.0000
  C   C18       1.0  0.44377  0.75374  0.06031  1.0000
  C   C19       1.0  0.69502  0.11915  0.94470  1.0000
  C   C20       1.0  0.30674  0.88290  0.05397  1.0000
  C   C21       1.0  0.93494  0.99377  0.85738  1.0000
  C   C22       1.0  0.06539  0.00928  0.14018  1.0000
  C   C23       1.0  0.95434  0.87159  0.94772  1.0000
  C   C24       1.0  0.04676  0.13081  0.04927  1.0000
  C   C25       1.0  0.84237  0.87458  0.03943  1.0000
  C   C26       1.0  0.15980  0.12687  0.95817  1.0000
  C   C27       1.0  0.70824  0.00180  0.03990  1.0000
  C   C28       1.0  0.29443  0.99952  0.95847  1.0000
  C   C29       1.0  0.58776  0.01840  0.13065  1.0000
  C   C30       1.0  0.41523  0.98190  0.86819  1.0000
  C   C31       1.0  0.45920  0.14393  0.12631  1.0000
  C   C32       1.0  0.54321  0.85598  0.87305  1.0000
  C   C33       1.0  0.91276  0.87667  0.61924  1.0000
  C   C34       1.0  0.09229  0.12522  0.37941  1.0000
  N   N1        1.0  0.61814  0.61559  0.56987  1.0000
  N   N2        1.0  0.37049  0.38643  0.43251  1.0000
  N   N3        1.0  0.95394  0.50254  0.78559  1.0000
  N   N4        1.0  0.04244  0.50050  0.21246  1.0000
  N   N5        1.0  0.87909  0.79156  0.40481  1.0000
  N   N6        1.0  0.11601  0.20108  0.59670  1.0000
  N   N7        1.0  0.47037  0.82244  0.37610  1.0000
  N   N8        1.0  0.52588  0.17824  0.62616  1.0000
  N   N9        1.0  0.54413  0.35152  0.84200  1.0000
  N   N10       1.0  0.45461  0.64910  0.15687  1.0000
  N   N11       1.0  0.80843  0.11548  0.85505  1.0000
  N   N12       1.0  0.19219  0.88779  0.14292  1.0000
  N   N13       1.0  0.39475  0.92625  0.58127  1.0000
  N   N14       1.0  0.60611  0.06506  0.42698  1.0000
  N   N15       1.0  0.33104  0.86419  0.66716  1.0000
  N   N16       1.0  0.66915  0.12764  0.34097  1.0000
  N   N17       1.0  0.26836  0.80578  0.75034  1.0000
  N   N18       1.0  0.73033  0.18804  0.25798  1.0000
  O   O1        1.0  0.78482  0.79190  0.63483  1.0000
  O   O2        1.0  0.22446  0.20515  0.36669  1.0000
