data_image0
_chemical_formula_structural       Ca2Cu2H36C22S2N4O24
_chemical_formula_sum              "Ca2 Cu2 H36 C22 S2 N4 O24"
_cell_length_a       8.85365
_cell_length_b       9.14259
_cell_length_c       12.5393
_cell_angle_alpha    95.4927
_cell_angle_beta     97.2997
_cell_angle_gamma    105.952

_space_group_name_H-M_alt    "P 1"
_space_group_IT_number       1

loop_
  _space_group_symop_operation_xyz
  'x, y, z'

loop_
  _atom_site_type_symbol
  _atom_site_label
  _atom_site_symmetry_multiplicity
  _atom_site_fract_x
  _atom_site_fract_y
  _atom_site_fract_z
  _atom_site_occupancy
  Ca  Ca1       1.0  0.53199  0.81869  0.88941  1.0000
  Ca  Ca2       1.0  0.46801  0.18131  0.11059  1.0000
  Cu  Cu1       1.0  0.64477  0.09938  0.64044  1.0000
  Cu  Cu2       1.0  0.35523  0.90062  0.35957  1.0000
  H   H1        1.0  0.81620  0.69555  0.56070  1.0000
  H   H2        1.0  0.18380  0.30445  0.43931  1.0000
  H   H3        1.0  0.91618  0.62311  0.39247  1.0000
  H   H4        1.0  0.08381  0.37688  0.60753  1.0000
  H   H5        1.0  0.85143  0.02866  0.26805  1.0000
  H   H6        1.0  0.14857  0.97134  0.73195  1.0000
  H   H7        1.0  0.75910  0.20311  0.36189  1.0000
  H   H8        1.0  0.24090  0.79689  0.63811  1.0000
  H   H9        1.0  0.55341  0.33552  0.44608  1.0000
  H   H10       1.0  0.44658  0.66447  0.55392  1.0000
  H   H11       1.0  0.75238  0.43323  0.50398  1.0000
  H   H12       1.0  0.24761  0.56677  0.49601  1.0000
  H   H13       1.0  0.41042  0.30247  0.78776  1.0000
  H   H14       1.0  0.58957  0.69753  0.21224  1.0000
  H   H15       1.0  0.61301  0.37782  0.84408  1.0000
  H   H16       1.0  0.38699  0.62219  0.15592  1.0000
  H   H17       1.0  0.67749  0.66497  0.72421  1.0000
  H   H18       1.0  0.32251  0.33504  0.27578  1.0000
  H   H19       1.0  0.74544  0.83805  0.71633  1.0000
  H   H20       1.0  0.25455  0.16195  0.28366  1.0000
  H   H21       1.0  0.87493  0.03372  0.92781  1.0000
  H   H22       1.0  0.12508  0.96628  0.07219  1.0000
  H   H23       1.0  0.84662  0.94426  0.02983  1.0000
  H   H24       1.0  0.15339  0.05574  0.97017  1.0000
  H   H25       1.0  0.43663  0.55125  0.71400  1.0000
  H   H26       1.0  0.56336  0.44875  0.28600  1.0000
  H   H27       1.0  0.29896  0.52051  0.78602  1.0000
  H   H28       1.0  0.70104  0.47950  0.21398  1.0000
  H   H29       1.0  0.22577  0.86011  0.94254  1.0000
  H   H30       1.0  0.77423  0.13989  0.05746  1.0000
  H   H31       1.0  0.17059  0.68910  0.87989  1.0000
  H   H32       1.0  0.82940  0.31089  0.12012  1.0000
  H   H33       1.0  0.71841  0.62827  0.02340  1.0000
  H   H34       1.0  0.28159  0.37173  0.97660  1.0000
  H   H35       1.0  0.74882  0.66434  0.90612  1.0000
  H   H36       1.0  0.25118  0.33566  0.09388  1.0000
  C   C1        1.0  0.77634  0.90282  0.51187  1.0000
  C   C2        1.0  0.22367  0.09717  0.48813  1.0000
  C   C3        1.0  0.82525  0.76776  0.49611  1.0000
  C   C4        1.0  0.17475  0.23223  0.50389  1.0000
  C   C5        1.0  0.87994  0.72779  0.40271  1.0000
  C   C6        1.0  0.12006  0.27221  0.59729  1.0000
  C   C7        1.0  0.88924  0.82214  0.31970  1.0000
  C   C8        1.0  0.11076  0.17785  0.68030  1.0000
  C   C9        1.0  0.84420  0.95553  0.33227  1.0000
  C   C10       1.0  0.15580  0.04447  0.66772  1.0000
  C   C11       1.0  0.78718  0.99886  0.42702  1.0000
  C   C12       1.0  0.21282  0.00113  0.57298  1.0000
  C   C13       1.0  0.74319  0.13956  0.43196  1.0000
  C   C14       1.0  0.25682  0.86043  0.56804  1.0000
  C   C15       1.0  0.64803  0.33956  0.51323  1.0000
  C   C16       1.0  0.35196  0.66043  0.48677  1.0000
  C   C17       1.0  0.59193  0.37928  0.61915  1.0000
  C   C18       1.0  0.40807  0.62072  0.38085  1.0000
  C   C19       1.0  0.52746  0.28256  0.78747  1.0000
  C   C20       1.0  0.47253  0.71744  0.21253  1.0000
  C   C21       1.0  0.52167  0.13372  0.83312  1.0000
  C   C22       1.0  0.47833  0.86629  0.16688  1.0000
  S   S1        1.0  0.95129  0.76015  0.19908  1.0000
  S   S2        1.0  0.04871  0.23985  0.80092  1.0000
  N   N1        1.0  0.68647  0.19432  0.51179  1.0000
  N   N2        1.0  0.31353  0.80568  0.48822  1.0000
  N   N3        1.0  0.57017  0.26983  0.68081  1.0000
  N   N4        1.0  0.42982  0.73017  0.31919  1.0000
  O   O1        1.0  0.82168  0.61990  0.14689  1.0000
  O   O2        1.0  0.17832  0.38010  0.85311  1.0000
  O   O3        1.0  0.10137  0.72646  0.22880  1.0000
  O   O4        1.0  0.89863  0.27353  0.77120  1.0000
  O   O5        1.0  0.96293  0.88601  0.13130  1.0000
  O   O6        1.0  0.03707  0.11400  0.86871  1.0000
  O   O7        1.0  0.72389  0.93108  0.60277  1.0000
  O   O8        1.0  0.27613  0.06893  0.39724  1.0000
  O   O9        1.0  0.56854  0.51039  0.63904  1.0000
  O   O10       1.0  0.43146  0.48961  0.36096  1.0000
  O   O11       1.0  0.55840  0.02673  0.77516  1.0000
  O   O12       1.0  0.44160  0.97328  0.22484  1.0000
  O   O13       1.0  0.48172  0.11449  0.92435  1.0000
  O   O14       1.0  0.51828  0.88552  0.07565  1.0000
  O   O15       1.0  0.72507  0.76599  0.77086  1.0000
  O   O16       1.0  0.27492  0.23402  0.22914  1.0000
  O   O17       1.0  0.79526  0.99482  0.97536  1.0000
  O   O18       1.0  0.20474  0.00518  0.02464  1.0000
  O   O19       1.0  0.37386  0.60280  0.75727  1.0000
  O   O20       1.0  0.62614  0.39720  0.24272  1.0000
  O   O21       1.0  0.25038  0.78803  0.88645  1.0000
  O   O22       1.0  0.74962  0.21196  0.11356  1.0000
  O   O23       1.0  0.66454  0.63295  0.94989  1.0000
  O   O24       1.0  0.33547  0.36705  0.05011  1.0000
