data_image0
_chemical_formula_structural       Li4H48C48S4N12O16
_chemical_formula_sum              "Li4 H48 C48 S4 N12 O16"
_cell_length_a       5.19213
_cell_length_b       7.92295
_cell_length_c       31.298
_cell_angle_alpha    90
_cell_angle_beta     91.2668
_cell_angle_gamma    90

_space_group_name_H-M_alt    "P 1"
_space_group_IT_number       1

loop_
  _space_group_symop_operation_xyz
  'x, y, z'

loop_
  _atom_site_type_symbol
  _atom_site_label
  _atom_site_symmetry_multiplicity
  _atom_site_fract_x
  _atom_site_fract_y
  _atom_site_fract_z
  _atom_site_occupancy
  Li  Li1       1.0  0.80717  0.71890  0.00127  1.0000
  Li  Li2       1.0  0.30719  0.78109  0.50128  1.0000
  Li  Li3       1.0  0.19281  0.28109  0.99873  1.0000
  Li  Li4       1.0  0.69283  0.21889  0.49873  1.0000
  H   H1        1.0  0.56520  0.64265  0.43548  1.0000
  H   H2        1.0  0.06518  0.85735  0.93549  1.0000
  H   H3        1.0  0.43482  0.35734  0.56452  1.0000
  H   H4        1.0  0.93482  0.14264  0.06452  1.0000
  H   H5        1.0  0.79117  0.79257  0.44170  1.0000
  H   H6        1.0  0.29115  0.70743  0.94170  1.0000
  H   H7        1.0  0.20885  0.20742  0.55830  1.0000
  H   H8        1.0  0.70885  0.29256  0.05830  1.0000
  H   H9        1.0  0.55089  0.90531  0.95218  1.0000
  H   H10       1.0  0.05090  0.59469  0.45218  1.0000
  H   H11       1.0  0.44911  0.09468  0.04782  1.0000
  H   H12       1.0  0.94912  0.40530  0.54782  1.0000
  H   H13       1.0  0.75343  0.03652  0.97142  1.0000
  H   H14       1.0  0.25345  0.46348  0.47143  1.0000
  H   H15       1.0  0.24656  0.96347  0.02857  1.0000
  H   H16       1.0  0.74657  0.53651  0.52857  1.0000
  H   H17       1.0  0.12553  0.83608  0.38758  1.0000
  H   H18       1.0  0.62550  0.66391  0.88759  1.0000
  H   H19       1.0  0.87449  0.16391  0.61242  1.0000
  H   H20       1.0  0.37448  0.33608  0.11242  1.0000
  H   H21       1.0  0.81327  0.54482  0.18046  1.0000
  H   H22       1.0  0.31330  0.95518  0.68047  1.0000
  H   H23       1.0  0.18670  0.45518  0.81953  1.0000
  H   H24       1.0  0.68671  0.04483  0.31953  1.0000
  H   H25       1.0  0.49463  0.85026  0.19489  1.0000
  H   H26       1.0  0.99465  0.64977  0.69489  1.0000
  H   H27       1.0  0.50535  0.14977  0.80511  1.0000
  H   H28       1.0  0.00535  0.35026  0.30511  1.0000
  H   H29       1.0  0.89678  0.51244  0.10273  1.0000
  H   H30       1.0  0.39676  0.98755  0.60273  1.0000
  H   H31       1.0  0.10324  0.48754  0.89727  1.0000
  H   H32       1.0  0.60321  0.01245  0.39727  1.0000
  H   H33       1.0  0.20351  0.83620  0.30946  1.0000
  H   H34       1.0  0.70350  0.66380  0.80947  1.0000
  H   H35       1.0  0.79649  0.16380  0.69054  1.0000
  H   H36       1.0  0.29650  0.33619  0.19054  1.0000
  H   H37       1.0  0.51967  0.53913  0.28811  1.0000
  H   H38       1.0  0.01967  0.96087  0.78812  1.0000
  H   H39       1.0  0.48033  0.46087  0.71189  1.0000
  H   H40       1.0  0.98034  0.03912  0.21188  1.0000
  H   H41       1.0  0.58177  0.81665  0.11709  1.0000
  H   H42       1.0  0.08177  0.68337  0.61709  1.0000
  H   H43       1.0  0.41823  0.18337  0.88291  1.0000
  H   H44       1.0  0.91821  0.31665  0.38291  1.0000
  H   H45       1.0  0.44182  0.53523  0.36654  1.0000
  H   H46       1.0  0.94180  0.96477  0.86654  1.0000
  H   H47       1.0  0.55819  0.46478  0.63346  1.0000
  H   H48       1.0  0.05818  0.03522  0.13346  1.0000
  C   C1        1.0  0.99238  0.77227  0.36559  1.0000
  C   C2        1.0  0.49236  0.72773  0.86560  1.0000
  C   C3        1.0  0.00764  0.22772  0.63441  1.0000
  C   C4        1.0  0.50764  0.27227  0.13441  1.0000
  C   C5        1.0  0.14634  0.70279  0.19208  1.0000
  C   C6        1.0  0.64636  0.79722  0.69209  1.0000
  C   C7        1.0  0.85364  0.29723  0.80791  1.0000
  C   C8        1.0  0.35364  0.20279  0.30792  1.0000
  C   C9        1.0  0.24207  0.66425  0.10545  1.0000
  C   C10       1.0  0.74206  0.83577  0.60545  1.0000
  C   C11       1.0  0.75794  0.33576  0.89455  1.0000
  C   C12       1.0  0.25791  0.16424  0.39455  1.0000
  C   C13       1.0  0.97822  0.60561  0.16612  1.0000
  C   C14       1.0  0.47823  0.89439  0.66612  1.0000
  C   C15       1.0  0.02177  0.39440  0.83388  1.0000
  C   C16       1.0  0.52176  0.10561  0.33388  1.0000
  C   C17       1.0  0.36321  0.77880  0.17421  1.0000
  C   C18       1.0  0.86322  0.72122  0.67421  1.0000
  C   C19       1.0  0.63678  0.22123  0.82579  1.0000
  C   C20       1.0  0.13677  0.27880  0.32579  1.0000
  C   C21       1.0  0.86771  0.68526  0.29400  1.0000
  C   C22       1.0  0.36772  0.81475  0.79400  1.0000
  C   C23       1.0  0.13228  0.31475  0.70600  1.0000
  C   C24       1.0  0.63229  0.18524  0.20600  1.0000
  C   C25       1.0  0.02539  0.58726  0.12300  1.0000
  C   C26       1.0  0.52539  0.91275  0.62300  1.0000
  C   C27       1.0  0.97461  0.41275  0.87700  1.0000
  C   C28       1.0  0.47459  0.08726  0.37700  1.0000
  C   C29       1.0  0.03671  0.77205  0.32226  1.0000
  C   C30       1.0  0.53670  0.72794  0.82226  1.0000
  C   C31       1.0  0.96329  0.22794  0.67774  1.0000
  C   C32       1.0  0.46330  0.27204  0.17774  1.0000
  C   C33       1.0  0.65169  0.60225  0.31046  1.0000
  C   C34       1.0  0.15169  0.89775  0.81046  1.0000
  C   C35       1.0  0.34831  0.39775  0.68954  1.0000
  C   C36       1.0  0.84832  0.10223  0.18954  1.0000
  C   C37       1.0  0.41122  0.76047  0.13083  1.0000
  C   C38       1.0  0.91124  0.73954  0.63083  1.0000
  C   C39       1.0  0.58876  0.23954  0.86917  1.0000
  C   C40       1.0  0.08875  0.26047  0.36917  1.0000
  C   C41       1.0  0.77824  0.68645  0.38221  1.0000
  C   C42       1.0  0.27822  0.81355  0.88222  1.0000
  C   C43       1.0  0.22178  0.31354  0.61779  1.0000
  C   C44       1.0  0.72177  0.18645  0.11779  1.0000
  C   C45       1.0  0.60895  0.60052  0.35407  1.0000
  C   C46       1.0  0.10894  0.89950  0.85408  1.0000
  C   C47       1.0  0.39106  0.39948  0.64593  1.0000
  C   C48       1.0  0.89104  0.10050  0.14592  1.0000
  S   S1        1.0  0.30719  0.62754  0.05099  1.0000
  S   S2        1.0  0.80721  0.87245  0.55099  1.0000
  S   S3        1.0  0.69279  0.37245  0.94901  1.0000
  S   S4        1.0  0.19281  0.12754  0.44901  1.0000
  N   N1        1.0  0.11361  0.72817  0.23631  1.0000
  N   N2        1.0  0.61364  0.77184  0.73632  1.0000
  N   N3        1.0  0.88636  0.27185  0.76369  1.0000
  N   N4        1.0  0.38638  0.22817  0.26369  1.0000
  N   N5        1.0  0.74340  0.68305  0.42633  1.0000
  N   N6        1.0  0.24338  0.81695  0.92633  1.0000
  N   N7        1.0  0.25662  0.31694  0.57367  1.0000
  N   N8        1.0  0.75662  0.18305  0.07367  1.0000
  N   N9        1.0  0.90352  0.66796  0.25009  1.0000
  N   N10       1.0  0.40355  0.83205  0.75009  1.0000
  N   N11       1.0  0.09646  0.33205  0.74991  1.0000
  N   N12       1.0  0.59646  0.16795  0.24991  1.0000
  O   O1        1.0  0.72401  0.91479  0.96619  1.0000
  O   O2        1.0  0.22404  0.58520  0.46619  1.0000
  O   O3        1.0  0.27598  0.08520  0.03382  1.0000
  O   O4        1.0  0.77599  0.41479  0.53381  1.0000
  O   O5        1.0  0.58453  0.65467  0.04646  1.0000
  O   O6        1.0  0.08455  0.84532  0.54647  1.0000
  O   O7        1.0  0.41545  0.34532  0.95353  1.0000
  O   O8        1.0  0.91546  0.15467  0.45354  1.0000
  O   O9        1.0  0.15462  0.75042  0.02475  1.0000
  O   O10       1.0  0.65464  0.74958  0.52475  1.0000
  O   O11       1.0  0.84536  0.24957  0.97525  1.0000
  O   O12       1.0  0.34539  0.25042  0.47525  1.0000
  O   O13       1.0  0.22390  0.45388  0.04223  1.0000
  O   O14       1.0  0.72392  0.04612  0.54223  1.0000
  O   O15       1.0  0.77609  0.54612  0.95777  1.0000
  O   O16       1.0  0.27609  0.95388  0.45777  1.0000
