data_image0
_chemical_formula_structural       Ba2Cu2H32C22S2N4O22
_chemical_formula_sum              "Ba2 Cu2 H32 C22 S2 N4 O22"
_cell_length_a       8.38466
_cell_length_b       9.71235
_cell_length_c       12.4626
_cell_angle_alpha    111.079
_cell_angle_beta     91.382
_cell_angle_gamma    112.973

_space_group_name_H-M_alt    "P 1"
_space_group_IT_number       1

loop_
  _space_group_symop_operation_xyz
  'x, y, z'

loop_
  _atom_site_type_symbol
  _atom_site_label
  _atom_site_symmetry_multiplicity
  _atom_site_fract_x
  _atom_site_fract_y
  _atom_site_fract_z
  _atom_site_occupancy
  Ba  Ba1       1.0  0.37407  0.11371  0.39871  1.0000
  Ba  Ba2       1.0  0.62593  0.88629  0.60129  1.0000
  Cu  Cu1       1.0  0.95406  0.57455  0.17036  1.0000
  Cu  Cu2       1.0  0.04594  0.42544  0.82964  1.0000
  H   H1        1.0  0.80629  0.89325  0.04840  1.0000
  H   H2        1.0  0.19371  0.10676  0.95160  1.0000
  H   H3        1.0  0.60135  0.80952  0.86714  1.0000
  H   H4        1.0  0.39865  0.19049  0.13287  1.0000
  H   H5        1.0  0.49156  0.30655  0.78220  1.0000
  H   H6        1.0  0.50845  0.69345  0.21780  1.0000
  H   H7        1.0  0.60560  0.22394  0.89826  1.0000
  H   H8        1.0  0.39440  0.77606  0.10174  1.0000
  H   H9        1.0  0.83475  0.15072  0.00287  1.0000
  H   H10       1.0  0.16523  0.84927  0.99714  1.0000
  H   H11       1.0  0.66120  0.15242  0.08170  1.0000
  H   H12       1.0  0.33879  0.84758  0.91831  1.0000
  H   H13       1.0  0.24080  0.50470  0.35522  1.0000
  H   H14       1.0  0.75920  0.49530  0.64478  1.0000
  H   H15       1.0  0.06588  0.53336  0.42221  1.0000
  H   H16       1.0  0.93413  0.46664  0.57779  1.0000
  H   H17       1.0  0.02518  0.22396  0.36917  1.0000
  H   H18       1.0  0.97482  0.77603  0.63083  1.0000
  H   H19       1.0  0.10413  0.28290  0.50740  1.0000
  H   H20       1.0  0.89587  0.71709  0.49260  1.0000
  H   H21       1.0  0.19887  0.17621  0.63305  1.0000
  H   H22       1.0  0.80113  0.82379  0.36695  1.0000
  H   H23       1.0  0.10420  0.97986  0.58254  1.0000
  H   H24       1.0  0.89580  0.02013  0.41746  1.0000
  H   H25       1.0  0.65138  0.95915  0.31844  1.0000
  H   H26       1.0  0.34862  0.04084  0.68155  1.0000
  H   H27       1.0  0.69951  0.06585  0.24733  1.0000
  H   H28       1.0  0.30050  0.93416  0.75267  1.0000
  H   H29       1.0  0.04558  0.90289  0.16578  1.0000
  H   H30       1.0  0.95441  0.09711  0.83422  1.0000
  H   H31       1.0  0.07410  0.08278  0.19608  1.0000
  H   H32       1.0  0.92591  0.91722  0.80392  1.0000
  C   C1        1.0  0.77537  0.65011  0.01678  1.0000
  C   C2        1.0  0.22463  0.34990  0.98323  1.0000
  C   C3        1.0  0.73880  0.76506  0.98856  1.0000
  C   C4        1.0  0.26120  0.23494  0.01144  1.0000
  C   C5        1.0  0.62261  0.71800  0.88830  1.0000
  C   C6        1.0  0.37739  0.28200  0.11170  1.0000
  C   C7        1.0  0.53480  0.55255  0.81175  1.0000
  C   C8        1.0  0.46520  0.44745  0.18825  1.0000
  C   C9        1.0  0.56144  0.43578  0.83929  1.0000
  C   C10       1.0  0.43856  0.56423  0.16072  1.0000
  C   C11       1.0  0.67955  0.47981  0.94108  1.0000
  C   C12       1.0  0.32045  0.52020  0.05892  1.0000
  C   C13       1.0  0.69256  0.34757  0.96271  1.0000
  C   C14       1.0  0.30744  0.65243  0.03729  1.0000
  C   C15       1.0  0.79472  0.22921  0.07468  1.0000
  C   C16       1.0  0.20526  0.77079  0.92532  1.0000
  C   C17       1.0  0.91968  0.29100  0.19017  1.0000
  C   C18       1.0  0.08032  0.70900  0.80983  1.0000
  C   C19       1.0  0.13405  0.54181  0.34835  1.0000
  C   C20       1.0  0.86596  0.45820  0.65165  1.0000
  C   C21       1.0  0.21809  0.72152  0.36663  1.0000
  C   C22       1.0  0.78190  0.27848  0.63336  1.0000
  S   S1        1.0  0.40352  0.49829  0.67656  1.0000
  S   S2        1.0  0.59648  0.50171  0.32345  1.0000
  N   N1        1.0  0.79442  0.36650  0.05175  1.0000
  N   N2        1.0  0.20557  0.63350  0.94826  1.0000
  N   N3        1.0  0.01368  0.44898  0.23744  1.0000
  N   N4        1.0  0.98631  0.55102  0.76256  1.0000
  O   O1        1.0  0.89534  0.70631  0.11025  1.0000
  O   O2        1.0  0.10465  0.29369  0.88976  1.0000
  O   O3        1.0  0.92212  0.18759  0.23127  1.0000
  O   O4        1.0  0.07788  0.81240  0.76873  1.0000
  O   O5        1.0  0.15414  0.76360  0.29434  1.0000
  O   O6        1.0  0.84585  0.23640  0.70566  1.0000
  O   O7        1.0  0.34435  0.82464  0.44987  1.0000
  O   O8        1.0  0.65566  0.17536  0.55012  1.0000
  O   O9        1.0  0.48304  0.41957  0.58420  1.0000
  O   O10       1.0  0.51696  0.58043  0.41581  1.0000
  O   O11       1.0  0.22124  0.38005  0.67066  1.0000
  O   O12       1.0  0.77877  0.61995  0.32934  1.0000
  O   O13       1.0  0.40721  0.65102  0.67738  1.0000
  O   O14       1.0  0.59280  0.34898  0.32261  1.0000
  O   O15       1.0  0.07133  0.19519  0.42868  1.0000
  O   O16       1.0  0.92867  0.80481  0.57132  1.0000
  O   O17       1.0  0.21685  0.07636  0.59377  1.0000
  O   O18       1.0  0.78315  0.92364  0.40623  1.0000
  O   O19       1.0  0.59534  0.99468  0.26843  1.0000
  O   O20       1.0  0.40466  0.00532  0.73156  1.0000
  O   O21       1.0  0.13960  0.01658  0.19194  1.0000
  O   O22       1.0  0.86040  0.98342  0.80805  1.0000
