data_image0
_chemical_formula_structural       K2Te2H48C34Se2N10O12
_chemical_formula_sum              "K2 Te2 H48 C34 Se2 N10 O12"
_cell_length_a       7.84329
_cell_length_b       10.6266
_cell_length_c       15.4717
_cell_angle_alpha    104.73
_cell_angle_beta     90.0191
_cell_angle_gamma    99.8699

_space_group_name_H-M_alt    "P 1"
_space_group_IT_number       1

loop_
  _space_group_symop_operation_xyz
  'x, y, z'

loop_
  _atom_site_type_symbol
  _atom_site_label
  _atom_site_symmetry_multiplicity
  _atom_site_fract_x
  _atom_site_fract_y
  _atom_site_fract_z
  _atom_site_occupancy
  K   K1        1.0  0.96797  0.30565  0.68015  1.0000
  K   K2        1.0  0.03203  0.69434  0.31985  1.0000
  Te  Te1       1.0  0.87142  0.91765  0.88256  1.0000
  Te  Te2       1.0  0.12856  0.08234  0.11745  1.0000
  H   H1        1.0  0.89386  0.23435  0.37168  1.0000
  H   H2        1.0  0.10615  0.76565  0.62832  1.0000
  H   H3        1.0  0.99622  0.38810  0.44404  1.0000
  H   H4        1.0  0.00378  0.61190  0.55596  1.0000
  H   H5        1.0  0.66861  0.35325  0.43359  1.0000
  H   H6        1.0  0.33140  0.64675  0.56641  1.0000
  H   H7        1.0  0.66135  0.21838  0.48374  1.0000
  H   H8        1.0  0.33866  0.78162  0.51626  1.0000
  H   H9        1.0  0.51853  0.33457  0.60408  1.0000
  H   H10       1.0  0.48147  0.66543  0.39592  1.0000
  H   H11       1.0  0.53903  0.48202  0.56644  1.0000
  H   H12       1.0  0.46097  0.51798  0.43355  1.0000
  H   H13       1.0  0.73362  0.60295  0.70376  1.0000
  H   H14       1.0  0.26638  0.39705  0.29624  1.0000
  H   H15       1.0  0.51507  0.54015  0.72478  1.0000
  H   H16       1.0  0.48492  0.45985  0.27522  1.0000
  H   H17       1.0  0.57475  0.51204  0.86882  1.0000
  H   H18       1.0  0.42525  0.48796  0.13118  1.0000
  H   H19       1.0  0.79032  0.59446  0.86265  1.0000
  H   H20       1.0  0.20968  0.40554  0.13735  1.0000
  H   H21       1.0  0.75658  0.44487  0.96860  1.0000
  H   H22       1.0  0.24342  0.55513  0.03140  1.0000
  H   H23       1.0  0.69242  0.30665  0.87461  1.0000
  H   H24       1.0  0.30758  0.69335  0.12539  1.0000
  H   H25       1.0  0.92384  0.21935  0.90642  1.0000
  H   H26       1.0  0.07616  0.78065  0.09358  1.0000
  H   H27       1.0  0.02479  0.35777  0.99354  1.0000
  H   H28       1.0  0.97521  0.64223  0.00645  1.0000
  H   H29       1.0  0.27619  0.38635  0.88971  1.0000
  H   H30       1.0  0.72381  0.61364  0.11029  1.0000
  H   H31       1.0  0.24855  0.23959  0.92838  1.0000
  H   H32       1.0  0.75145  0.76041  0.07162  1.0000
  H   H33       1.0  0.37143  0.11270  0.79700  1.0000
  H   H34       1.0  0.62857  0.88729  0.20300  1.0000
  H   H35       1.0  0.42222  0.26321  0.76267  1.0000
  H   H36       1.0  0.57778  0.73679  0.23733  1.0000
  H   H37       1.0  0.40091  0.05639  0.63810  1.0000
  H   H38       1.0  0.59910  0.94361  0.36190  1.0000
  H   H39       1.0  0.17527  0.01443  0.65744  1.0000
  H   H40       1.0  0.82473  0.98557  0.34255  1.0000
  H   H41       1.0  0.14750  0.02430  0.50236  1.0000
  H   H42       1.0  0.85251  0.97570  0.49764  1.0000
  H   H43       1.0  0.36264  0.10497  0.49293  1.0000
  H   H44       1.0  0.63737  0.89504  0.50707  1.0000
  H   H45       1.0  0.24915  0.31007  0.48512  1.0000
  H   H46       1.0  0.75086  0.68993  0.51488  1.0000
  H   H47       1.0  0.16954  0.16863  0.39551  1.0000
  H   H48       1.0  0.83047  0.83138  0.60449  1.0000
  C   C1        1.0  0.17852  0.82290  0.90382  1.0000
  C   C2        1.0  0.82149  0.17711  0.09618  1.0000
  C   C3        1.0  0.66095  0.99916  0.71394  1.0000
  C   C4        1.0  0.33905  0.00082  0.28607  1.0000
  C   C5        1.0  0.91278  0.29237  0.44224  1.0000
  C   C6        1.0  0.08722  0.70763  0.55776  1.0000
  C   C7        1.0  0.10200  0.74912  0.81538  1.0000
  C   C8        1.0  0.89799  0.25089  0.18462  1.0000
  C   C9        1.0  0.73943  0.31360  0.47943  1.0000
  C   C10       1.0  0.26057  0.68640  0.52056  1.0000
  C   C11       1.0  0.33291  0.79508  0.93897  1.0000
  C   C12       1.0  0.66710  0.20494  0.06104  1.0000
  C   C13       1.0  0.60525  0.42857  0.60518  1.0000
  C   C14       1.0  0.39475  0.57143  0.39482  1.0000
  C   C15       1.0  0.17242  0.64222  0.76040  1.0000
  C   C16       1.0  0.82757  0.35780  0.23960  1.0000
  C   C17       1.0  0.63854  0.51209  0.69999  1.0000
  C   C18       1.0  0.36146  0.48791  0.30001  1.0000
  C   C19       1.0  0.70548  0.49639  0.84674  1.0000
  C   C20       1.0  0.29452  0.50361  0.15326  1.0000
  C   C21       1.0  0.77044  0.40714  0.89595  1.0000
  C   C22       1.0  0.22956  0.59286  0.10405  1.0000
  C   C23       1.0  0.01402  0.31501  0.92027  1.0000
  C   C24       1.0  0.98598  0.68499  0.07973  1.0000
  C   C25       1.0  0.18881  0.29118  0.88588  1.0000
  C   C26       1.0  0.81119  0.70882  0.11412  1.0000
  C   C27       1.0  0.32179  0.17509  0.75904  1.0000
  C   C28       1.0  0.67821  0.82490  0.24096  1.0000
  C   C29       1.0  0.28479  0.09725  0.66281  1.0000
  C   C30       1.0  0.71522  0.90274  0.33719  1.0000
  C   C31       1.0  0.23344  0.12166  0.51686  1.0000
  C   C32       1.0  0.76657  0.87834  0.48314  1.0000
  C   C33       1.0  0.16644  0.21093  0.46826  1.0000
  C   C34       1.0  0.83356  0.78907  0.53174  1.0000
  Se  Se1       1.0  0.55554  0.85820  0.75093  1.0000
  Se  Se2       1.0  0.44445  0.14179  0.24907  1.0000
  N   N1        1.0  0.95746  0.77577  0.78755  1.0000
  N   N2        1.0  0.04252  0.22423  0.21246  1.0000
  N   N3        1.0  0.73050  0.08982  0.68858  1.0000
  N   N4        1.0  0.26950  0.91015  0.31142  1.0000
  N   N5        1.0  0.09645  0.91244  0.95132  1.0000
  N   N6        1.0  0.90354  0.08757  0.04869  1.0000
  N   N7        1.0  0.45673  0.76969  0.96790  1.0000
  N   N8        1.0  0.54326  0.23033  0.03211  1.0000
  N   N9        1.0  0.22227  0.55103  0.71524  1.0000
  N   N10       1.0  0.77771  0.44898  0.28476  1.0000
  O   O1        1.0  0.76582  0.40373  0.56640  1.0000
  O   O2        1.0  0.23418  0.59627  0.43360  1.0000
  O   O3        1.0  0.70021  0.43511  0.75329  1.0000
  O   O4        1.0  0.29979  0.56488  0.24671  1.0000
  O   O5        1.0  0.94832  0.40202  0.87712  1.0000
  O   O6        1.0  0.05168  0.59798  0.12288  1.0000
  O   O7        1.0  0.16483  0.21311  0.79557  1.0000
  O   O8        1.0  0.83517  0.78688  0.20443  1.0000
  O   O9        1.0  0.24452  0.18323  0.61092  1.0000
  O   O10       1.0  0.75549  0.81677  0.38908  1.0000
  O   O11       1.0  0.99308  0.22234  0.49372  1.0000
  O   O12       1.0  0.00693  0.77766  0.50629  1.0000
