data_image0
_chemical_formula_structural       Ca2H12C12N4O12
_chemical_formula_sum              "Ca2 H12 C12 N4 O12"
_cell_length_a       6.51839
_cell_length_b       7.89102
_cell_length_c       9.31624
_cell_angle_alpha    100.1
_cell_angle_beta     93.6204
_cell_angle_gamma    107.77

_space_group_name_H-M_alt    "P 1"
_space_group_IT_number       1

loop_
  _space_group_symop_operation_xyz
  'x, y, z'

loop_
  _atom_site_type_symbol
  _atom_site_label
  _atom_site_symmetry_multiplicity
  _atom_site_fract_x
  _atom_site_fract_y
  _atom_site_fract_z
  _atom_site_occupancy
  Ca  Ca1       1.0  0.77296  0.09799  0.63838  1.0000
  Ca  Ca2       1.0  0.22703  0.90201  0.36163  1.0000
  H   H1        1.0  0.21543  0.29952  0.94522  1.0000
  H   H2        1.0  0.78457  0.70050  0.05479  1.0000
  H   H3        1.0  0.88538  0.05104  0.00071  1.0000
  H   H4        1.0  0.11461  0.94893  0.99928  1.0000
  H   H5        1.0  0.53895  0.70679  0.48727  1.0000
  H   H6        1.0  0.46105  0.29321  0.51273  1.0000
  H   H7        1.0  0.59560  0.69524  0.65625  1.0000
  H   H8        1.0  0.40441  0.30477  0.34375  1.0000
  H   H9        1.0  0.14724  0.29650  0.48339  1.0000
  H   H10       1.0  0.85276  0.70348  0.51659  1.0000
  H   H11       1.0  0.07270  0.44661  0.58215  1.0000
  H   H12       1.0  0.92730  0.55337  0.41784  1.0000
  C   C1        1.0  0.66253  0.47676  0.77893  1.0000
  C   C2        1.0  0.33747  0.52324  0.22106  1.0000
  C   C3        1.0  0.83805  0.48615  0.89743  1.0000
  C   C4        1.0  0.16195  0.51386  0.10257  1.0000
  C   C5        1.0  0.11861  0.38926  0.96887  1.0000
  C   C6        1.0  0.88139  0.61075  0.03113  1.0000
  C   C7        1.0  0.26071  0.00650  0.73257  1.0000
  C   C8        1.0  0.73928  0.99350  0.26744  1.0000
  C   C9        1.0  0.38752  0.00380  0.87421  1.0000
  C   C10       1.0  0.61249  0.99620  0.12580  1.0000
  C   C11       1.0  0.71192  0.02687  0.99983  1.0000
  C   C12       1.0  0.28811  0.97310  0.00017  1.0000
  N   N1        1.0  0.95669  0.37452  0.86705  1.0000
  N   N2        1.0  0.04331  0.62549  0.13294  1.0000
  N   N3        1.0  0.60144  0.03065  0.87536  1.0000
  N   N4        1.0  0.39856  0.96934  0.12464  1.0000
  O   O1        1.0  0.63446  0.35303  0.66445  1.0000
  O   O2        1.0  0.36553  0.64698  0.33557  1.0000
  O   O3        1.0  0.56605  0.59352  0.80073  1.0000
  O   O4        1.0  0.43395  0.40650  0.19926  1.0000
  O   O5        1.0  0.35572  0.99319  0.61845  1.0000
  O   O6        1.0  0.64428  0.00682  0.38155  1.0000
  O   O7        1.0  0.07445  0.02236  0.74073  1.0000
  O   O8        1.0  0.92557  0.97763  0.25928  1.0000
  O   O9        1.0  0.64943  0.76132  0.57670  1.0000
  O   O10       1.0  0.35057  0.23869  0.42330  1.0000
  O   O11       1.0  0.01910  0.32185  0.52657  1.0000
  O   O12       1.0  0.98089  0.67814  0.47343  1.0000
