data_image0
_chemical_formula_structural       Hg2H12C12N2Cl4O2
_chemical_formula_sum              "Hg2 H12 C12 N2 Cl4 O2"
_cell_length_a       7.01065
_cell_length_b       7.38911
_cell_length_c       9.41107
_cell_angle_alpha    105.544
_cell_angle_beta     95.085
_cell_angle_gamma    114.729

_space_group_name_H-M_alt    "P 1"
_space_group_IT_number       1

loop_
  _space_group_symop_operation_xyz
  'x, y, z'

loop_
  _atom_site_type_symbol
  _atom_site_label
  _atom_site_symmetry_multiplicity
  _atom_site_fract_x
  _atom_site_fract_y
  _atom_site_fract_z
  _atom_site_occupancy
  Hg  Hg1       1.0  0.75596  0.21096  0.47177  1.0000
  Hg  Hg2       1.0  0.24397  0.78901  0.52822  1.0000
  H   H1        1.0  0.74264  0.61608  0.67382  1.0000
  H   H2        1.0  0.25740  0.38393  0.32618  1.0000
  H   H3        1.0  0.75225  0.78732  0.94804  1.0000
  H   H4        1.0  0.24784  0.21272  0.05196  1.0000
  H   H5        1.0  0.74877  0.59210  0.12936  1.0000
  H   H6        1.0  0.25129  0.40794  0.87066  1.0000
  H   H7        1.0  0.72649  0.23173  0.03153  1.0000
  H   H8        1.0  0.27350  0.76828  0.96848  1.0000
  H   H9        1.0  0.88641  0.04702  0.74834  1.0000
  H   H10       1.0  0.11356  0.95297  0.25169  1.0000
  H   H11       1.0  0.64988  0.93228  0.81702  1.0000
  H   H12       1.0  0.35009  0.06772  0.18297  1.0000
  C   C1        1.0  0.73844  0.53911  0.75826  1.0000
  C   C2        1.0  0.26158  0.46089  0.24171  1.0000
  C   C3        1.0  0.74385  0.63098  0.90921  1.0000
  C   C4        1.0  0.25621  0.36905  0.09080  1.0000
  C   C5        1.0  0.74269  0.52256  0.00998  1.0000
  C   C6        1.0  0.25734  0.47744  0.99001  1.0000
  C   C7        1.0  0.73243  0.32332  0.95678  1.0000
  C   C8        1.0  0.26757  0.67670  0.04322  1.0000
  C   C9        1.0  0.72815  0.23880  0.80397  1.0000
  C   C10       1.0  0.27184  0.76118  0.19601  1.0000
  C   C11       1.0  0.71570  0.02088  0.74039  1.0000
  C   C12       1.0  0.28429  0.97910  0.25963  1.0000
  N   N1        1.0  0.73430  0.34886  0.71126  1.0000
  N   N2        1.0  0.26569  0.65112  0.28873  1.0000
  Cl  Cl1       1.0  0.78974  0.04353  0.22284  1.0000
  Cl  Cl2       1.0  0.21023  0.95645  0.77716  1.0000
  Cl  Cl3       1.0  0.83154  0.60999  0.41429  1.0000
  Cl  Cl4       1.0  0.16837  0.38996  0.58567  1.0000
  O   O1        1.0  0.60988  0.90958  0.59065  1.0000
  O   O2        1.0  0.39012  0.09042  0.40938  1.0000
