data_image0
_chemical_formula_structural       Hg4H20C24N4Cl8O4
_chemical_formula_sum              "Hg4 H20 C24 N4 Cl8 O4"
_cell_length_a       7.80331
_cell_length_b       7.80323
_cell_length_c       15.1243
_cell_angle_alpha    86.0562
_cell_angle_beta     86.0535
_cell_angle_gamma    81.7969

_space_group_name_H-M_alt    "P 1"
_space_group_IT_number       1

loop_
  _space_group_symop_operation_xyz
  'x, y, z'

loop_
  _atom_site_type_symbol
  _atom_site_label
  _atom_site_symmetry_multiplicity
  _atom_site_fract_x
  _atom_site_fract_y
  _atom_site_fract_z
  _atom_site_occupancy
  Hg  Hg1       1.0  0.01200  0.87413  0.87544  1.0000
  Hg  Hg2       1.0  0.12587  0.98806  0.62454  1.0000
  Hg  Hg3       1.0  0.98802  0.12586  0.12455  1.0000
  Hg  Hg4       1.0  0.87414  0.01197  0.37545  1.0000
  H   H1        1.0  0.40934  0.86920  0.84517  1.0000
  H   H2        1.0  0.13075  0.59075  0.65481  1.0000
  H   H3        1.0  0.59069  0.13077  0.15484  1.0000
  H   H4        1.0  0.86922  0.40929  0.34518  1.0000
  H   H5        1.0  0.68946  0.66805  0.84559  1.0000
  H   H6        1.0  0.33189  0.31059  0.65441  1.0000
  H   H7        1.0  0.31057  0.33193  0.15442  1.0000
  H   H8        1.0  0.66806  0.68942  0.34560  1.0000
  H   H9        1.0  0.68347  0.34911  0.88243  1.0000
  H   H10       1.0  0.65082  0.31657  0.61759  1.0000
  H   H11       1.0  0.31655  0.65085  0.11758  1.0000
  H   H12       1.0  0.34913  0.68344  0.38243  1.0000
  H   H13       1.0  0.39171  0.24518  0.91211  1.0000
  H   H14       1.0  0.75480  0.60829  0.58790  1.0000
  H   H15       1.0  0.60829  0.75481  0.08789  1.0000
  H   H16       1.0  0.24519  0.39169  0.41211  1.0000
  H   H17       1.0  0.08758  0.29937  0.92537  1.0000
  H   H18       1.0  0.70063  0.91245  0.57462  1.0000
  H   H19       1.0  0.91243  0.70061  0.07462  1.0000
  H   H20       1.0  0.29938  0.08755  0.42536  1.0000
  C   C1        1.0  0.41213  0.72988  0.85906  1.0000
  C   C2        1.0  0.27009  0.58794  0.64093  1.0000
  C   C3        1.0  0.58788  0.27011  0.14095  1.0000
  C   C4        1.0  0.72988  0.41208  0.35907  1.0000
  C   C5        1.0  0.56774  0.61649  0.86001  1.0000
  C   C6        1.0  0.38346  0.43231  0.63999  1.0000
  C   C7        1.0  0.43225  0.38350  0.14000  1.0000
  C   C8        1.0  0.61650  0.56773  0.36001  1.0000
  C   C9        1.0  0.56392  0.44005  0.87968  1.0000
  C   C10       1.0  0.55991  0.43610  0.62033  1.0000
  C   C11       1.0  0.43607  0.55992  0.12034  1.0000
  C   C12       1.0  0.44006  0.56389  0.37968  1.0000
  C   C13       1.0  0.40330  0.38172  0.89644  1.0000
  C   C14       1.0  0.61826  0.59673  0.60356  1.0000
  C   C15       1.0  0.59669  0.61825  0.10357  1.0000
  C   C16       1.0  0.38172  0.40330  0.39644  1.0000
  C   C17       1.0  0.25279  0.50179  0.89240  1.0000
  C   C18       1.0  0.49819  0.74725  0.60760  1.0000
  C   C19       1.0  0.74724  0.49820  0.10761  1.0000
  C   C20       1.0  0.50180  0.25275  0.39240  1.0000
  C   C21       1.0  0.08218  0.43998  0.90786  1.0000
  C   C22       1.0  0.56003  0.91787  0.59213  1.0000
  C   C23       1.0  0.91786  0.56001  0.09213  1.0000
  C   C24       1.0  0.43998  0.08213  0.40786  1.0000
  N   N1        1.0  0.25842  0.67310  0.87474  1.0000
  N   N2        1.0  0.32688  0.74164  0.62525  1.0000
  N   N3        1.0  0.74161  0.32687  0.12527  1.0000
  N   N4        1.0  0.67312  0.25839  0.37474  1.0000
  Cl  Cl1       1.0  0.76333  0.00475  0.96374  1.0000
  Cl  Cl2       1.0  0.99523  0.23673  0.53626  1.0000
  Cl  Cl3       1.0  0.23670  0.99523  0.03627  1.0000
  Cl  Cl4       1.0  0.00477  0.76330  0.46373  1.0000
  Cl  Cl5       1.0  0.17849  0.11292  0.78183  1.0000
  Cl  Cl6       1.0  0.88707  0.82159  0.71816  1.0000
  Cl  Cl7       1.0  0.82155  0.88706  0.21817  1.0000
  Cl  Cl8       1.0  0.11292  0.17845  0.28183  1.0000
  O   O1        1.0  0.94307  0.53549  0.90273  1.0000
  O   O2        1.0  0.46452  0.05698  0.59726  1.0000
  O   O3        1.0  0.05693  0.46451  0.09726  1.0000
  O   O4        1.0  0.53549  0.94304  0.40274  1.0000
