data_image0
_chemical_formula_structural       Zn2H16C12S2N4O8
_chemical_formula_sum              "Zn2 H16 C12 S2 N4 O8"
_cell_length_a       4.83936
_cell_length_b       4.83941
_cell_length_c       16.483
_cell_angle_alpha    90.0012
_cell_angle_beta     89.9989
_cell_angle_gamma    95.8167

_space_group_name_H-M_alt    "P 1"
_space_group_IT_number       1

loop_
  _space_group_symop_operation_xyz
  'x, y, z'

loop_
  _atom_site_type_symbol
  _atom_site_label
  _atom_site_symmetry_multiplicity
  _atom_site_fract_x
  _atom_site_fract_y
  _atom_site_fract_z
  _atom_site_occupancy
  Zn  Zn1       1.0  0.05321  0.94678  0.74999  1.0000
  Zn  Zn2       1.0  0.94679  0.05320  0.25000  1.0000
  H   H1        1.0  0.16979  0.57360  0.85126  1.0000
  H   H2        1.0  0.83022  0.42641  0.35127  1.0000
  H   H3        1.0  0.42639  0.83020  0.64873  1.0000
  H   H4        1.0  0.57359  0.16979  0.14874  1.0000
  H   H5        1.0  0.83021  0.42641  0.14875  1.0000
  H   H6        1.0  0.16981  0.57360  0.64873  1.0000
  H   H7        1.0  0.57360  0.16979  0.35127  1.0000
  H   H8        1.0  0.42639  0.83021  0.85126  1.0000
  H   H9        1.0  0.76904  0.56970  0.93755  1.0000
  H   H10       1.0  0.23097  0.43032  0.43756  1.0000
  H   H11       1.0  0.43032  0.23096  0.56244  1.0000
  H   H12       1.0  0.56967  0.76903  0.06245  1.0000
  H   H13       1.0  0.23094  0.43033  0.06244  1.0000
  H   H14       1.0  0.76904  0.56968  0.56244  1.0000
  H   H15       1.0  0.56969  0.76903  0.43755  1.0000
  H   H16       1.0  0.43028  0.23099  0.93755  1.0000
  C   C1        1.0  0.86819  0.75916  0.96506  1.0000
  C   C2        1.0  0.13181  0.24086  0.46506  1.0000
  C   C3        1.0  0.24086  0.13179  0.53494  1.0000
  C   C4        1.0  0.75918  0.86820  0.03493  1.0000
  C   C5        1.0  0.13180  0.24087  0.03494  1.0000
  C   C6        1.0  0.86820  0.75915  0.53494  1.0000
  C   C7        1.0  0.75916  0.86819  0.46506  1.0000
  C   C8        1.0  0.24082  0.13181  0.96505  1.0000
  C   C9        1.0  0.10959  0.89041  0.93004  1.0000
  C   C10       1.0  0.89041  0.10959  0.43005  1.0000
  C   C11       1.0  0.10959  0.89040  0.56996  1.0000
  C   C12       1.0  0.89041  0.10961  0.06996  1.0000
  S   S1        1.0  0.64613  0.35385  0.74999  1.0000
  S   S2        1.0  0.35387  0.64613  0.25001  1.0000
  N   N1        1.0  0.21540  0.78461  0.85644  1.0000
  N   N2        1.0  0.78460  0.21542  0.35644  1.0000
  N   N3        1.0  0.21542  0.78458  0.64356  1.0000
  N   N4        1.0  0.78461  0.21542  0.14358  1.0000
  O   O1        1.0  0.76812  0.23186  0.82307  1.0000
  O   O2        1.0  0.23186  0.76813  0.32309  1.0000
  O   O3        1.0  0.76813  0.23183  0.67691  1.0000
  O   O4        1.0  0.23187  0.76813  0.17694  1.0000
  O   O5        1.0  0.33566  0.29994  0.74999  1.0000
  O   O6        1.0  0.66433  0.70005  0.25001  1.0000
  O   O7        1.0  0.70006  0.66431  0.74999  1.0000
  O   O8        1.0  0.29995  0.33567  0.25001  1.0000
