data_image0
_chemical_formula_structural       Cd2H16C12S2N4O8
_chemical_formula_sum              "Cd2 H16 C12 S2 N4 O8"
_cell_length_a       4.9713
_cell_length_b       4.97133
_cell_length_c       16.9914
_cell_angle_alpha    90.0004
_cell_angle_beta     90
_cell_angle_gamma    93.5743

_space_group_name_H-M_alt    "P 1"
_space_group_IT_number       1

loop_
  _space_group_symop_operation_xyz
  'x, y, z'

loop_
  _atom_site_type_symbol
  _atom_site_label
  _atom_site_symmetry_multiplicity
  _atom_site_fract_x
  _atom_site_fract_y
  _atom_site_fract_z
  _atom_site_occupancy
  Cd  Cd1       1.0  0.05615  0.94384  0.75000  1.0000
  Cd  Cd2       1.0  0.94387  0.05615  0.25000  1.0000
  H   H1        1.0  0.18608  0.56897  0.85967  1.0000
  H   H2        1.0  0.81393  0.43106  0.35966  1.0000
  H   H3        1.0  0.43103  0.81395  0.64033  1.0000
  H   H4        1.0  0.56892  0.18603  0.14034  1.0000
  H   H5        1.0  0.81397  0.43108  0.14035  1.0000
  H   H6        1.0  0.18600  0.56893  0.64033  1.0000
  H   H7        1.0  0.56890  0.18600  0.35965  1.0000
  H   H8        1.0  0.43108  0.81401  0.85967  1.0000
  H   H9        1.0  0.78906  0.57997  0.94122  1.0000
  H   H10       1.0  0.21093  0.42001  0.44121  1.0000
  H   H11       1.0  0.42002  0.21096  0.55878  1.0000
  H   H12       1.0  0.57998  0.78904  0.05879  1.0000
  H   H13       1.0  0.21096  0.42005  0.05879  1.0000
  H   H14       1.0  0.78900  0.57995  0.55878  1.0000
  H   H15       1.0  0.57995  0.78903  0.44122  1.0000
  H   H16       1.0  0.42006  0.21100  0.94122  1.0000
  C   C1        1.0  0.87990  0.76467  0.96719  1.0000
  C   C2        1.0  0.12009  0.23533  0.46718  1.0000
  C   C3        1.0  0.23532  0.12013  0.53281  1.0000
  C   C4        1.0  0.76467  0.87988  0.03283  1.0000
  C   C5        1.0  0.12013  0.23537  0.03283  1.0000
  C   C6        1.0  0.87986  0.76464  0.53281  1.0000
  C   C7        1.0  0.76462  0.87983  0.46718  1.0000
  C   C8        1.0  0.23536  0.12015  0.96719  1.0000
  C   C9        1.0  0.11620  0.88383  0.93431  1.0000
  C   C10       1.0  0.88381  0.11614  0.43431  1.0000
  C   C11       1.0  0.11614  0.88378  0.56569  1.0000
  C   C12       1.0  0.88386  0.11618  0.06569  1.0000
  S   S1        1.0  0.63210  0.36788  0.74999  1.0000
  S   S2        1.0  0.36793  0.63213  0.25000  1.0000
  N   N1        1.0  0.22771  0.77235  0.86526  1.0000
  N   N2        1.0  0.77231  0.22763  0.36526  1.0000
  N   N3        1.0  0.22765  0.77232  0.63474  1.0000
  N   N4        1.0  0.77235  0.22765  0.13474  1.0000
  O   O1        1.0  0.75103  0.24894  0.82156  1.0000
  O   O2        1.0  0.24901  0.75109  0.32158  1.0000
  O   O3        1.0  0.75102  0.24896  0.67842  1.0000
  O   O4        1.0  0.24901  0.75107  0.17843  1.0000
  O   O5        1.0  0.33086  0.32214  0.75000  1.0000
  O   O6        1.0  0.66918  0.67786  0.25000  1.0000
  O   O7        1.0  0.67786  0.66912  0.75000  1.0000
  O   O8        1.0  0.32214  0.33089  0.25000  1.0000
