data_image0
_chemical_formula_structural       Zn2H32C24S2N8O8
_chemical_formula_sum              "Zn2 H32 C24 S2 N8 O8"
_cell_length_a       6.05522
_cell_length_b       10.6569
_cell_length_c       12.7716
_cell_angle_alpha    114.29
_cell_angle_beta     103.772
_cell_angle_gamma    89.9873

_space_group_name_H-M_alt    "P 1"
_space_group_IT_number       1

loop_
  _space_group_symop_operation_xyz
  'x, y, z'

loop_
  _atom_site_type_symbol
  _atom_site_label
  _atom_site_symmetry_multiplicity
  _atom_site_fract_x
  _atom_site_fract_y
  _atom_site_fract_z
  _atom_site_occupancy
  Zn  Zn1       1.0  0.50001  0.00000  0.50000  1.0000
  Zn  Zn2       1.0  0.49999  0.50000  0.50000  1.0000
  H   H1        1.0  0.03194  0.15319  0.00583  1.0000
  H   H2        1.0  0.52642  0.34645  0.99482  1.0000
  H   H3        1.0  0.96808  0.84678  0.99416  1.0000
  H   H4        1.0  0.47358  0.65355  0.00518  1.0000
  H   H5        1.0  0.02439  0.23930  0.85174  1.0000
  H   H6        1.0  0.67218  0.26031  0.14893  1.0000
  H   H7        1.0  0.97562  0.76068  0.14826  1.0000
  H   H8        1.0  0.32781  0.73969  0.85107  1.0000
  H   H9        1.0  0.34268  0.95348  0.82172  1.0000
  H   H10       1.0  0.02063  0.54637  0.17786  1.0000
  H   H11       1.0  0.65732  0.04652  0.17828  1.0000
  H   H12       1.0  0.97936  0.45363  0.82214  1.0000
  H   H13       1.0  0.83006  0.20775  0.64812  1.0000
  H   H14       1.0  0.68127  0.29222  0.35234  1.0000
  H   H15       1.0  0.16995  0.79226  0.35188  1.0000
  H   H16       1.0  0.31872  0.70778  0.64766  1.0000
  H   H17       1.0  0.57222  0.25877  0.65292  1.0000
  H   H18       1.0  0.41863  0.24119  0.34750  1.0000
  H   H19       1.0  0.42779  0.74124  0.34709  1.0000
  H   H20       1.0  0.58136  0.75881  0.65250  1.0000
  H   H21       1.0  0.21338  0.09685  0.62730  1.0000
  H   H22       1.0  0.08544  0.40325  0.37259  1.0000
  H   H23       1.0  0.78663  0.90316  0.37271  1.0000
  H   H24       1.0  0.91455  0.59676  0.62741  1.0000
  H   H25       1.0  0.20254  0.93887  0.62541  1.0000
  H   H26       1.0  0.07639  0.56115  0.37427  1.0000
  H   H27       1.0  0.79746  0.06113  0.37459  1.0000
  H   H28       1.0  0.92362  0.43886  0.62573  1.0000
  H   H29       1.0  0.69191  0.00670  0.98942  1.0000
  H   H30       1.0  0.20281  0.49293  0.01057  1.0000
  H   H31       1.0  0.30810  0.99329  0.01057  1.0000
  H   H32       1.0  0.79719  0.50707  0.98943  1.0000
  C   C1        1.0  0.68844  0.04753  0.92372  1.0000
  C   C2        1.0  0.26471  0.45219  0.07639  1.0000
  C   C3        1.0  0.31157  0.95246  0.07628  1.0000
  C   C4        1.0  0.73529  0.54781  0.92362  1.0000
  C   C5        1.0  0.67960  0.14793  0.75246  1.0000
  C   C6        1.0  0.42639  0.35181  0.24777  1.0000
  C   C7        1.0  0.32041  0.85207  0.24754  1.0000
  C   C8        1.0  0.57360  0.64819  0.75222  1.0000
  C   C9        1.0  0.87921  0.12840  0.93244  1.0000
  C   C10       1.0  0.44666  0.37125  0.06796  1.0000
  C   C11       1.0  0.12081  0.87158  0.06755  1.0000
  C   C12       1.0  0.55334  0.62876  0.93204  1.0000
  C   C13       1.0  0.87404  0.17862  0.84669  1.0000
  C   C14       1.0  0.52684  0.32098  0.15375  1.0000
  C   C15       1.0  0.12598  0.82137  0.15331  1.0000
  C   C16       1.0  0.47315  0.67902  0.84625  1.0000
  C   C17       1.0  0.48777  0.06527  0.74309  1.0000
  C   C18       1.0  0.24403  0.43459  0.25686  1.0000
  C   C19       1.0  0.51224  0.93474  0.25691  1.0000
  C   C20       1.0  0.75596  0.56542  0.74313  1.0000
  C   C21       1.0  0.49254  0.01719  0.82999  1.0000
  C   C22       1.0  0.16221  0.48264  0.16988  1.0000
  C   C23       1.0  0.50747  0.98280  0.17001  1.0000
  C   C24       1.0  0.83780  0.51737  0.83013  1.0000
  S   S1        1.0  0.83452  0.74994  0.49988  1.0000
  S   S2        1.0  0.16548  0.25006  0.50012  1.0000
  N   N1        1.0  0.67190  0.18094  0.65406  1.0000
  N   N2        1.0  0.51712  0.31899  0.34633  1.0000
  N   N3        1.0  0.32810  0.81906  0.34595  1.0000
  N   N4        1.0  0.48287  0.68101  0.65367  1.0000
  N   N5        1.0  0.30993  0.01965  0.63587  1.0000
  N   N6        1.0  0.17333  0.48038  0.36395  1.0000
  N   N7        1.0  0.69008  0.98035  0.36414  1.0000
  N   N8        1.0  0.82666  0.51962  0.63604  1.0000
  O   O1        1.0  0.92983  0.77177  0.41062  1.0000
  O   O2        1.0  0.01948  0.72822  0.58920  1.0000
  O   O3        1.0  0.07016  0.22823  0.58937  1.0000
  O   O4        1.0  0.98052  0.27178  0.41079  1.0000
  O   O5        1.0  0.72552  0.87375  0.56553  1.0000
  O   O6        1.0  0.65982  0.62607  0.43418  1.0000
  O   O7        1.0  0.27450  0.12626  0.43448  1.0000
  O   O8        1.0  0.34016  0.37394  0.56582  1.0000
