data_image0
_chemical_formula_structural       Cd2H32C24S2N8O8
_chemical_formula_sum              "Cd2 H32 C24 S2 N8 O8"
_cell_length_a       5.82182
_cell_length_b       11.0282
_cell_length_c       13.0747
_cell_angle_alpha    114.677
_cell_angle_beta     102.948
_cell_angle_gamma    89.9703

_space_group_name_H-M_alt    "P 1"
_space_group_IT_number       1

loop_
  _space_group_symop_operation_xyz
  'x, y, z'

loop_
  _atom_site_type_symbol
  _atom_site_label
  _atom_site_symmetry_multiplicity
  _atom_site_fract_x
  _atom_site_fract_y
  _atom_site_fract_z
  _atom_site_occupancy
  Cd  Cd1       1.0  0.50000  0.99999  0.50000  1.0000
  Cd  Cd2       1.0  0.50000  0.50000  0.50001  1.0000
  H   H1        1.0  0.69464  0.00449  0.98368  1.0000
  H   H2        1.0  0.21124  0.49558  0.01630  1.0000
  H   H3        1.0  0.30544  0.99556  0.01632  1.0000
  H   H4        1.0  0.78872  0.50442  0.98370  1.0000
  H   H5        1.0  0.04041  0.15305  0.00125  1.0000
  H   H6        1.0  0.53870  0.34659  0.99902  1.0000
  H   H7        1.0  0.95963  0.84698  0.99873  1.0000
  H   H8        1.0  0.46126  0.65340  0.00102  1.0000
  H   H9        1.0  0.01993  0.24671  0.85714  1.0000
  H   H10       1.0  0.66199  0.25259  0.14283  1.0000
  H   H11       1.0  0.98009  0.75332  0.14284  1.0000
  H   H12       1.0  0.33798  0.74742  0.85718  1.0000
  H   H13       1.0  0.32805  0.95821  0.82616  1.0000
  H   H14       1.0  0.00181  0.54192  0.17362  1.0000
  H   H15       1.0  0.67202  0.04181  0.17385  1.0000
  H   H16       1.0  0.99814  0.45808  0.82640  1.0000
  H   H17       1.0  0.81304  0.23012  0.66656  1.0000
  H   H18       1.0  0.64586  0.26948  0.33359  1.0000
  H   H19       1.0  0.18695  0.76987  0.33341  1.0000
  H   H20       1.0  0.35414  0.73051  0.66642  1.0000
  H   H21       1.0  0.53557  0.26477  0.66641  1.0000
  H   H22       1.0  0.36826  0.23506  0.33349  1.0000
  H   H23       1.0  0.46443  0.73522  0.33357  1.0000
  H   H24       1.0  0.63170  0.76493  0.66653  1.0000
  H   H25       1.0  0.19443  0.10987  0.63841  1.0000
  H   H26       1.0  0.05572  0.39039  0.36133  1.0000
  H   H27       1.0  0.80558  0.89012  0.36160  1.0000
  H   H28       1.0  0.94430  0.60961  0.63868  1.0000
  H   H29       1.0  0.15702  0.96360  0.64605  1.0000
  H   H30       1.0  0.01159  0.53679  0.35374  1.0000
  H   H31       1.0  0.84301  0.03638  0.35395  1.0000
  H   H32       1.0  0.98841  0.46319  0.64627  1.0000
  C   C1        1.0  0.68630  0.04851  0.92241  1.0000
  C   C2        1.0  0.26381  0.45151  0.07759  1.0000
  C   C3        1.0  0.31374  0.95153  0.07759  1.0000
  C   C4        1.0  0.73617  0.54848  0.92243  1.0000
  C   C5        1.0  0.66358  0.15816  0.76282  1.0000
  C   C6        1.0  0.40010  0.34141  0.23701  1.0000
  C   C7        1.0  0.33644  0.84185  0.23715  1.0000
  C   C8        1.0  0.59985  0.65856  0.76298  1.0000
  C   C9        1.0  0.88022  0.13038  0.93176  1.0000
  C   C10       1.0  0.44816  0.36944  0.06843  1.0000
  C   C11       1.0  0.11981  0.86967  0.06823  1.0000
  C   C12       1.0  0.55181  0.63055  0.93159  1.0000
  C   C13       1.0  0.86769  0.18490  0.85178  1.0000
  C   C14       1.0  0.51531  0.31460  0.14823  1.0000
  C   C15       1.0  0.13233  0.81513  0.14820  1.0000
  C   C16       1.0  0.48465  0.68538  0.85177  1.0000
  C   C17       1.0  0.46789  0.07478  0.75297  1.0000
  C   C18       1.0  0.21443  0.42498  0.24667  1.0000
  C   C19       1.0  0.53215  0.92523  0.24702  1.0000
  C   C20       1.0  0.78551  0.57499  0.75334  1.0000
  C   C21       1.0  0.48069  0.02200  0.83423  1.0000
  C   C22       1.0  0.14613  0.47794  0.16549  1.0000
  C   C23       1.0  0.51937  0.97802  0.16577  1.0000
  C   C24       1.0  0.85382  0.52204  0.83452  1.0000
  S   S1        1.0  0.85657  0.74979  0.49977  1.0000
  S   S2        1.0  0.14342  0.25020  0.50024  1.0000
  N   N1        1.0  0.65276  0.19617  0.67044  1.0000
  N   N2        1.0  0.48166  0.30351  0.32951  1.0000
  N   N3        1.0  0.34724  0.80383  0.32953  1.0000
  N   N4        1.0  0.51832  0.69649  0.67051  1.0000
  N   N5        1.0  0.28013  0.03397  0.65244  1.0000
  N   N6        1.0  0.12760  0.46603  0.34718  1.0000
  N   N7        1.0  0.71990  0.96602  0.34755  1.0000
  N   N8        1.0  0.87238  0.53396  0.65283  1.0000
  O   O1        1.0  0.95965  0.78099  0.41831  1.0000
  O   O2        1.0  0.04135  0.71772  0.58073  1.0000
  O   O3        1.0  0.04035  0.21901  0.58171  1.0000
  O   O4        1.0  0.95862  0.28229  0.41929  1.0000
  O   O5        1.0  0.74662  0.86824  0.57238  1.0000
  O   O6        1.0  0.67176  0.63226  0.42761  1.0000
  O   O7        1.0  0.25334  0.13173  0.42761  1.0000
  O   O8        1.0  0.32826  0.36773  0.57240  1.0000
