data_image0
_chemical_formula_structural       Cu16H32C40I16N8
_chemical_formula_sum              "Cu16 H32 C40 I16 N8"
_cell_length_a       4.07475
_cell_length_b       13.2672
_cell_length_c       31.498
_cell_angle_alpha    99.9863
_cell_angle_beta     90
_cell_angle_gamma    90

_space_group_name_H-M_alt    "P 1"
_space_group_IT_number       1

loop_
  _space_group_symop_operation_xyz
  'x, y, z'

loop_
  _atom_site_type_symbol
  _atom_site_label
  _atom_site_symmetry_multiplicity
  _atom_site_fract_x
  _atom_site_fract_y
  _atom_site_fract_z
  _atom_site_occupancy
  Cu  Cu1       1.0  0.13472  0.98487  0.91005  1.0000
  Cu  Cu2       1.0  0.63471  0.01513  0.58995  1.0000
  Cu  Cu3       1.0  0.86530  0.01513  0.08995  1.0000
  Cu  Cu4       1.0  0.36528  0.98487  0.41005  1.0000
  Cu  Cu5       1.0  0.58720  0.71377  0.86525  1.0000
  Cu  Cu6       1.0  0.08720  0.28623  0.63475  1.0000
  Cu  Cu7       1.0  0.41280  0.28623  0.13475  1.0000
  Cu  Cu8       1.0  0.91280  0.71377  0.36525  1.0000
  Cu  Cu9       1.0  0.09020  0.58679  0.85745  1.0000
  Cu  Cu10      1.0  0.59019  0.41321  0.64255  1.0000
  Cu  Cu11      1.0  0.90981  0.41321  0.14255  1.0000
  Cu  Cu12      1.0  0.40980  0.58679  0.35745  1.0000
  Cu  Cu13      1.0  0.09239  0.56548  0.75396  1.0000
  Cu  Cu14      1.0  0.59238  0.43452  0.74604  1.0000
  Cu  Cu15      1.0  0.90762  0.43451  0.24604  1.0000
  Cu  Cu16      1.0  0.40762  0.56548  0.25396  1.0000
  H   H1        1.0  0.83814  0.10764  0.99517  1.0000
  H   H2        1.0  0.33813  0.89236  0.50483  1.0000
  H   H3        1.0  0.16185  0.89236  0.00483  1.0000
  H   H4        1.0  0.66184  0.10763  0.49517  1.0000
  H   H5        1.0  0.72323  0.29223  0.02233  1.0000
  H   H6        1.0  0.22321  0.70777  0.47768  1.0000
  H   H7        1.0  0.27676  0.70777  0.97768  1.0000
  H   H8        1.0  0.77676  0.29222  0.52232  1.0000
  H   H9        1.0  0.88301  0.42125  0.97574  1.0000
  H   H10       1.0  0.38300  0.57875  0.52426  1.0000
  H   H11       1.0  0.11699  0.57876  0.02426  1.0000
  H   H12       1.0  0.61700  0.42125  0.47574  1.0000
  H   H13       1.0  0.15806  0.36017  0.90555  1.0000
  H   H14       1.0  0.65808  0.63983  0.59445  1.0000
  H   H15       1.0  0.84194  0.63983  0.09446  1.0000
  H   H16       1.0  0.34195  0.36017  0.40554  1.0000
  H   H17       1.0  0.51319  0.29963  0.85824  1.0000
  H   H18       1.0  0.01319  0.70037  0.64175  1.0000
  H   H19       1.0  0.48683  0.70037  0.14176  1.0000
  H   H20       1.0  0.98680  0.29963  0.35824  1.0000
  H   H21       1.0  0.76316  0.21584  0.78901  1.0000
  H   H22       1.0  0.26315  0.78415  0.71099  1.0000
  H   H23       1.0  0.23685  0.78415  0.21099  1.0000
  H   H24       1.0  0.73684  0.21585  0.28901  1.0000
  H   H25       1.0  0.72538  0.02367  0.76835  1.0000
  H   H26       1.0  0.22538  0.97632  0.73165  1.0000
  H   H27       1.0  0.27461  0.97633  0.23165  1.0000
  H   H28       1.0  0.77460  0.02367  0.26835  1.0000
  H   H29       1.0  0.42875  0.92611  0.81773  1.0000
  H   H30       1.0  0.92875  0.07389  0.68228  1.0000
  H   H31       1.0  0.57124  0.07390  0.18228  1.0000
  H   H32       1.0  0.07124  0.92611  0.31773  1.0000
  C   C1        1.0  0.91082  0.16593  0.97652  1.0000
  C   C2        1.0  0.41080  0.83407  0.52348  1.0000
  C   C3        1.0  0.08918  0.83407  0.02348  1.0000
  C   C4        1.0  0.58916  0.16593  0.47652  1.0000
  C   C5        1.0  0.84555  0.26895  0.99140  1.0000
  C   C6        1.0  0.34554  0.73105  0.50860  1.0000
  C   C7        1.0  0.15446  0.73105  0.00860  1.0000
  C   C8        1.0  0.65444  0.26895  0.49140  1.0000
  C   C9        1.0  0.93689  0.34009  0.96574  1.0000
  C   C10       1.0  0.43689  0.65991  0.53426  1.0000
  C   C11       1.0  0.06310  0.65991  0.03426  1.0000
  C   C12       1.0  0.56312  0.34009  0.46574  1.0000
  C   C13       1.0  0.09169  0.30605  0.92645  1.0000
  C   C14       1.0  0.59167  0.69395  0.57355  1.0000
  C   C15       1.0  0.90831  0.69396  0.07355  1.0000
  C   C16       1.0  0.40833  0.30605  0.42645  1.0000
  C   C17       1.0  0.15591  0.20149  0.91398  1.0000
  C   C18       1.0  0.65591  0.79851  0.58602  1.0000
  C   C19       1.0  0.84408  0.79852  0.08602  1.0000
  C   C20       1.0  0.34409  0.20149  0.41398  1.0000
  C   C21       1.0  0.31894  0.15790  0.87311  1.0000
  C   C22       1.0  0.81895  0.84209  0.62689  1.0000
  C   C23       1.0  0.68108  0.84210  0.12689  1.0000
  C   C24       1.0  0.18106  0.15791  0.37311  1.0000
  C   C25       1.0  0.48939  0.21732  0.84774  1.0000
  C   C26       1.0  0.98938  0.78267  0.65226  1.0000
  C   C27       1.0  0.51063  0.78268  0.15226  1.0000
  C   C28       1.0  0.01062  0.21732  0.34774  1.0000
  C   C29       1.0  0.63312  0.17027  0.80930  1.0000
  C   C30       1.0  0.13312  0.82973  0.69070  1.0000
  C   C31       1.0  0.36689  0.82974  0.19071  1.0000
  C   C32       1.0  0.86687  0.17027  0.30930  1.0000
  C   C33       1.0  0.61222  0.06402  0.79778  1.0000
  C   C34       1.0  0.11223  0.93598  0.70222  1.0000
  C   C35       1.0  0.38778  0.93598  0.20222  1.0000
  C   C36       1.0  0.88776  0.06402  0.29778  1.0000
  C   C37       1.0  0.44658  0.00936  0.82501  1.0000
  C   C38       1.0  0.94657  0.99064  0.67500  1.0000
  C   C39       1.0  0.55342  0.99065  0.17500  1.0000
  C   C40       1.0  0.05341  0.00935  0.32500  1.0000
  I   I1        1.0  0.63817  0.87756  0.92460  1.0000
  I   I2        1.0  0.13816  0.12244  0.57540  1.0000
  I   I3        1.0  0.36185  0.12244  0.07540  1.0000
  I   I4        1.0  0.86184  0.87756  0.42460  1.0000
  I   I5        1.0  0.08616  0.73569  0.81220  1.0000
  I   I6        1.0  0.58616  0.26431  0.68780  1.0000
  I   I7        1.0  0.91385  0.26431  0.18780  1.0000
  I   I8        1.0  0.41385  0.73568  0.31220  1.0000
  I   I9        1.0  0.59004  0.55637  0.90599  1.0000
  I   I10       1.0  0.09005  0.44363  0.59401  1.0000
  I   I11       1.0  0.40995  0.44363  0.09401  1.0000
  I   I12       1.0  0.90994  0.55637  0.40599  1.0000
  I   I13       1.0  0.09137  0.41394  0.79694  1.0000
  I   I14       1.0  0.59137  0.58606  0.70306  1.0000
  I   I15       1.0  0.90864  0.58606  0.20306  1.0000
  I   I16       1.0  0.40863  0.41393  0.29694  1.0000
  N   N1        1.0  0.06456  0.13241  0.93897  1.0000
  N   N2        1.0  0.56455  0.86759  0.56103  1.0000
  N   N3        1.0  0.93545  0.86759  0.06103  1.0000
  N   N4        1.0  0.43544  0.13241  0.43897  1.0000
  N   N5        1.0  0.29708  0.05441  0.86145  1.0000
  N   N6        1.0  0.79708  0.94558  0.63856  1.0000
  N   N7        1.0  0.70293  0.94559  0.13856  1.0000
  N   N8        1.0  0.20293  0.05441  0.36144  1.0000
