data_image0
_chemical_formula_structural       Cu2H14C14I2N4
_chemical_formula_sum              "Cu2 H14 C14 I2 N4"
_cell_length_a       7.73667
_cell_length_b       7.94587
_cell_length_c       8.10346
_cell_angle_alpha    117.152
_cell_angle_beta     90.6595
_cell_angle_gamma    109.374

_space_group_name_H-M_alt    "P 1"
_space_group_IT_number       1

loop_
  _space_group_symop_operation_xyz
  'x, y, z'

loop_
  _atom_site_type_symbol
  _atom_site_label
  _atom_site_symmetry_multiplicity
  _atom_site_fract_x
  _atom_site_fract_y
  _atom_site_fract_z
  _atom_site_occupancy
  Cu  Cu1       1.0  0.83968  0.60263  0.62840  1.0000
  Cu  Cu2       1.0  0.16032  0.39738  0.37161  1.0000
  H   H1        1.0  0.90472  0.15876  0.74496  1.0000
  H   H2        1.0  0.09529  0.84124  0.25503  1.0000
  H   H3        1.0  0.08017  0.18711  0.97026  1.0000
  H   H4        1.0  0.91982  0.81289  0.02974  1.0000
  H   H5        1.0  0.16278  0.98176  0.89880  1.0000
  H   H6        1.0  0.83723  0.01827  0.10121  1.0000
  H   H7        1.0  0.79354  0.07171  0.39288  1.0000
  H   H8        1.0  0.20646  0.92828  0.60711  1.0000
  H   H9        1.0  0.52264  0.85333  0.11235  1.0000
  H   H10       1.0  0.47737  0.14665  0.88763  1.0000
  H   H11       1.0  0.51845  0.68249  0.62293  1.0000
  H   H12       1.0  0.48155  0.31752  0.37708  1.0000
  H   H13       1.0  0.26490  0.56422  0.10686  1.0000
  H   H14       1.0  0.73510  0.43577  0.89314  1.0000
  C   C1        1.0  0.83891  0.99134  0.68164  1.0000
  C   C2        1.0  0.16109  0.00866  0.31835  1.0000
  C   C3        1.0  0.68382  0.88129  0.52045  1.0000
  C   C4        1.0  0.31618  0.11871  0.47955  1.0000
  C   C5        1.0  0.03968  0.02314  0.92327  1.0000
  C   C6        1.0  0.96032  0.97687  0.07673  1.0000
  C   C7        1.0  0.68056  0.93805  0.38072  1.0000
  C   C8        1.0  0.31945  0.06194  0.61928  1.0000
  C   C9        1.0  0.53078  0.81949  0.22766  1.0000
  C   C10       1.0  0.46922  0.18050  0.77234  1.0000
  C   C11       1.0  0.52864  0.71948  0.50843  1.0000
  C   C12       1.0  0.47136  0.28052  0.49157  1.0000
  C   C13       1.0  0.38517  0.65691  0.22335  1.0000
  C   C14       1.0  0.61483  0.34309  0.77665  1.0000
  I   I1        1.0  0.14177  0.54886  0.74374  1.0000
  I   I2        1.0  0.85823  0.45115  0.25627  1.0000
  N   N1        1.0  0.89950  0.89674  0.74856  1.0000
  N   N2        1.0  0.10049  0.10326  0.25144  1.0000
  N   N3        1.0  0.38016  0.61135  0.36556  1.0000
  N   N4        1.0  0.61984  0.38866  0.63444  1.0000
