data_image0
_chemical_formula_structural       Cu4H28C28I4N8
_chemical_formula_sum              "Cu4 H28 C28 I4 N8"
_cell_length_a       8.89569
_cell_length_b       10.4036
_cell_length_c       10.4796
_cell_angle_alpha    105.88
_cell_angle_beta     90.0241
_cell_angle_gamma    115.308

_space_group_name_H-M_alt    "P 1"
_space_group_IT_number       1

loop_
  _space_group_symop_operation_xyz
  'x, y, z'

loop_
  _atom_site_type_symbol
  _atom_site_label
  _atom_site_symmetry_multiplicity
  _atom_site_fract_x
  _atom_site_fract_y
  _atom_site_fract_z
  _atom_site_occupancy
  Cu  Cu1       1.0  0.64429  0.06707  0.96569  1.0000
  Cu  Cu2       1.0  0.57733  0.93312  0.53438  1.0000
  Cu  Cu3       1.0  0.35572  0.93292  0.03431  1.0000
  Cu  Cu4       1.0  0.42266  0.06688  0.46563  1.0000
  H   H1        1.0  0.22482  0.42780  0.92371  1.0000
  H   H2        1.0  0.79692  0.57231  0.57643  1.0000
  H   H3        1.0  0.77517  0.57219  0.07628  1.0000
  H   H4        1.0  0.20309  0.42769  0.42357  1.0000
  H   H5        1.0  0.06971  0.56516  0.30655  1.0000
  H   H6        1.0  0.50472  0.43530  0.19335  1.0000
  H   H7        1.0  0.93029  0.43485  0.69344  1.0000
  H   H8        1.0  0.49527  0.56470  0.80665  1.0000
  H   H9        1.0  0.80502  0.32193  0.23341  1.0000
  H   H10       1.0  0.48333  0.67856  0.26655  1.0000
  H   H11       1.0  0.19499  0.67808  0.76659  1.0000
  H   H12       1.0  0.51665  0.32144  0.73346  1.0000
  H   H13       1.0  0.27925  0.61875  0.14323  1.0000
  H   H14       1.0  0.66049  0.38150  0.35677  1.0000
  H   H15       1.0  0.72076  0.38125  0.85676  1.0000
  H   H16       1.0  0.33951  0.61850  0.64323  1.0000
  H   H17       1.0  0.99311  0.09272  0.63096  1.0000
  H   H18       1.0  0.90055  0.90729  0.86923  1.0000
  H   H19       1.0  0.00689  0.90728  0.36904  1.0000
  H   H20       1.0  0.09946  0.09271  0.13078  1.0000
  H   H21       1.0  0.15666  0.15300  0.76363  1.0000
  H   H22       1.0  0.00363  0.84695  0.73655  1.0000
  H   H23       1.0  0.84333  0.84700  0.23637  1.0000
  H   H24       1.0  0.99638  0.15306  0.26345  1.0000
  H   H25       1.0  0.11176  0.28555  0.71672  1.0000
  H   H26       1.0  0.82621  0.71445  0.78344  1.0000
  H   H27       1.0  0.88824  0.71445  0.28328  1.0000
  H   H28       1.0  0.17381  0.28556  0.21656  1.0000
  C   C1        1.0  0.98079  0.27818  0.95926  1.0000
  C   C2        1.0  0.70262  0.72201  0.54083  1.0000
  C   C3        1.0  0.01921  0.72181  0.04074  1.0000
  C   C4        1.0  0.29738  0.27799  0.45918  1.0000
  C   C5        1.0  0.93328  0.16452  0.82828  1.0000
  C   C6        1.0  0.76876  0.83556  0.67187  1.0000
  C   C7        1.0  0.06672  0.83548  0.17172  1.0000
  C   C8        1.0  0.23123  0.16445  0.32813  1.0000
  C   C9        1.0  0.13395  0.40792  0.99429  1.0000
  C   C10       1.0  0.72601  0.59223  0.50578  1.0000
  C   C11       1.0  0.86605  0.59208  0.00571  1.0000
  C   C12       1.0  0.27399  0.40776  0.49422  1.0000
  C   C13       1.0  0.04734  0.48500  0.20784  1.0000
  C   C14       1.0  0.56249  0.51538  0.29212  1.0000
  C   C15       1.0  0.95265  0.51500  0.79216  1.0000
  C   C16       1.0  0.43750  0.48462  0.70788  1.0000
  C   C17       1.0  0.90015  0.35200  0.16738  1.0000
  C   C18       1.0  0.54832  0.64842  0.33259  1.0000
  C   C19       1.0  0.09986  0.64800  0.83262  1.0000
  C   C20       1.0  0.45168  0.35158  0.66741  1.0000
  C   C21       1.0  0.16538  0.51353  0.11850  1.0000
  C   C22       1.0  0.65186  0.48675  0.38150  1.0000
  C   C23       1.0  0.83462  0.48647  0.88149  1.0000
  C   C24       1.0  0.34815  0.51325  0.61850  1.0000
  C   C25       1.0  0.05443  0.17381  0.72900  1.0000
  C   C26       1.0  0.88063  0.82620  0.77118  1.0000
  C   C27       1.0  0.94557  0.82619  0.27100  1.0000
  C   C28       1.0  0.11938  0.17380  0.22882  1.0000
  I   I1        1.0  0.42082  0.16490  0.95589  1.0000
  I   I2        1.0  0.25593  0.83497  0.54406  1.0000
  I   I3        1.0  0.57919  0.83510  0.04411  1.0000
  I   I4        1.0  0.74406  0.16502  0.45593  1.0000
  N   N1        1.0  0.78087  0.05562  0.80867  1.0000
  N   N2        1.0  0.72528  0.94446  0.69147  1.0000
  N   N3        1.0  0.21913  0.94438  0.19133  1.0000
  N   N4        1.0  0.27471  0.05553  0.30853  1.0000
  N   N5        1.0  0.86588  0.25170  0.04619  1.0000
  N   N6        1.0  0.61432  0.74861  0.45385  1.0000
  N   N7        1.0  0.13413  0.74830  0.95382  1.0000
  N   N8        1.0  0.38567  0.25139  0.54615  1.0000
