data_image0
_chemical_formula_structural       Cu4H28C28I4N8
_chemical_formula_sum              "Cu4 H28 C28 I4 N8"
_cell_length_a       8.25077
_cell_length_b       8.25075
_cell_length_c       13.7845
_cell_angle_alpha    100.435
_cell_angle_beta     100.434
_cell_angle_gamma    107.121

_space_group_name_H-M_alt    "P 1"
_space_group_IT_number       1

loop_
  _space_group_symop_operation_xyz
  'x, y, z'

loop_
  _atom_site_type_symbol
  _atom_site_label
  _atom_site_symmetry_multiplicity
  _atom_site_fract_x
  _atom_site_fract_y
  _atom_site_fract_z
  _atom_site_occupancy
  Cu  Cu1       1.0  0.21268  0.78732  0.75000  1.0000
  Cu  Cu2       1.0  0.78732  0.21268  0.25000  1.0000
  Cu  Cu3       1.0  0.01436  0.98564  0.75000  1.0000
  Cu  Cu4       1.0  0.98564  0.01436  0.25000  1.0000
  H   H1        1.0  0.98729  0.33473  0.81586  1.0000
  H   H2        1.0  0.66527  0.01271  0.68414  1.0000
  H   H3        1.0  0.01272  0.66528  0.18415  1.0000
  H   H4        1.0  0.33472  0.98730  0.31586  1.0000
  H   H5        1.0  0.82793  0.47036  0.92214  1.0000
  H   H6        1.0  0.52965  0.17210  0.57787  1.0000
  H   H7        1.0  0.17211  0.52966  0.07788  1.0000
  H   H8        1.0  0.47035  0.82791  0.42212  1.0000
  H   H9        1.0  0.71036  0.01192  0.04358  1.0000
  H   H10       1.0  0.98808  0.28964  0.45642  1.0000
  H   H11       1.0  0.28963  0.98808  0.95641  1.0000
  H   H12       1.0  0.01192  0.71033  0.54358  1.0000
  H   H13       1.0  0.85591  0.88431  0.92027  1.0000
  H   H14       1.0  0.11568  0.14408  0.57973  1.0000
  H   H15       1.0  0.14408  0.11569  0.07973  1.0000
  H   H16       1.0  0.88430  0.85589  0.42027  1.0000
  H   H17       1.0  0.61229  0.42818  0.03076  1.0000
  H   H18       1.0  0.57183  0.38772  0.46924  1.0000
  H   H19       1.0  0.38773  0.57184  0.96924  1.0000
  H   H20       1.0  0.42817  0.61227  0.53075  1.0000
  H   H21       1.0  0.41633  0.26518  0.19092  1.0000
  H   H22       1.0  0.73481  0.58367  0.30908  1.0000
  H   H23       1.0  0.58366  0.73482  0.80908  1.0000
  H   H24       1.0  0.26518  0.41633  0.69091  1.0000
  H   H25       1.0  0.49420  0.46704  0.15604  1.0000
  H   H26       1.0  0.53296  0.50580  0.34396  1.0000
  H   H27       1.0  0.50580  0.53296  0.84396  1.0000
  H   H28       1.0  0.46704  0.49420  0.65604  1.0000
  C   C1        1.0  0.92309  0.26587  0.86649  1.0000
  C   C2        1.0  0.73414  0.07692  0.63351  1.0000
  C   C3        1.0  0.07693  0.73415  0.13352  1.0000
  C   C4        1.0  0.26586  0.92308  0.36649  1.0000
  C   C5        1.0  0.83498  0.34214  0.92717  1.0000
  C   C6        1.0  0.65786  0.16504  0.57284  1.0000
  C   C7        1.0  0.16505  0.65787  0.07284  1.0000
  C   C8        1.0  0.34213  0.83496  0.42716  1.0000
  C   C9        1.0  0.75921  0.25417  0.99455  1.0000
  C   C10       1.0  0.74584  0.24080  0.50545  1.0000
  C   C11       1.0  0.24080  0.74584  0.00546  1.0000
  C   C12       1.0  0.25417  0.75920  0.49454  1.0000
  C   C13       1.0  0.76922  0.08704  0.99376  1.0000
  C   C14       1.0  0.91296  0.23078  0.50624  1.0000
  C   C15       1.0  0.23078  0.91296  0.00624  1.0000
  C   C16       1.0  0.08704  0.76920  0.49375  1.0000
  C   C17       1.0  0.85134  0.01647  0.92644  1.0000
  C   C18       1.0  0.98352  0.14865  0.57356  1.0000
  C   C19       1.0  0.14865  0.98352  0.07356  1.0000
  C   C20       1.0  0.01647  0.85133  0.42644  1.0000
  C   C21       1.0  0.66721  0.33386  0.05909  1.0000
  C   C22       1.0  0.66615  0.33281  0.44092  1.0000
  C   C23       1.0  0.33281  0.66615  0.94092  1.0000
  C   C24       1.0  0.33385  0.66718  0.55908  1.0000
  C   C25       1.0  0.53485  0.37381  0.19434  1.0000
  C   C26       1.0  0.62618  0.46515  0.30566  1.0000
  C   C27       1.0  0.46514  0.62619  0.80566  1.0000
  C   C28       1.0  0.37381  0.53486  0.69434  1.0000
  I   I1        1.0  0.87721  0.64587  0.72756  1.0000
  I   I2        1.0  0.35413  0.12279  0.77243  1.0000
  I   I3        1.0  0.12279  0.35414  0.27244  1.0000
  I   I4        1.0  0.64586  0.87721  0.22756  1.0000
  N   N1        1.0  0.93057  0.10379  0.86435  1.0000
  N   N2        1.0  0.89620  0.06942  0.63564  1.0000
  N   N3        1.0  0.06943  0.89621  0.13565  1.0000
  N   N4        1.0  0.10379  0.93057  0.36436  1.0000
  N   N5        1.0  0.64705  0.29893  0.14445  1.0000
  N   N6        1.0  0.70107  0.35295  0.35555  1.0000
  N   N7        1.0  0.35294  0.70106  0.85555  1.0000
  N   N8        1.0  0.29894  0.64706  0.64445  1.0000
