data_image0
_chemical_formula_structural       Ag2H40C52N14O6
_chemical_formula_sum              "Ag2 H40 C52 N14 O6"
_cell_length_a       10.3248
_cell_length_b       10.9412
_cell_length_c       11.2975
_cell_angle_alpha    105.947
_cell_angle_beta     91.4897
_cell_angle_gamma    103.131

_space_group_name_H-M_alt    "P 1"
_space_group_IT_number       1

loop_
  _space_group_symop_operation_xyz
  'x, y, z'

loop_
  _atom_site_type_symbol
  _atom_site_label
  _atom_site_symmetry_multiplicity
  _atom_site_fract_x
  _atom_site_fract_y
  _atom_site_fract_z
  _atom_site_occupancy
  Ag  Ag1       1.0  0.14925  0.33606  0.98401  1.0000
  Ag  Ag2       1.0  0.85075  0.66394  0.01599  1.0000
  H   H1        1.0  0.31995  0.59137  0.95148  1.0000
  H   H2        1.0  0.68004  0.40862  0.04853  1.0000
  H   H3        1.0  0.53082  0.66939  0.86056  1.0000
  H   H4        1.0  0.46917  0.33062  0.13945  1.0000
  H   H5        1.0  0.65832  0.50194  0.75611  1.0000
  H   H6        1.0  0.34167  0.49807  0.24389  1.0000
  H   H7        1.0  0.34335  0.20512  0.82542  1.0000
  H   H8        1.0  0.65665  0.79488  0.17457  1.0000
  H   H9        1.0  0.67299  0.27541  0.68730  1.0000
  H   H10       1.0  0.32700  0.72459  0.31270  1.0000
  H   H11       1.0  0.78239  0.99314  0.51107  1.0000
  H   H12       1.0  0.21760  0.00686  0.48894  1.0000
  H   H13       1.0  0.90630  0.84614  0.37377  1.0000
  H   H14       1.0  0.09370  0.15387  0.62623  1.0000
  H   H15       1.0  0.85772  0.61155  0.36084  1.0000
  H   H16       1.0  0.14228  0.38846  0.63916  1.0000
  H   H17       1.0  0.68788  0.51956  0.48718  1.0000
  H   H18       1.0  0.31213  0.48045  0.51283  1.0000
  H   H19       1.0  0.56396  0.66418  0.62268  1.0000
  H   H20       1.0  0.43605  0.33582  0.37733  1.0000
  H   H21       1.0  0.31742  0.72515  0.84274  1.0000
  H   H22       1.0  0.68257  0.27485  0.15726  1.0000
  H   H23       1.0  0.08736  0.59301  0.75275  1.0000
  H   H24       1.0  0.91263  0.40699  0.24725  1.0000
  H   H25       1.0  0.99968  0.60085  0.54988  1.0000
  H   H26       1.0  0.00032  0.39915  0.45011  1.0000
  H   H27       1.0  0.13959  0.73444  0.43281  1.0000
  H   H28       1.0  0.86041  0.26556  0.56718  1.0000
  H   H29       1.0  0.36876  0.86328  0.52071  1.0000
  H   H30       1.0  0.63124  0.13672  0.47930  1.0000
  H   H31       1.0  0.62126  0.92365  0.06044  1.0000
  H   H32       1.0  0.37875  0.07634  0.93956  1.0000
  H   H33       1.0  0.80986  0.96284  0.22356  1.0000
  H   H34       1.0  0.19015  0.03716  0.77643  1.0000
  H   H35       1.0  0.03923  0.09286  0.32125  1.0000
  H   H36       1.0  0.96077  0.90714  0.67875  1.0000
  H   H37       1.0  0.17294  0.24695  0.21916  1.0000
  H   H38       1.0  0.82706  0.75305  0.78084  1.0000
  H   H39       1.0  0.87593  0.14798  0.93056  1.0000
  H   H40       1.0  0.12407  0.85202  0.06944  1.0000
  C   C1        1.0  0.37553  0.52357  0.90054  1.0000
  C   C2        1.0  0.62447  0.47643  0.09946  1.0000
  C   C3        1.0  0.49371  0.56519  0.85073  1.0000
  C   C4        1.0  0.50628  0.43481  0.14927  1.0000
  C   C5        1.0  0.56247  0.47337  0.79208  1.0000
  C   C6        1.0  0.43753  0.52664  0.20791  1.0000
  C   C7        1.0  0.50892  0.34070  0.78291  1.0000
  C   C8        1.0  0.49107  0.65930  0.21709  1.0000
  C   C9        1.0  0.38753  0.30729  0.83258  1.0000
  C   C10       1.0  0.61246  0.69271  0.16741  1.0000
  C   C11       1.0  0.57794  0.24196  0.72338  1.0000
  C   C12       1.0  0.42205  0.75804  0.27661  1.0000
  C   C13       1.0  0.59042  0.92501  0.65356  1.0000
  C   C14       1.0  0.40958  0.07499  0.34645  1.0000
  C   C15       1.0  0.66484  0.83875  0.57566  1.0000
  C   C16       1.0  0.33516  0.16125  0.42435  1.0000
  C   C17       1.0  0.76221  0.88925  0.50461  1.0000
  C   C18       1.0  0.23778  0.11076  0.49539  1.0000
  C   C19       1.0  0.83057  0.80749  0.42851  1.0000
  C   C20       1.0  0.16943  0.19252  0.57149  1.0000
  C   C21       1.0  0.80372  0.67417  0.42160  1.0000
  C   C22       1.0  0.19628  0.32583  0.57840  1.0000
  C   C23       1.0  0.70832  0.62327  0.49210  1.0000
  C   C24       1.0  0.29168  0.37674  0.50791  1.0000
  C   C25       1.0  0.63936  0.70488  0.56881  1.0000
  C   C26       1.0  0.36064  0.29512  0.43120  1.0000
  C   C27       1.0  0.49624  0.87223  0.73734  1.0000
  C   C28       1.0  0.50376  0.12777  0.26267  1.0000
  C   C29       1.0  0.36003  0.79879  0.68630  1.0000
  C   C30       1.0  0.63996  0.20121  0.31370  1.0000
  C   C31       1.0  0.27872  0.72344  0.75185  1.0000
  C   C32       1.0  0.72128  0.27656  0.24815  1.0000
  C   C33       1.0  0.15090  0.65108  0.70212  1.0000
  C   C34       1.0  0.84910  0.34892  0.29788  1.0000
  C   C35       1.0  0.10113  0.65536  0.58723  1.0000
  C   C36       1.0  0.89887  0.34464  0.41277  1.0000
  C   C37       1.0  0.17954  0.73143  0.52210  1.0000
  C   C38       1.0  0.82047  0.26857  0.47790  1.0000
  C   C39       1.0  0.30886  0.80237  0.57108  1.0000
  C   C40       1.0  0.69114  0.19764  0.42892  1.0000
  C   C41       1.0  0.69485  0.96783  0.00605  1.0000
  C   C42       1.0  0.30515  0.03217  0.99395  1.0000
  C   C43       1.0  0.82638  0.04189  0.06677  1.0000
  C   C44       1.0  0.17362  0.95811  0.93323  1.0000
  C   C45       1.0  0.87289  0.02828  0.17924  1.0000
  C   C46       1.0  0.12712  0.97172  0.82075  1.0000
  C   C47       1.0  0.99905  0.10066  0.23438  1.0000
  C   C48       1.0  0.00095  0.89934  0.76562  1.0000
  C   C49       1.0  0.07457  0.18711  0.17774  1.0000
  C   C50       1.0  0.92544  0.81289  0.82225  1.0000
  C   C51       1.0  0.90909  0.13136  0.01596  1.0000
  C   C52       1.0  0.09091  0.86864  0.98404  1.0000
  N   N1        1.0  0.32298  0.39614  0.89129  1.0000
  N   N2        1.0  0.67702  0.60386  0.10871  1.0000
  N   N3        1.0  0.53006  0.11853  0.71189  1.0000
  N   N4        1.0  0.46994  0.88147  0.28811  1.0000
  N   N5        1.0  0.60774  0.04313  0.64420  1.0000
  N   N6        1.0  0.39226  0.95688  0.35580  1.0000
  N   N7        1.0  0.53302  0.88494  0.85221  1.0000
  N   N8        1.0  0.46698  0.11506  0.14779  1.0000
  N   N9        1.0  0.66379  0.95525  0.89074  1.0000
  N   N10       1.0  0.33621  0.04474  0.10926  1.0000
  N   N11       1.0  0.02995  0.20272  0.07072  1.0000
  N   N12       1.0  0.97006  0.79728  0.92928  1.0000
  N   N13       1.0  0.90223  0.39802  0.84160  1.0000
  N   N14       1.0  0.09777  0.60198  0.15840  1.0000
  O   O1        1.0  0.86174  0.41300  0.94909  1.0000
  O   O2        1.0  0.13826  0.58700  0.05091  1.0000
  O   O3        1.0  0.96682  0.31156  0.80041  1.0000
  O   O4        1.0  0.03318  0.68844  0.19959  1.0000
  O   O5        1.0  0.87855  0.46925  0.77611  1.0000
  O   O6        1.0  0.12145  0.53075  0.22388  1.0000
