data_image0
_chemical_formula_structural       Cu2H40C52I2N12
_chemical_formula_sum              "Cu2 H40 C52 I2 N12"
_cell_length_a       8.46158
_cell_length_b       10.484
_cell_length_c       15.891
_cell_angle_alpha    91.724
_cell_angle_beta     97.3
_cell_angle_gamma    104.337

_space_group_name_H-M_alt    "P 1"
_space_group_IT_number       1

loop_
  _space_group_symop_operation_xyz
  'x, y, z'

loop_
  _atom_site_type_symbol
  _atom_site_label
  _atom_site_symmetry_multiplicity
  _atom_site_fract_x
  _atom_site_fract_y
  _atom_site_fract_z
  _atom_site_occupancy
  Cu  Cu1       1.0  0.92406  0.99790  0.06350  1.0000
  Cu  Cu2       1.0  0.07594  0.00210  0.93650  1.0000
  H   H1        1.0  0.01945  0.76281  0.14482  1.0000
  H   H2        1.0  0.98055  0.23719  0.85518  1.0000
  H   H3        1.0  0.90870  0.60619  0.25145  1.0000
  H   H4        1.0  0.09131  0.39381  0.74855  1.0000
  H   H5        1.0  0.64040  0.61439  0.30153  1.0000
  H   H6        1.0  0.35960  0.38561  0.69847  1.0000
  H   H7        1.0  0.61237  0.91863  0.12790  1.0000
  H   H8        1.0  0.38763  0.08137  0.87210  1.0000
  H   H9        1.0  0.40506  0.86548  0.21118  1.0000
  H   H10       1.0  0.59494  0.13452  0.78882  1.0000
  H   H11       1.0  0.95082  0.64013  0.48372  1.0000
  H   H12       1.0  0.04918  0.35987  0.51628  1.0000
  H   H13       1.0  0.71267  0.72333  0.51083  1.0000
  H   H14       1.0  0.28733  0.27667  0.48917  1.0000
  H   H15       1.0  0.66881  0.92660  0.44698  1.0000
  H   H16       1.0  0.33119  0.07340  0.55302  1.0000
  H   H17       1.0  0.86949  0.05225  0.35820  1.0000
  H   H18       1.0  0.13051  0.94775  0.64180  1.0000
  H   H19       1.0  0.10922  0.96686  0.32918  1.0000
  H   H20       1.0  0.89078  0.03314  0.67082  1.0000
  H   H21       1.0  0.36086  0.89753  0.50194  1.0000
  H   H22       1.0  0.63913  0.10247  0.49807  1.0000
  H   H23       1.0  0.55202  0.98025  0.63593  1.0000
  H   H24       1.0  0.44797  0.01975  0.36407  1.0000
  H   H25       1.0  0.64820  0.82274  0.72973  1.0000
  H   H26       1.0  0.35180  0.17726  0.27027  1.0000
  H   H27       1.0  0.56280  0.58073  0.68644  1.0000
  H   H28       1.0  0.43720  0.41926  0.31355  1.0000
  H   H29       1.0  0.37233  0.49891  0.55302  1.0000
  H   H30       1.0  0.62767  0.50109  0.44697  1.0000
  H   H31       1.0  0.16318  0.32469  0.33724  1.0000
  H   H32       1.0  0.83683  0.67531  0.66276  1.0000
  H   H33       1.0  0.74896  0.40199  0.27227  1.0000
  H   H34       1.0  0.25104  0.59801  0.72773  1.0000
  H   H35       1.0  0.55829  0.29154  0.14060  1.0000
  H   H36       1.0  0.44171  0.70847  0.85940  1.0000
  H   H37       1.0  0.65276  0.13863  0.04656  1.0000
  H   H38       1.0  0.34724  0.86137  0.95344  1.0000
  H   H39       1.0  0.09559  0.18950  0.20389  1.0000
  H   H40       1.0  0.90441  0.81049  0.79611  1.0000
  C   C1        1.0  0.89985  0.75893  0.16489  1.0000
  C   C2        1.0  0.10016  0.24108  0.83511  1.0000
  C   C3        1.0  0.83706  0.67209  0.22449  1.0000
  C   C4        1.0  0.16295  0.32792  0.77551  1.0000
  C   C5        1.0  0.68921  0.67642  0.25231  1.0000
  C   C6        1.0  0.31079  0.32359  0.74769  1.0000
  C   C7        1.0  0.60553  0.76751  0.21810  1.0000
  C   C8        1.0  0.39447  0.23249  0.78190  1.0000
  C   C9        1.0  0.67533  0.84787  0.15650  1.0000
  C   C10       1.0  0.32468  0.15213  0.84350  1.0000
  C   C11       1.0  0.45745  0.79177  0.24489  1.0000
  C   C12       1.0  0.54255  0.20823  0.75511  1.0000
  C   C13       1.0  0.18336  0.74494  0.38528  1.0000
  C   C14       1.0  0.81664  0.25505  0.61472  1.0000
  C   C15       1.0  0.04676  0.79869  0.40477  1.0000
  C   C16       1.0  0.95324  0.20130  0.59522  1.0000
  C   C17       1.0  0.93554  0.73142  0.45685  1.0000
  C   C18       1.0  0.06446  0.26858  0.54315  1.0000
  C   C19       1.0  0.80013  0.77760  0.47162  1.0000
  C   C20       1.0  0.19987  0.22240  0.52837  1.0000
  C   C21       1.0  0.77604  0.89233  0.43581  1.0000
  C   C22       1.0  0.22396  0.10767  0.56419  1.0000
  C   C23       1.0  0.88800  0.96185  0.38537  1.0000
  C   C24       1.0  0.11199  0.03815  0.61463  1.0000
  C   C25       1.0  0.02235  0.91534  0.36950  1.0000
  C   C26       1.0  0.97765  0.08466  0.63050  1.0000
  C   C27       1.0  0.23417  0.64531  0.44192  1.0000
  C   C28       1.0  0.76583  0.35469  0.55808  1.0000
  C   C29       1.0  0.35201  0.69273  0.51924  1.0000
  C   C30       1.0  0.64799  0.30727  0.48076  1.0000
  C   C31       1.0  0.40526  0.82844  0.54278  1.0000
  C   C32       1.0  0.59474  0.17156  0.45722  1.0000
  C   C33       1.0  0.51161  0.87479  0.61784  1.0000
  C   C34       1.0  0.48839  0.12521  0.38216  1.0000
  C   C35       1.0  0.56745  0.78597  0.67022  1.0000
  C   C36       1.0  0.43255  0.21403  0.32978  1.0000
  C   C37       1.0  0.51770  0.65067  0.64651  1.0000
  C   C38       1.0  0.48230  0.34933  0.35349  1.0000
  C   C39       1.0  0.41114  0.60395  0.57183  1.0000
  C   C40       1.0  0.58885  0.39605  0.42817  1.0000
  C   C41       1.0  0.06150  0.37039  0.31845  1.0000
  C   C42       1.0  0.93851  0.62960  0.68155  1.0000
  C   C43       1.0  0.93984  0.30829  0.24663  1.0000
  C   C44       1.0  0.06016  0.69171  0.75337  1.0000
  C   C45       1.0  0.78509  0.33588  0.22873  1.0000
  C   C46       1.0  0.21491  0.66413  0.77127  1.0000
  C   C47       1.0  0.68023  0.27467  0.15667  1.0000
  C   C48       1.0  0.31977  0.72533  0.84333  1.0000
  C   C49       1.0  0.73077  0.18744  0.10439  1.0000
  C   C50       1.0  0.26923  0.81257  0.89561  1.0000
  C   C51       1.0  0.97817  0.21637  0.19210  1.0000
  C   C52       1.0  0.02183  0.78363  0.80790  1.0000
  I   I1        1.0  0.24704  0.03062  0.08985  1.0000
  I   I2        1.0  0.75296  0.96937  0.91016  1.0000
  N   N1        1.0  0.82048  0.84628  0.13112  1.0000
  N   N2        1.0  0.17952  0.15373  0.86888  1.0000
  N   N3        1.0  0.38841  0.73585  0.30745  1.0000
  N   N4        1.0  0.61159  0.26415  0.69255  1.0000
  N   N5        1.0  0.25608  0.78721  0.32047  1.0000
  N   N6        1.0  0.74392  0.21279  0.67953  1.0000
  N   N7        1.0  0.17487  0.51913  0.42662  1.0000
  N   N8        1.0  0.82512  0.48087  0.57339  1.0000
  N   N9        1.0  0.05490  0.47833  0.35796  1.0000
  N   N10       1.0  0.94510  0.52167  0.64204  1.0000
  N   N11       1.0  0.87700  0.15686  0.12220  1.0000
  N   N12       1.0  0.12300  0.84314  0.87780  1.0000
