data_image0
_chemical_formula_structural       Mn2H24C32N16O4
_chemical_formula_sum              "Mn2 H24 C32 N16 O4"
_cell_length_a       7.1097
_cell_length_b       10.2324
_cell_length_c       12.2544
_cell_angle_alpha    90
_cell_angle_beta     90
_cell_angle_gamma    103.822

_space_group_name_H-M_alt    "P 1"
_space_group_IT_number       1

loop_
  _space_group_symop_operation_xyz
  'x, y, z'

loop_
  _atom_site_type_symbol
  _atom_site_label
  _atom_site_symmetry_multiplicity
  _atom_site_fract_x
  _atom_site_fract_y
  _atom_site_fract_z
  _atom_site_occupancy
  Mn  Mn1       1.0  1.00000  1.00000  1.00000  1.0000
  Mn  Mn2       1.0  0.50000  0.50000  0.50000  1.0000
  H   H1        1.0  0.96844  0.21975  0.20197  1.0000
  H   H2        1.0  0.46843  0.71975  0.29803  1.0000
  H   H3        1.0  0.03156  0.78025  0.79803  1.0000
  H   H4        1.0  0.53157  0.28025  0.70197  1.0000
  H   H5        1.0  0.85160  0.20956  0.39744  1.0000
  H   H6        1.0  0.35160  0.70956  0.10256  1.0000
  H   H7        1.0  0.14840  0.79044  0.60256  1.0000
  H   H8        1.0  0.64841  0.29044  0.89744  1.0000
  H   H9        1.0  0.57016  0.15331  0.52057  1.0000
  H   H10       1.0  0.07016  0.65332  0.97943  1.0000
  H   H11       1.0  0.42984  0.84669  0.47943  1.0000
  H   H12       1.0  0.92984  0.34669  0.02056  1.0000
  H   H13       1.0  0.33940  0.07078  0.46988  1.0000
  H   H14       1.0  0.83940  0.57078  0.03012  1.0000
  H   H15       1.0  0.66060  0.92922  0.53012  1.0000
  H   H16       1.0  0.16060  0.42923  0.96988  1.0000
  H   H17       1.0  0.31678  0.94938  0.28600  1.0000
  H   H18       1.0  0.81678  0.44938  0.21400  1.0000
  H   H19       1.0  0.68322  0.05062  0.71400  1.0000
  H   H20       1.0  0.18322  0.55062  0.78600  1.0000
  H   H21       1.0  0.45148  0.97220  0.09573  1.0000
  H   H22       1.0  0.95148  0.47220  0.40426  1.0000
  H   H23       1.0  0.54852  0.02780  0.90427  1.0000
  H   H24       1.0  0.04852  0.52780  0.59573  1.0000
  C   C1        1.0  0.82625  0.16266  0.22760  1.0000
  C   C2        1.0  0.32624  0.66266  0.27240  1.0000
  C   C3        1.0  0.17375  0.83734  0.77240  1.0000
  C   C4        1.0  0.67375  0.33734  0.72760  1.0000
  C   C5        1.0  0.75871  0.15403  0.33381  1.0000
  C   C6        1.0  0.25871  0.65403  0.16618  1.0000
  C   C7        1.0  0.24129  0.84597  0.66619  1.0000
  C   C8        1.0  0.74129  0.34597  0.83382  1.0000
  C   C9        1.0  0.57229  0.07766  0.35865  1.0000
  C   C10       1.0  0.07229  0.57766  0.14135  1.0000
  C   C11       1.0  0.42771  0.92235  0.64135  1.0000
  C   C12       1.0  0.92771  0.42235  0.85865  1.0000
  C   C13       1.0  0.49248  0.06652  0.47238  1.0000
  C   C14       1.0  0.99249  0.56653  0.02762  1.0000
  C   C15       1.0  0.50752  0.93347  0.52762  1.0000
  C   C16       1.0  0.00752  0.43348  0.97238  1.0000
  C   C17       1.0  0.46252  0.00997  0.27187  1.0000
  C   C18       1.0  0.96252  0.50997  0.22813  1.0000
  C   C19       1.0  0.53748  0.99003  0.72813  1.0000
  C   C20       1.0  0.03748  0.49004  0.77187  1.0000
  C   C21       1.0  0.53314  0.01980  0.16635  1.0000
  C   C22       1.0  0.03314  0.51980  0.33365  1.0000
  C   C23       1.0  0.46686  0.98020  0.83365  1.0000
  C   C24       1.0  0.96686  0.48020  0.66635  1.0000
  C   C25       1.0  0.66010  0.74372  0.90264  1.0000
  C   C26       1.0  0.16011  0.24372  0.59736  1.0000
  C   C27       1.0  0.33990  0.25628  0.09736  1.0000
  C   C28       1.0  0.83991  0.75629  0.40264  1.0000
  C   C29       1.0  0.52850  0.61928  0.75260  1.0000
  C   C30       1.0  0.02851  0.11928  0.74740  1.0000
  C   C31       1.0  0.47150  0.38072  0.24740  1.0000
  C   C32       1.0  0.97149  0.88072  0.25259  1.0000
  N   N1        1.0  0.71323  0.09721  0.14500  1.0000
  N   N2        1.0  0.21323  0.59721  0.35500  1.0000
  N   N3        1.0  0.28677  0.90279  0.85500  1.0000
  N   N4        1.0  0.78677  0.40279  0.64500  1.0000
  N   N5        1.0  0.76662  0.82696  0.95421  1.0000
  N   N6        1.0  0.26662  0.32695  0.54580  1.0000
  N   N7        1.0  0.23338  0.17304  0.04579  1.0000
  N   N8        1.0  0.73337  0.67304  0.45420  1.0000
  N   N9        1.0  0.53404  0.64836  0.85532  1.0000
  N   N10       1.0  0.03404  0.14835  0.64468  1.0000
  N   N11       1.0  0.46596  0.35164  0.14468  1.0000
  N   N12       1.0  0.96596  0.85165  0.35532  1.0000
  N   N13       1.0  0.50288  0.58216  0.66149  1.0000
  N   N14       1.0  0.00288  0.08216  0.83852  1.0000
  N   N15       1.0  0.49712  0.41784  0.33852  1.0000
  N   N16       1.0  0.99712  0.91784  0.16148  1.0000
  O   O1        1.0  0.77981  0.10835  0.04355  1.0000
  O   O2        1.0  0.27980  0.60834  0.45645  1.0000
  O   O3        1.0  0.22019  0.89165  0.95645  1.0000
  O   O4        1.0  0.72020  0.39165  0.54355  1.0000
