data_image0
_chemical_formula_structural       Co2H24C32N16O4
_chemical_formula_sum              "Co2 H24 C32 N16 O4"
_cell_length_a       7.05875
_cell_length_b       10.1414
_cell_length_c       12.1453
_cell_angle_alpha    89.9999
_cell_angle_beta     90
_cell_angle_gamma    104.532

_space_group_name_H-M_alt    "P 1"
_space_group_IT_number       1

loop_
  _space_group_symop_operation_xyz
  'x, y, z'

loop_
  _atom_site_type_symbol
  _atom_site_label
  _atom_site_symmetry_multiplicity
  _atom_site_fract_x
  _atom_site_fract_y
  _atom_site_fract_z
  _atom_site_occupancy
  Co  Co1       1.0  0.00000  0.00000  1.00000  1.0000
  Co  Co2       1.0  0.50000  0.50000  0.50000  1.0000
  H   H1        1.0  0.97648  0.21540  0.19991  1.0000
  H   H2        1.0  0.47648  0.71540  0.30009  1.0000
  H   H3        1.0  0.02352  0.78460  0.80009  1.0000
  H   H4        1.0  0.52352  0.28461  0.69990  1.0000
  H   H5        1.0  0.85769  0.20821  0.39679  1.0000
  H   H6        1.0  0.35769  0.70821  0.10321  1.0000
  H   H7        1.0  0.14231  0.79179  0.60321  1.0000
  H   H8        1.0  0.64231  0.29179  0.89679  1.0000
  H   H9        1.0  0.57001  0.15556  0.51999  1.0000
  H   H10       1.0  0.07001  0.65556  0.98001  1.0000
  H   H11       1.0  0.42998  0.84444  0.48001  1.0000
  H   H12       1.0  0.92999  0.34444  0.01999  1.0000
  H   H13       1.0  0.33669  0.06898  0.46940  1.0000
  H   H14       1.0  0.83668  0.56897  0.03060  1.0000
  H   H15       1.0  0.66331  0.93102  0.53060  1.0000
  H   H16       1.0  0.16331  0.43102  0.96940  1.0000
  H   H17       1.0  0.31080  0.94917  0.28422  1.0000
  H   H18       1.0  0.81080  0.44917  0.21578  1.0000
  H   H19       1.0  0.68920  0.05083  0.71578  1.0000
  H   H20       1.0  0.18920  0.55082  0.78422  1.0000
  H   H21       1.0  0.44814  0.96923  0.09264  1.0000
  H   H22       1.0  0.94814  0.46923  0.40737  1.0000
  H   H23       1.0  0.55185  0.03077  0.90736  1.0000
  H   H24       1.0  0.05186  0.53077  0.59263  1.0000
  C   C1        1.0  0.83128  0.15952  0.22560  1.0000
  C   C2        1.0  0.33129  0.65952  0.27441  1.0000
  C   C3        1.0  0.16872  0.84048  0.77441  1.0000
  C   C4        1.0  0.66871  0.34048  0.72559  1.0000
  C   C5        1.0  0.76244  0.15261  0.33255  1.0000
  C   C6        1.0  0.26244  0.65261  0.16745  1.0000
  C   C7        1.0  0.23756  0.84739  0.66745  1.0000
  C   C8        1.0  0.73756  0.34739  0.83255  1.0000
  C   C9        1.0  0.57208  0.07739  0.35735  1.0000
  C   C10       1.0  0.07209  0.57739  0.14265  1.0000
  C   C11       1.0  0.42791  0.92261  0.64265  1.0000
  C   C12       1.0  0.92791  0.42261  0.85735  1.0000
  C   C13       1.0  0.49160  0.06676  0.47199  1.0000
  C   C14       1.0  0.99160  0.56676  0.02801  1.0000
  C   C15       1.0  0.50839  0.93324  0.52801  1.0000
  C   C16       1.0  0.00840  0.43324  0.97199  1.0000
  C   C17       1.0  0.45957  0.00909  0.27000  1.0000
  C   C18       1.0  0.95957  0.50908  0.23000  1.0000
  C   C19       1.0  0.54043  0.99091  0.73000  1.0000
  C   C20       1.0  0.04044  0.49091  0.77000  1.0000
  C   C21       1.0  0.53201  0.01717  0.16379  1.0000
  C   C22       1.0  0.03202  0.51717  0.33621  1.0000
  C   C23       1.0  0.46799  0.98283  0.83621  1.0000
  C   C24       1.0  0.96799  0.48282  0.66379  1.0000
  C   C25       1.0  0.67158  0.75257  0.89537  1.0000
  C   C26       1.0  0.17158  0.25257  0.60463  1.0000
  C   C27       1.0  0.32843  0.24743  0.10463  1.0000
  C   C28       1.0  0.82842  0.74743  0.39537  1.0000
  C   C29       1.0  0.53788  0.62508  0.74501  1.0000
  C   C30       1.0  0.03789  0.12508  0.75499  1.0000
  C   C31       1.0  0.46211  0.37492  0.25499  1.0000
  C   C32       1.0  0.96211  0.87492  0.24501  1.0000
  N   N1        1.0  0.71585  0.09329  0.14263  1.0000
  N   N2        1.0  0.21585  0.59329  0.35737  1.0000
  N   N3        1.0  0.28415  0.90671  0.85737  1.0000
  N   N4        1.0  0.78415  0.40671  0.64263  1.0000
  N   N5        1.0  0.78229  0.83748  0.94582  1.0000
  N   N6        1.0  0.28230  0.33748  0.55418  1.0000
  N   N7        1.0  0.21771  0.16252  0.05418  1.0000
  N   N8        1.0  0.71770  0.66252  0.44582  1.0000
  N   N9        1.0  0.54129  0.65563  0.84904  1.0000
  N   N10       1.0  0.04130  0.15563  0.65097  1.0000
  N   N11       1.0  0.45871  0.34437  0.15097  1.0000
  N   N12       1.0  0.95871  0.84437  0.34903  1.0000
  N   N13       1.0  0.51468  0.58593  0.65349  1.0000
  N   N14       1.0  0.01468  0.08593  0.84651  1.0000
  N   N15       1.0  0.48532  0.41407  0.34652  1.0000
  N   N16       1.0  0.98532  0.91407  0.15348  1.0000
  O   O1        1.0  0.78344  0.10297  0.03988  1.0000
  O   O2        1.0  0.28345  0.60298  0.46012  1.0000
  O   O3        1.0  0.21656  0.89703  0.96012  1.0000
  O   O4        1.0  0.71655  0.39702  0.53988  1.0000
