data_image0
_chemical_formula_structural       Ni2H24C32N16O4
_chemical_formula_sum              "Ni2 H24 C32 N16 O4"
_cell_length_a       7.07081
_cell_length_b       10.0901
_cell_length_c       12.1399
_cell_angle_alpha    90
_cell_angle_beta     90.0003
_cell_angle_gamma    104.909

_space_group_name_H-M_alt    "P 1"
_space_group_IT_number       1

loop_
  _space_group_symop_operation_xyz
  'x, y, z'

loop_
  _atom_site_type_symbol
  _atom_site_label
  _atom_site_symmetry_multiplicity
  _atom_site_fract_x
  _atom_site_fract_y
  _atom_site_fract_z
  _atom_site_occupancy
  Ni  Ni1       1.0  0.00000  0.00000  0.00000  1.0000
  Ni  Ni2       1.0  0.50000  0.50000  0.50000  1.0000
  H   H1        1.0  0.97471  0.21641  0.20029  1.0000
  H   H2        1.0  0.47472  0.71640  0.29971  1.0000
  H   H3        1.0  0.02529  0.78359  0.79972  1.0000
  H   H4        1.0  0.52528  0.28359  0.70029  1.0000
  H   H5        1.0  0.85500  0.20788  0.39710  1.0000
  H   H6        1.0  0.35501  0.70788  0.10290  1.0000
  H   H7        1.0  0.14499  0.79212  0.60291  1.0000
  H   H8        1.0  0.64499  0.29211  0.89710  1.0000
  H   H9        1.0  0.56194  0.15730  0.51834  1.0000
  H   H10       1.0  0.06194  0.65730  0.98166  1.0000
  H   H11       1.0  0.43805  0.84269  0.48167  1.0000
  H   H12       1.0  0.93805  0.34269  0.01834  1.0000
  H   H13       1.0  0.33129  0.06284  0.46816  1.0000
  H   H14       1.0  0.83129  0.56283  0.03184  1.0000
  H   H15       1.0  0.66871  0.93716  0.53184  1.0000
  H   H16       1.0  0.16871  0.43717  0.96816  1.0000
  H   H17       1.0  0.30718  0.94811  0.28320  1.0000
  H   H18       1.0  0.80719  0.44811  0.21680  1.0000
  H   H19       1.0  0.69281  0.05189  0.71680  1.0000
  H   H20       1.0  0.19281  0.55189  0.78320  1.0000
  H   H21       1.0  0.44592  0.96845  0.09171  1.0000
  H   H22       1.0  0.94592  0.46845  0.40829  1.0000
  H   H23       1.0  0.55408  0.03155  0.90829  1.0000
  H   H24       1.0  0.05408  0.53155  0.59171  1.0000
  C   C1        1.0  0.82929  0.15973  0.22574  1.0000
  C   C2        1.0  0.32929  0.65973  0.27426  1.0000
  C   C3        1.0  0.17071  0.84027  0.77427  1.0000
  C   C4        1.0  0.67071  0.34027  0.72574  1.0000
  C   C5        1.0  0.76002  0.15209  0.33259  1.0000
  C   C6        1.0  0.26001  0.65209  0.16741  1.0000
  C   C7        1.0  0.23998  0.84791  0.66742  1.0000
  C   C8        1.0  0.73998  0.34791  0.83258  1.0000
  C   C9        1.0  0.56885  0.07664  0.35684  1.0000
  C   C10       1.0  0.06885  0.57663  0.14316  1.0000
  C   C11       1.0  0.43114  0.92336  0.64316  1.0000
  C   C12       1.0  0.93115  0.42336  0.85684  1.0000
  C   C13       1.0  0.48775  0.06566  0.47129  1.0000
  C   C14       1.0  0.98775  0.56566  0.02871  1.0000
  C   C15       1.0  0.51225  0.93434  0.52871  1.0000
  C   C16       1.0  0.01225  0.43434  0.97129  1.0000
  C   C17       1.0  0.45648  0.00824  0.26925  1.0000
  C   C18       1.0  0.95647  0.50824  0.23075  1.0000
  C   C19       1.0  0.54352  0.99176  0.73075  1.0000
  C   C20       1.0  0.04352  0.49176  0.76925  1.0000
  C   C21       1.0  0.52965  0.01642  0.16316  1.0000
  C   C22       1.0  0.02965  0.51642  0.33684  1.0000
  C   C23       1.0  0.47035  0.98359  0.83684  1.0000
  C   C24       1.0  0.97035  0.48358  0.66316  1.0000
  C   C25       1.0  0.67570  0.75380  0.89289  1.0000
  C   C26       1.0  0.17569  0.25379  0.60711  1.0000
  C   C27       1.0  0.32431  0.24621  0.10711  1.0000
  C   C28       1.0  0.82432  0.74621  0.39289  1.0000
  C   C29       1.0  0.54208  0.62600  0.74156  1.0000
  C   C30       1.0  0.04207  0.12599  0.75844  1.0000
  C   C31       1.0  0.45793  0.37400  0.25845  1.0000
  C   C32       1.0  0.95794  0.87401  0.24155  1.0000
  N   N1        1.0  0.71391  0.09356  0.14224  1.0000
  N   N2        1.0  0.21391  0.59355  0.35776  1.0000
  N   N3        1.0  0.28609  0.90644  0.85777  1.0000
  N   N4        1.0  0.78609  0.40644  0.64224  1.0000
  N   N5        1.0  0.78529  0.83924  0.94401  1.0000
  N   N6        1.0  0.28529  0.33923  0.55598  1.0000
  N   N7        1.0  0.21471  0.16077  0.05598  1.0000
  N   N8        1.0  0.71470  0.66076  0.44402  1.0000
  N   N9        1.0  0.54619  0.65575  0.84556  1.0000
  N   N10       1.0  0.04617  0.15573  0.65443  1.0000
  N   N11       1.0  0.45383  0.34426  0.15443  1.0000
  N   N12       1.0  0.95383  0.84426  0.34557  1.0000
  N   N13       1.0  0.51766  0.58791  0.64972  1.0000
  N   N14       1.0  0.01766  0.08791  0.85028  1.0000
  N   N15       1.0  0.48234  0.41209  0.35028  1.0000
  N   N16       1.0  0.98235  0.91209  0.14973  1.0000
  O   O1        1.0  0.78073  0.10538  0.03958  1.0000
  O   O2        1.0  0.28073  0.60538  0.46042  1.0000
  O   O3        1.0  0.21928  0.89462  0.96043  1.0000
  O   O4        1.0  0.71927  0.39462  0.53958  1.0000
