data_image0
_chemical_formula_structural       Cu4H16C12N28
_chemical_formula_sum              "Cu4 H16 C12 N28"
_cell_length_a       7.78982
_cell_length_b       9.48084
_cell_length_c       9.48077
_cell_angle_alpha    67.9566
_cell_angle_beta     80.2864
_cell_angle_gamma    80.2867

_space_group_name_H-M_alt    "P 1"
_space_group_IT_number       1

loop_
  _space_group_symop_operation_xyz
  'x, y, z'

loop_
  _atom_site_type_symbol
  _atom_site_label
  _atom_site_symmetry_multiplicity
  _atom_site_fract_x
  _atom_site_fract_y
  _atom_site_fract_z
  _atom_site_occupancy
  Cu  Cu1       1.0  0.64082  0.98267  0.61495  1.0000
  Cu  Cu2       1.0  0.85918  0.38506  0.01733  1.0000
  Cu  Cu3       1.0  0.35918  0.01733  0.38507  1.0000
  Cu  Cu4       1.0  0.14082  0.61494  0.98267  1.0000
  H   H1        1.0  0.69698  0.92761  0.93113  1.0000
  H   H2        1.0  0.80303  0.06889  0.07239  1.0000
  H   H3        1.0  0.30302  0.07240  0.06888  1.0000
  H   H4        1.0  0.19696  0.93113  0.92761  1.0000
  H   H5        1.0  0.68465  0.25587  0.43941  1.0000
  H   H6        1.0  0.81535  0.56060  0.74411  1.0000
  H   H7        1.0  0.31535  0.74411  0.56060  1.0000
  H   H8        1.0  0.18466  0.43941  0.25587  1.0000
  H   H9        1.0  0.83978  0.37975  0.42498  1.0000
  H   H10       1.0  0.66022  0.57501  0.62024  1.0000
  H   H11       1.0  0.16022  0.62024  0.57501  1.0000
  H   H12       1.0  0.33980  0.42499  0.37975  1.0000
  H   H13       1.0  0.61449  0.43568  0.46138  1.0000
  H   H14       1.0  0.88551  0.53861  0.56431  1.0000
  H   H15       1.0  0.38551  0.56431  0.53861  1.0000
  H   H16       1.0  0.11450  0.46138  0.43568  1.0000
  C   C1        1.0  0.72886  0.26227  0.65409  1.0000
  C   C2        1.0  0.77113  0.34592  0.73772  1.0000
  C   C3        1.0  0.27115  0.73773  0.34591  1.0000
  C   C4        1.0  0.22887  0.65408  0.26227  1.0000
  C   C5        1.0  0.72341  0.04639  0.87480  1.0000
  C   C6        1.0  0.77658  0.12522  0.95361  1.0000
  C   C7        1.0  0.27657  0.95361  0.12521  1.0000
  C   C8        1.0  0.22341  0.87479  0.04640  1.0000
  C   C9        1.0  0.71562  0.33650  0.48661  1.0000
  C   C10       1.0  0.78437  0.51339  0.66349  1.0000
  C   C11       1.0  0.28438  0.66348  0.51339  1.0000
  C   C12       1.0  0.21564  0.48661  0.33650  1.0000
  N   N1        1.0  0.70146  0.11439  0.72536  1.0000
  N   N2        1.0  0.79854  0.27464  0.88562  1.0000
  N   N3        1.0  0.29854  0.88561  0.27465  1.0000
  N   N4        1.0  0.20146  0.72538  0.11438  1.0000
  N   N5        1.0  0.59694  0.90627  0.44578  1.0000
  N   N6        1.0  0.90306  0.55422  0.09372  1.0000
  N   N7        1.0  0.40305  0.09372  0.55423  1.0000
  N   N8        1.0  0.09694  0.44579  0.90627  1.0000
  N   N9        1.0  0.72467  0.86563  0.37109  1.0000
  N   N10       1.0  0.77533  0.62891  0.13438  1.0000
  N   N11       1.0  0.27532  0.13438  0.62891  1.0000
  N   N12       1.0  0.22467  0.37109  0.86563  1.0000
  N   N13       1.0  0.85183  0.82518  0.30682  1.0000
  N   N14       1.0  0.64817  0.69317  0.17484  1.0000
  N   N15       1.0  0.14816  0.17484  0.69317  1.0000
  N   N16       1.0  0.35183  0.30682  0.82518  1.0000
  N   N17       1.0  0.88368  0.87890  0.60258  1.0000
  N   N18       1.0  0.61632  0.39741  0.12110  1.0000
  N   N19       1.0  0.11632  0.12110  0.39742  1.0000
  N   N20       1.0  0.38368  0.60259  0.87890  1.0000
  N   N21       1.0  0.97236  0.85276  0.70238  1.0000
  N   N22       1.0  0.52764  0.29761  0.14725  1.0000
  N   N23       1.0  0.02764  0.14725  0.29762  1.0000
  N   N24       1.0  0.47236  0.70238  0.85276  1.0000
  N   N25       1.0  0.06462  0.82752  0.79736  1.0000
  N   N26       1.0  0.43539  0.20263  0.17248  1.0000
  N   N27       1.0  0.93538  0.17248  0.20263  1.0000
  N   N28       1.0  0.56462  0.79735  0.82753  1.0000
