data_image0
_chemical_formula_structural       Zn2H34C44I2N4O12
_chemical_formula_sum              "Zn2 H34 C44 I2 N4 O12"
_cell_length_a       8.11172
_cell_length_b       10.5378
_cell_length_c       13.3836
_cell_angle_alpha    75.1432
_cell_angle_beta     73.8797
_cell_angle_gamma    83.2824

_space_group_name_H-M_alt    "P 1"
_space_group_IT_number       1

loop_
  _space_group_symop_operation_xyz
  'x, y, z'

loop_
  _atom_site_type_symbol
  _atom_site_label
  _atom_site_symmetry_multiplicity
  _atom_site_fract_x
  _atom_site_fract_y
  _atom_site_fract_z
  _atom_site_occupancy
  Zn  Zn1       1.0  0.73525  0.23990  0.74330  1.0000
  Zn  Zn2       1.0  0.26475  0.76010  0.25670  1.0000
  H   H1        1.0  0.09305  0.16108  0.67477  1.0000
  H   H2        1.0  0.90695  0.83892  0.32523  1.0000
  H   H3        1.0  0.37528  0.26063  0.58501  1.0000
  H   H4        1.0  0.62472  0.73937  0.41499  1.0000
  H   H5        1.0  0.10593  0.64196  0.57934  1.0000
  H   H6        1.0  0.89407  0.35804  0.42066  1.0000
  H   H7        1.0  0.83579  0.52578  0.66652  1.0000
  H   H8        1.0  0.16421  0.47422  0.33348  1.0000
  H   H9        1.0  0.37437  0.22727  0.78186  1.0000
  H   H10       1.0  0.62564  0.77273  0.21814  1.0000
  H   H11       1.0  0.10103  0.31996  0.88077  1.0000
  H   H12       1.0  0.89897  0.68005  0.11922  1.0000
  H   H13       1.0  0.40001  0.60552  0.92687  1.0000
  H   H14       1.0  0.59999  0.39448  0.07313  1.0000
  H   H15       1.0  0.66246  0.49353  0.83342  1.0000
  H   H16       1.0  0.33754  0.50648  0.16658  1.0000
  H   H17       1.0  0.09613  0.62066  0.99668  1.0000
  H   H18       1.0  0.90387  0.37934  0.00332  1.0000
  H   H19       1.0  0.33489  0.23493  0.39024  1.0000
  H   H20       1.0  0.66511  0.76507  0.60977  1.0000
  H   H21       1.0  0.49009  0.10081  0.09650  1.0000
  H   H22       1.0  0.50991  0.89920  0.90350  1.0000
  H   H23       1.0  0.83662  0.04213  0.29959  1.0000
  H   H24       1.0  0.16338  0.95787  0.70041  1.0000
  H   H25       1.0  0.87684  0.12514  0.41772  1.0000
  H   H26       1.0  0.12315  0.87486  0.58228  1.0000
  H   H27       1.0  0.76232  0.98360  0.49089  1.0000
  H   H28       1.0  0.23768  0.01640  0.50911  1.0000
  H   H29       1.0  0.65474  0.93993  0.04794  1.0000
  H   H30       1.0  0.34526  0.06008  0.95206  1.0000
  H   H31       1.0  0.88167  0.91581  0.00351  1.0000
  H   H32       1.0  0.11833  0.08419  0.99650  1.0000
  H   H33       1.0  0.41266  0.63639  0.50990  1.0000
  H   H34       1.0  0.58733  0.36361  0.49009  1.0000
  C   C1        1.0  0.10322  0.26702  0.65110  1.0000
  C   C2        1.0  0.89678  0.73298  0.34891  1.0000
  C   C3        1.0  0.25905  0.32389  0.60004  1.0000
  C   C4        1.0  0.74095  0.67610  0.39996  1.0000
  C   C5        1.0  0.26555  0.46201  0.57185  1.0000
  C   C6        1.0  0.73445  0.53798  0.42815  1.0000
  C   C7        1.0  0.10949  0.53499  0.59802  1.0000
  C   C8        1.0  0.89051  0.46500  0.40198  1.0000
  C   C9        1.0  0.95798  0.47057  0.64737  1.0000
  C   C10       1.0  0.04202  0.52943  0.35263  1.0000
  C   C11       1.0  0.42358  0.53004  0.51917  1.0000
  C   C12       1.0  0.57642  0.46995  0.48083  1.0000
  C   C13       1.0  0.37367  0.31032  0.81651  1.0000
  C   C14       1.0  0.62634  0.68968  0.18348  1.0000
  C   C15       1.0  0.22184  0.36321  0.87142  1.0000
  C   C16       1.0  0.77816  0.63679  0.12858  1.0000
  C   C17       1.0  0.22733  0.47052  0.91500  1.0000
  C   C18       1.0  0.77267  0.52948  0.08500  1.0000
  C   C19       1.0  0.38909  0.52066  0.89704  1.0000
  C   C20       1.0  0.61092  0.47933  0.10296  1.0000
  C   C21       1.0  0.53556  0.45975  0.84341  1.0000
  C   C22       1.0  0.46444  0.54025  0.15659  1.0000
  C   C23       1.0  0.07690  0.52809  0.97958  1.0000
  C   C24       1.0  0.92310  0.47191  0.02042  1.0000
  C   C25       1.0  0.58771  0.13833  0.35625  1.0000
  C   C26       1.0  0.41229  0.86167  0.64375  1.0000
  C   C27       1.0  0.42985  0.18836  0.33373  1.0000
  C   C28       1.0  0.57015  0.81164  0.66628  1.0000
  C   C29       1.0  0.40051  0.17357  0.23999  1.0000
  C   C30       1.0  0.59949  0.82643  0.76001  1.0000
  C   C31       1.0  0.52102  0.11305  0.16724  1.0000
  C   C32       1.0  0.47898  0.88696  0.83277  1.0000
  C   C33       1.0  0.67779  0.06624  0.19103  1.0000
  C   C34       1.0  0.32221  0.93376  0.80897  1.0000
  C   C35       1.0  0.71233  0.07870  0.28512  1.0000
  C   C36       1.0  0.28767  0.92130  0.71488  1.0000
  C   C37       1.0  0.76020  0.09069  0.48049  1.0000
  C   C38       1.0  0.23979  0.90931  0.51951  1.0000
  C   C39       1.0  0.77340  0.11979  0.58328  1.0000
  C   C40       1.0  0.22660  0.88021  0.41672  1.0000
  C   C41       1.0  0.77787  0.98517  0.03189  1.0000
  C   C42       1.0  0.22213  0.01484  0.96811  1.0000
  C   C43       1.0  0.78625  0.10964  0.94207  1.0000
  C   C44       1.0  0.21375  0.89036  0.05793  1.0000
  I   I1        1.0  0.16638  0.24756  0.20253  1.0000
  I   I2        1.0  0.83362  0.75244  0.79748  1.0000
  N   N1        1.0  0.95357  0.33850  0.67383  1.0000
  N   N2        1.0  0.04643  0.66150  0.32617  1.0000
  N   N3        1.0  0.52919  0.35599  0.80328  1.0000
  N   N4        1.0  0.47081  0.64402  0.19672  1.0000
  O   O1        1.0  0.90276  0.07247  0.61564  1.0000
  O   O2        1.0  0.09724  0.92753  0.38437  1.0000
  O   O3        1.0  0.65431  0.19543  0.62866  1.0000
  O   O4        1.0  0.34569  0.80457  0.37134  1.0000
  O   O5        1.0  0.84574  0.21266  0.94379  1.0000
  O   O6        1.0  0.15427  0.78734  0.05621  1.0000
  O   O7        1.0  0.72801  0.09089  0.86643  1.0000
  O   O8        1.0  0.27199  0.90912  0.13357  1.0000
  O   O9        1.0  0.60802  0.15232  0.45094  1.0000
  O   O10       1.0  0.39198  0.84768  0.54906  1.0000
  O   O11       1.0  0.80586  0.00302  0.12802  1.0000
  O   O12       1.0  0.19414  0.99698  0.87199  1.0000
