data_image0
_chemical_formula_structural       Zn2H42C50I2N6O14
_chemical_formula_sum              "Zn2 H42 C50 I2 N6 O14"
_cell_length_a       7.41831
_cell_length_b       12.8964
_cell_length_c       13.528
_cell_angle_alpha    82.9015
_cell_angle_beta     88.9779
_cell_angle_gamma    82.7324

_space_group_name_H-M_alt    "P 1"
_space_group_IT_number       1

loop_
  _space_group_symop_operation_xyz
  'x, y, z'

loop_
  _atom_site_type_symbol
  _atom_site_label
  _atom_site_symmetry_multiplicity
  _atom_site_fract_x
  _atom_site_fract_y
  _atom_site_fract_z
  _atom_site_occupancy
  Zn  Zn1       1.0  0.98748  0.77560  0.84290  1.0000
  Zn  Zn2       1.0  0.01251  0.22441  0.15710  1.0000
  H   H1        1.0  0.68072  0.75480  0.76836  1.0000
  H   H2        1.0  0.31928  0.24520  0.23164  1.0000
  H   H3        1.0  0.69268  0.67561  0.87021  1.0000
  H   H4        1.0  0.30732  0.32439  0.12979  1.0000
  H   H5        1.0  0.77511  0.69745  0.35265  1.0000
  H   H6        1.0  0.22490  0.30254  0.64735  1.0000
  H   H7        1.0  0.20897  0.74350  0.14045  1.0000
  H   H8        1.0  0.79103  0.25650  0.85955  1.0000
  H   H9        1.0  0.12061  0.93883  0.37831  1.0000
  H   H10       1.0  0.87940  0.06116  0.62170  1.0000
  H   H11       1.0  0.97188  0.51821  0.10607  1.0000
  H   H12       1.0  0.02810  0.48180  0.89393  1.0000
  H   H13       1.0  0.16900  0.57649  0.13151  1.0000
  H   H14       1.0  0.83099  0.42350  0.86849  1.0000
  H   H15       1.0  0.55548  0.95264  0.24774  1.0000
  H   H16       1.0  0.44453  0.04736  0.75226  1.0000
  H   H17       1.0  0.41621  0.93110  0.35410  1.0000
  H   H18       1.0  0.58379  0.06890  0.64590  1.0000
  H   H19       1.0  0.36256  0.72799  0.92390  1.0000
  H   H20       1.0  0.63745  0.27201  0.07609  1.0000
  H   H21       1.0  0.59557  0.81690  0.99852  1.0000
  H   H22       1.0  0.40444  0.18311  0.00147  1.0000
  H   H23       1.0  0.22594  0.10745  0.94308  1.0000
  H   H24       1.0  0.77407  0.89255  0.05692  1.0000
  H   H25       1.0  0.01220  0.00448  0.87212  1.0000
  H   H26       1.0  0.98781  0.99552  0.12789  1.0000
  H   H27       1.0  0.03137  0.57916  0.75755  1.0000
  H   H28       1.0  0.96861  0.42084  0.24245  1.0000
  H   H29       1.0  0.15315  0.50227  0.60938  1.0000
  H   H30       1.0  0.84684  0.49773  0.39061  1.0000
  H   H31       1.0  0.36574  0.79699  0.51559  1.0000
  H   H32       1.0  0.63424  0.20302  0.48441  1.0000
  H   H33       1.0  0.24008  0.85955  0.67034  1.0000
  H   H34       1.0  0.75991  0.14045  0.32966  1.0000
  H   H35       1.0  0.17738  0.46787  0.46855  1.0000
  H   H36       1.0  0.82259  0.53214  0.53145  1.0000
  H   H37       1.0  0.27658  0.41031  0.30677  1.0000
  H   H38       1.0  0.72341  0.58969  0.69324  1.0000
  H   H39       1.0  0.57633  0.65877  0.24038  1.0000
  H   H40       1.0  0.42367  0.34123  0.75963  1.0000
  H   H41       1.0  0.49598  0.72671  0.40135  1.0000
  H   H42       1.0  0.50402  0.27329  0.59865  1.0000
  C   C1        1.0  0.93707  0.82188  0.37211  1.0000
  C   C2        1.0  0.06294  0.17812  0.62789  1.0000
  C   C3        1.0  0.88580  0.74063  0.32489  1.0000
  C   C4        1.0  0.11421  0.25937  0.67511  1.0000
  C   C5        1.0  0.98229  0.71234  0.23973  1.0000
  C   C6        1.0  0.01772  0.28766  0.76027  1.0000
  C   C7        1.0  0.12877  0.76428  0.20479  1.0000
  C   C8        1.0  0.87124  0.23572  0.79521  1.0000
  C   C9        1.0  0.18224  0.84288  0.25690  1.0000
  C   C10       1.0  0.81776  0.15712  0.74310  1.0000
  C   C11       1.0  0.08481  0.87503  0.34000  1.0000
  C   C12       1.0  0.91520  0.12496  0.66000  1.0000
  C   C13       1.0  0.02225  0.59301  0.11571  1.0000
  C   C14       1.0  0.97774  0.40700  0.88428  1.0000
  C   C15       1.0  0.99036  0.66436  0.01786  1.0000
  C   C16       1.0  0.00965  0.33564  0.98214  1.0000
  C   C17       1.0  0.41373  0.95485  0.27291  1.0000
  C   C18       1.0  0.58627  0.04516  0.72709  1.0000
  C   C19       1.0  0.32243  0.06836  0.25199  1.0000
  C   C20       1.0  0.67758  0.93165  0.74802  1.0000
  C   C21       1.0  0.34034  0.81236  0.92954  1.0000
  C   C22       1.0  0.65967  0.18765  0.07046  1.0000
  C   C23       1.0  0.46878  0.86284  0.97163  1.0000
  C   C24       1.0  0.53123  0.13717  0.02837  1.0000
  C   C25       1.0  0.43318  0.97153  0.97801  1.0000
  C   C26       1.0  0.56683  0.02847  0.02199  1.0000
  C   C27       1.0  0.26592  0.02356  0.94069  1.0000
  C   C28       1.0  0.73410  0.97644  0.05931  1.0000
  C   C29       1.0  0.14384  0.96692  0.90065  1.0000
  C   C30       1.0  0.85618  0.03309  0.09935  1.0000
  C   C31       1.0  0.10607  0.62462  0.70178  1.0000
  C   C32       1.0  0.89392  0.37538  0.29822  1.0000
  C   C33       1.0  0.17357  0.58286  0.61721  1.0000
  C   C34       1.0  0.82642  0.41715  0.38279  1.0000
  C   C35       1.0  0.26601  0.64401  0.54496  1.0000
  C   C36       1.0  0.73398  0.35599  0.45504  1.0000
  C   C37       1.0  0.29241  0.74490  0.56633  1.0000
  C   C38       1.0  0.70758  0.25510  0.43367  1.0000
  C   C39       1.0  0.22087  0.78134  0.65309  1.0000
  C   C40       1.0  0.77911  0.21866  0.34692  1.0000
  C   C41       1.0  0.32718  0.60417  0.45055  1.0000
  C   C42       1.0  0.67280  0.39584  0.54945  1.0000
  C   C43       1.0  0.26781  0.51324  0.42172  1.0000
  C   C44       1.0  0.73217  0.48677  0.57827  1.0000
  C   C45       1.0  0.32247  0.48044  0.33046  1.0000
  C   C46       1.0  0.67752  0.51956  0.66954  1.0000
  C   C47       1.0  0.48885  0.61781  0.29354  1.0000
  C   C48       1.0  0.51115  0.38219  0.70646  1.0000
  C   C49       1.0  0.44291  0.65605  0.38396  1.0000
  C   C50       1.0  0.55708  0.34396  0.61604  1.0000
  I   I1        1.0  0.78787  0.85966  0.50054  1.0000
  I   I2        1.0  0.21215  0.14033  0.49946  1.0000
  N   N1        1.0  0.17940  0.86282  0.89485  1.0000
  N   N2        1.0  0.82062  0.13719  0.10515  1.0000
  N   N3        1.0  0.42989  0.53170  0.26562  1.0000
  N   N4        1.0  0.57010  0.46830  0.73439  1.0000
  N   N5        1.0  0.12551  0.72312  0.71929  1.0000
  N   N6        1.0  0.87448  0.27689  0.28071  1.0000
  O   O1        1.0  0.08969  0.63764  0.94456  1.0000
  O   O2        1.0  0.91033  0.36236  0.05544  1.0000
  O   O3        1.0  0.87077  0.74389  0.01038  1.0000
  O   O4        1.0  0.12923  0.25611  0.98962  1.0000
  O   O5        1.0  0.17934  0.08516  0.19920  1.0000
  O   O6        1.0  0.82066  0.91484  0.80081  1.0000
  O   O7        1.0  0.40028  0.13635  0.28958  1.0000
  O   O8        1.0  0.59974  0.86366  0.71041  1.0000
  O   O9        1.0  0.92401  0.63070  0.19888  1.0000
  O   O10       1.0  0.07599  0.36930  0.80112  1.0000
  O   O11       1.0  0.33769  0.88122  0.22115  1.0000
  O   O12       1.0  0.66232  0.11878  0.77885  1.0000
  O   O13       1.0  0.75842  0.69351  0.80894  1.0000
  O   O14       1.0  0.24158  0.30649  0.19106  1.0000
