data_image0
_chemical_formula_structural       Cd2P4H72C44S8N4O8
_chemical_formula_sum              "Cd2 P4 H72 C44 S8 N4 O8"
_cell_length_a       11.7493
_cell_length_b       11.6703
_cell_length_c       14.6429
_cell_angle_alpha    98.5451
_cell_angle_beta     107.848
_cell_angle_gamma    115.842

_space_group_name_H-M_alt    "P 1"
_space_group_IT_number       1

loop_
  _space_group_symop_operation_xyz
  'x, y, z'

loop_
  _atom_site_type_symbol
  _atom_site_label
  _atom_site_symmetry_multiplicity
  _atom_site_fract_x
  _atom_site_fract_y
  _atom_site_fract_z
  _atom_site_occupancy
  Cd  Cd1       1.0  1.00000  1.00000  0.50000  1.0000
  Cd  Cd2       1.0  0.00000  0.50000  0.00000  1.0000
  P   P1        1.0  0.32924  0.14789  0.62426  1.0000
  P   P2        1.0  0.02443  0.70503  0.87566  1.0000
  P   P3        1.0  0.67076  0.85211  0.37574  1.0000
  P   P4        1.0  0.97557  0.29497  0.12434  1.0000
  H   H1        1.0  0.37340  0.35311  0.54625  1.0000
  H   H2        1.0  0.30652  0.82697  0.95364  1.0000
  H   H3        1.0  0.62660  0.64689  0.45375  1.0000
  H   H4        1.0  0.69348  0.17304  0.04636  1.0000
  H   H5        1.0  0.31521  0.42059  0.68667  1.0000
  H   H6        1.0  0.23250  0.62660  0.81266  1.0000
  H   H7        1.0  0.68479  0.57941  0.31333  1.0000
  H   H8        1.0  0.76750  0.37340  0.18734  1.0000
  H   H9        1.0  0.41371  0.56501  0.65764  1.0000
  H   H10       1.0  0.40534  0.75534  0.84259  1.0000
  H   H11       1.0  0.58629  0.43499  0.34236  1.0000
  H   H12       1.0  0.59466  0.24466  0.15741  1.0000
  H   H13       1.0  0.49537  0.53350  0.76747  1.0000
  H   H14       1.0  0.26455  0.72721  0.73256  1.0000
  H   H15       1.0  0.50463  0.46650  0.23253  1.0000
  H   H16       1.0  0.73545  0.27279  0.26744  1.0000
  H   H17       1.0  0.61458  0.42418  0.57282  1.0000
  H   H18       1.0  0.35234  0.04390  0.92749  1.0000
  H   H19       1.0  0.38542  0.57582  0.42718  1.0000
  H   H20       1.0  0.64766  0.95610  0.07251  1.0000
  H   H21       1.0  0.68031  0.52940  0.69966  1.0000
  H   H22       1.0  0.32953  0.98143  0.80072  1.0000
  H   H23       1.0  0.31969  0.47060  0.30034  1.0000
  H   H24       1.0  0.67048  0.01857  0.19928  1.0000
  H   H25       1.0  0.60079  0.57098  0.59574  1.0000
  H   H26       1.0  0.47434  0.00532  0.90474  1.0000
  H   H27       1.0  0.39921  0.42902  0.40426  1.0000
  H   H28       1.0  0.52566  0.99469  0.09526  1.0000
  H   H29       1.0  0.45835  0.04550  0.54779  1.0000
  H   H30       1.0  0.99842  0.91177  0.95247  1.0000
  H   H31       1.0  0.54165  0.95450  0.45220  1.0000
  H   H32       1.0  0.00158  0.08823  0.04753  1.0000
  H   H33       1.0  0.66596  0.24206  0.69328  1.0000
  H   H34       1.0  0.04851  0.97403  0.80736  1.0000
  H   H35       1.0  0.33404  0.75794  0.30672  1.0000
  H   H36       1.0  0.95149  0.02597  0.19264  1.0000
  H   H37       1.0  0.70446  0.11480  0.65719  1.0000
  H   H38       1.0  0.95832  0.04949  0.84315  1.0000
  H   H39       1.0  0.29553  0.88520  0.34281  1.0000
  H   H40       1.0  0.04168  0.95051  0.15685  1.0000
  H   H41       1.0  0.67084  0.13429  0.76742  1.0000
  H   H42       1.0  0.86711  0.90417  0.73286  1.0000
  H   H43       1.0  0.32916  0.86571  0.23258  1.0000
  H   H44       1.0  0.13289  0.09583  0.26714  1.0000
  H   H45       1.0  0.33723  0.82375  0.56880  1.0000
  H   H46       1.0  0.75682  0.76787  0.93052  1.0000
  H   H47       1.0  0.66277  0.17625  0.43120  1.0000
  H   H48       1.0  0.24318  0.23213  0.06948  1.0000
  H   H49       1.0  0.47043  0.88274  0.69349  1.0000
  H   H50       1.0  0.69066  0.77638  0.80595  1.0000
  H   H51       1.0  0.52957  0.11725  0.30651  1.0000
  H   H52       1.0  0.30934  0.22362  0.19404  1.0000
  H   H53       1.0  0.50949  0.86486  0.58571  1.0000
  H   H54       1.0  0.78071  0.92434  0.91398  1.0000
  H   H55       1.0  0.49050  0.13513  0.41429  1.0000
  H   H56       1.0  0.21929  0.07566  0.08602  1.0000
  H   H57       1.0  0.97239  0.21427  0.62971  1.0000
  H   H58       1.0  0.08575  0.34175  0.86981  1.0000
  H   H59       1.0  0.02761  0.78573  0.37029  1.0000
  H   H60       1.0  0.91425  0.65825  0.13019  1.0000
  H   H61       1.0  0.96908  0.42601  0.63843  1.0000
  H   H62       1.0  0.28744  0.33022  0.86090  1.0000
  H   H63       1.0  0.03093  0.57399  0.36157  1.0000
  H   H64       1.0  0.71256  0.66978  0.13909  1.0000
  H   H65       1.0  0.03551  0.40849  0.36136  1.0000
  H   H66       1.0  0.54789  0.67539  0.13922  1.0000
  H   H67       1.0  0.96449  0.59151  0.63864  1.0000
  H   H68       1.0  0.45211  0.32461  0.86077  1.0000
  H   H69       1.0  0.03449  0.19753  0.36571  1.0000
  H   H70       1.0  0.33414  0.66975  0.13497  1.0000
  H   H71       1.0  0.96550  0.80247  0.63429  1.0000
  H   H72       1.0  0.66586  0.33025  0.86503  1.0000
  C   C1        1.0  0.45529  0.40479  0.62446  1.0000
  C   C2        1.0  0.27960  0.83073  0.87556  1.0000
  C   C3        1.0  0.54471  0.59521  0.37554  1.0000
  C   C4        1.0  0.72040  0.16927  0.12444  1.0000
  C   C5        1.0  0.41754  0.48556  0.68818  1.0000
  C   C6        1.0  0.29574  0.72832  0.81166  1.0000
  C   C7        1.0  0.58246  0.51444  0.31182  1.0000
  C   C8        1.0  0.70426  0.27168  0.18834  1.0000
  C   C9        1.0  0.59623  0.48715  0.62329  1.0000
  C   C10       1.0  0.36360  0.97378  0.87706  1.0000
  C   C11       1.0  0.40377  0.51285  0.37671  1.0000
  C   C12       1.0  0.63640  0.02622  0.12294  1.0000
  C   C13       1.0  0.48849  0.03778  0.62464  1.0000
  C   C14       1.0  0.91401  0.86459  0.87543  1.0000
  C   C15       1.0  0.51151  0.96222  0.37536  1.0000
  C   C16       1.0  0.08598  0.13541  0.12457  1.0000
  C   C17       1.0  0.64165  0.13901  0.68976  1.0000
  C   C18       1.0  0.94958  0.95325  0.81063  1.0000
  C   C19       1.0  0.35835  0.86098  0.31024  1.0000
  C   C20       1.0  0.05041  0.04675  0.18936  1.0000
  C   C21       1.0  0.44836  0.89318  0.61760  1.0000
  C   C22       1.0  0.77705  0.83070  0.88197  1.0000
  C   C23       1.0  0.55164  0.10682  0.38240  1.0000
  C   C24       1.0  0.22295  0.16930  0.11803  1.0000
  C   C25       1.0  0.98644  0.26205  0.57227  1.0000
  C   C26       1.0  0.19077  0.41371  0.92766  1.0000
  C   C27       1.0  0.01356  0.73795  0.42773  1.0000
  C   C28       1.0  0.80923  0.58629  0.07234  1.0000
  C   C29       1.0  0.98421  0.38034  0.57603  1.0000
  C   C30       1.0  0.30461  0.40793  0.92373  1.0000
  C   C31       1.0  0.01580  0.61967  0.42397  1.0000
  C   C32       1.0  0.69539  0.59207  0.07627  1.0000
  C   C33       1.0  0.00161  0.43750  0.49981  1.0000
  C   C34       1.0  0.43807  0.50191  0.00023  1.0000
  C   C35       1.0  0.99839  0.56250  0.50019  1.0000
  C   C36       1.0  0.56193  0.49809  0.99977  1.0000
  C   C37       1.0  0.02144  0.37104  0.42326  1.0000
  C   C38       1.0  0.44859  0.59876  0.07706  1.0000
  C   C39       1.0  0.97856  0.62896  0.57675  1.0000
  C   C40       1.0  0.55140  0.40123  0.92294  1.0000
  C   C41       1.0  0.02153  0.25244  0.42498  1.0000
  C   C42       1.0  0.32891  0.59693  0.07539  1.0000
  C   C43       1.0  0.97847  0.74756  0.57502  1.0000
  C   C44       1.0  0.67109  0.40307  0.92461  1.0000
  S   S1        1.0  0.20248  0.13112  0.69322  1.0000
  S   S2        1.0  0.93843  0.50758  0.80681  1.0000
  S   S3        1.0  0.79752  0.86888  0.30678  1.0000
  S   S4        1.0  0.06157  0.49242  0.19319  1.0000
  S   S5        1.0  0.23980  0.08443  0.47174  1.0000
  S   S6        1.0  0.11400  0.76905  0.02824  1.0000
  S   S7        1.0  0.76020  0.91557  0.52826  1.0000
  S   S8        1.0  0.88600  0.23095  0.97176  1.0000
  N   N1        1.0  0.00445  0.19918  0.49818  1.0000
  N   N2        1.0  0.20220  0.50602  0.00211  1.0000
  N   N3        1.0  0.99556  0.80082  0.50182  1.0000
  N   N4        1.0  0.79780  0.49398  0.99789  1.0000
  O   O1        1.0  0.46123  0.29889  0.66559  1.0000
  O   O2        1.0  0.13325  0.79589  0.83448  1.0000
  O   O3        1.0  0.53877  0.70111  0.33441  1.0000
  O   O4        1.0  0.86675  0.20411  0.16552  1.0000
  O   O5        1.0  0.40428  0.06932  0.66868  1.0000
  O   O6        1.0  0.90181  0.73565  0.83121  1.0000
  O   O7        1.0  0.59572  0.93068  0.33131  1.0000
  O   O8        1.0  0.09819  0.26435  0.16879  1.0000
