data_image0
_chemical_formula_structural       Cd2P4H72C44S12N4O8
_chemical_formula_sum              "Cd2 P4 H72 C44 S12 N4 O8"
_cell_length_a       9.82786
_cell_length_b       11.824
_cell_length_c       15.5425
_cell_angle_alpha    72.9706
_cell_angle_beta     73.2752
_cell_angle_gamma    79.9165

_space_group_name_H-M_alt    "P 1"
_space_group_IT_number       1

loop_
  _space_group_symop_operation_xyz
  'x, y, z'

loop_
  _atom_site_type_symbol
  _atom_site_label
  _atom_site_symmetry_multiplicity
  _atom_site_fract_x
  _atom_site_fract_y
  _atom_site_fract_z
  _atom_site_occupancy
  Cd  Cd1       1.0  0.19060  0.39043  0.27011  1.0000
  Cd  Cd2       1.0  0.80940  0.60957  0.72989  1.0000
  P   P1        1.0  0.33335  0.29585  0.44136  1.0000
  P   P2        1.0  0.66666  0.70415  0.55864  1.0000
  P   P3        1.0  0.07569  0.24419  0.16652  1.0000
  P   P4        1.0  0.92431  0.75581  0.83347  1.0000
  H   H1        1.0  0.62087  0.26054  0.39975  1.0000
  H   H2        1.0  0.37913  0.73946  0.60025  1.0000
  H   H3        1.0  0.56296  0.18078  0.57379  1.0000
  H   H4        1.0  0.43705  0.81921  0.42621  1.0000
  H   H5        1.0  0.60747  0.31620  0.58349  1.0000
  H   H6        1.0  0.39254  0.68379  0.41651  1.0000
  H   H7        1.0  0.74213  0.22006  0.52872  1.0000
  H   H8        1.0  0.25787  0.77993  0.47128  1.0000
  H   H9        1.0  0.65486  0.47341  0.32968  1.0000
  H   H10       1.0  0.34514  0.52659  0.67032  1.0000
  H   H11       1.0  0.79556  0.40090  0.38274  1.0000
  H   H12       1.0  0.20444  0.59909  0.61726  1.0000
  H   H13       1.0  0.65503  0.49225  0.43979  1.0000
  H   H14       1.0  0.34497  0.50775  0.56022  1.0000
  H   H15       1.0  0.31734  0.04381  0.47814  1.0000
  H   H16       1.0  0.68266  0.95619  0.52185  1.0000
  H   H17       1.0  0.40248  0.97218  0.62399  1.0000
  H   H18       1.0  0.59752  0.02782  0.37601  1.0000
  H   H19       1.0  0.24854  0.90284  0.63635  1.0000
  H   H20       1.0  0.75146  0.09715  0.36365  1.0000
  H   H21       1.0  0.23176  0.02020  0.68918  1.0000
  H   H22       1.0  0.76824  0.97980  0.31081  1.0000
  H   H23       1.0  0.08186  0.15553  0.47633  1.0000
  H   H24       1.0  0.91814  0.84447  0.52367  1.0000
  H   H25       1.0  0.04165  0.14295  0.59782  1.0000
  H   H26       1.0  0.95836  0.85705  0.40219  1.0000
  H   H27       1.0  0.05665  0.01374  0.55744  1.0000
  H   H28       1.0  0.94335  0.98626  0.44256  1.0000
  H   H29       1.0  0.79112  0.23513  0.21793  1.0000
  H   H30       1.0  0.20888  0.76487  0.78207  1.0000
  H   H31       1.0  0.86499  0.11302  0.10248  1.0000
  H   H32       1.0  0.13500  0.88698  0.89753  1.0000
  H   H33       1.0  0.81215  0.23566  0.01624  1.0000
  H   H34       1.0  0.18785  0.76434  0.98376  1.0000
  H   H35       1.0  0.68163  0.16842  0.11687  1.0000
  H   H36       1.0  0.31837  0.83158  0.88313  1.0000
  H   H37       1.0  0.73141  0.45056  0.17022  1.0000
  H   H38       1.0  0.26859  0.54943  0.82978  1.0000
  H   H39       1.0  0.60282  0.37807  0.15122  1.0000
  H   H40       1.0  0.39718  0.62193  0.84878  1.0000
  H   H41       1.0  0.74126  0.44598  0.05552  1.0000
  H   H42       1.0  0.25874  0.55401  0.94448  1.0000
  H   H43       1.0  0.08621  0.99958  0.27543  1.0000
  H   H44       1.0  0.91378  0.00042  0.72457  1.0000
  H   H45       1.0  0.03658  0.90596  0.16373  1.0000
  H   H46       1.0  0.96342  0.09405  0.83627  1.0000
  H   H47       1.0  0.17834  0.82098  0.21156  1.0000
  H   H48       1.0  0.82166  0.17902  0.78843  1.0000
  H   H49       1.0  0.21660  0.91525  0.09649  1.0000
  H   H50       1.0  0.78340  0.08475  0.90351  1.0000
  H   H51       1.0  0.31284  0.08771  0.23895  1.0000
  H   H52       1.0  0.68715  0.91229  0.76105  1.0000
  H   H53       1.0  0.38146  0.02992  0.13891  1.0000
  H   H54       1.0  0.61854  0.97009  0.86109  1.0000
  H   H55       1.0  0.34714  0.93159  0.25253  1.0000
  H   H56       1.0  0.65286  0.06841  0.74747  1.0000
  H   H57       1.0  0.37759  0.54276  0.32568  1.0000
  H   H58       1.0  0.62241  0.45725  0.67432  1.0000
  H   H59       1.0  0.53311  0.70881  0.26197  1.0000
  H   H60       1.0  0.46689  0.29120  0.73803  1.0000
  H   H61       1.0  0.47190  0.73731  0.99106  1.0000
  H   H62       1.0  0.52810  0.26270  0.00894  1.0000
  H   H63       1.0  0.32106  0.56869  0.06664  1.0000
  H   H64       1.0  0.67894  0.43131  0.93336  1.0000
  H   H65       1.0  0.86191  0.69904  0.06004  1.0000
  H   H66       1.0  0.13809  0.30096  0.93996  1.0000
  H   H67       1.0  0.03187  0.52476  0.10712  1.0000
  H   H68       1.0  0.96813  0.47524  0.89288  1.0000
  H   H69       1.0  0.97544  0.58963  0.36429  1.0000
  H   H70       1.0  0.02456  0.41037  0.63570  1.0000
  H   H71       1.0  0.79962  0.76308  0.33099  1.0000
  H   H72       1.0  0.20038  0.23692  0.66901  1.0000
  C   C1        1.0  0.59872  0.32098  0.44534  1.0000
  C   C2        1.0  0.40128  0.67902  0.55466  1.0000
  C   C3        1.0  0.62894  0.25506  0.53879  1.0000
  C   C4        1.0  0.37107  0.74494  0.46121  1.0000
  C   C5        1.0  0.68053  0.42896  0.39658  1.0000
  C   C6        1.0  0.31948  0.57104  0.60342  1.0000
  C   C7        1.0  0.25792  0.07522  0.54012  1.0000
  C   C8        1.0  0.74208  0.92478  0.45988  1.0000
  C   C9        1.0  0.28796  0.98793  0.62733  1.0000
  C   C10       1.0  0.71204  0.01207  0.37267  1.0000
  C   C11       1.0  0.10003  0.09892  0.54266  1.0000
  C   C12       1.0  0.89997  0.90108  0.45734  1.0000
  C   C13       1.0  0.80977  0.27886  0.14303  1.0000
  C   C14       1.0  0.19023  0.72114  0.85697  1.0000
  C   C15       1.0  0.79137  0.19395  0.09131  1.0000
  C   C16       1.0  0.20863  0.80605  0.90870  1.0000
  C   C17       1.0  0.71559  0.39535  0.12881  1.0000
  C   C18       1.0  0.28440  0.60465  0.87119  1.0000
  C   C19       1.0  0.15810  0.00751  0.20543  1.0000
  C   C20       1.0  0.84189  0.99249  0.79457  1.0000
  C   C21       1.0  0.14651  0.90656  0.16691  1.0000
  C   C22       1.0  0.85349  0.09344  0.83309  1.0000
  C   C23       1.0  0.30892  0.01553  0.20884  1.0000
  C   C24       1.0  0.69108  0.98447  0.79116  1.0000
  C   C25       1.0  0.40174  0.58831  0.25173  1.0000
  C   C26       1.0  0.59826  0.41169  0.74827  1.0000
  C   C27       1.0  0.48784  0.68129  0.21599  1.0000
  C   C28       1.0  0.51216  0.31872  0.78401  1.0000
  C   C29       1.0  0.51457  0.73755  0.12094  1.0000
  C   C30       1.0  0.48543  0.26246  0.87906  1.0000
  C   C31       1.0  0.45295  0.69758  0.06555  1.0000
  C   C32       1.0  0.54705  0.30242  0.93445  1.0000
  C   C33       1.0  0.36922  0.60343  0.10757  1.0000
  C   C34       1.0  0.63078  0.39657  0.89243  1.0000
  C   C35       1.0  0.81984  0.74782  0.19096  1.0000
  C   C36       1.0  0.18016  0.25218  0.80904  1.0000
  C   C37       1.0  0.88446  0.67893  0.12790  1.0000
  C   C38       1.0  0.11554  0.32107  0.87210  1.0000
  C   C39       1.0  0.97969  0.58159  0.15386  1.0000
  C   C40       1.0  0.02031  0.41841  0.84614  1.0000
  C   C41       1.0  0.94951  0.61744  0.29689  1.0000
  C   C42       1.0  0.05049  0.38256  0.70311  1.0000
  C   C43       1.0  0.85155  0.71553  0.27783  1.0000
  C   C44       1.0  0.14845  0.28447  0.72217  1.0000
  S   S1        1.0  0.15465  0.40718  0.44579  1.0000
  S   S2        1.0  0.84535  0.59282  0.55421  1.0000
  S   S3        1.0  0.40745  0.23859  0.32582  1.0000
  S   S4        1.0  0.59255  0.76141  0.67418  1.0000
  S   S5        1.0  0.24529  0.33616  0.10337  1.0000
  S   S6        1.0  0.75471  0.66384  0.89663  1.0000
  S   S7        1.0  0.00372  0.22839  0.30320  1.0000
  S   S8        1.0  0.99628  0.77161  0.69680  1.0000
  S   S9        1.0  0.62650  0.85308  0.06418  1.0000
  S   S10       1.0  0.37350  0.14692  0.93582  1.0000
  S   S11       1.0  0.69687  0.87523  0.16863  1.0000
  S   S12       1.0  0.30313  0.12477  0.83137  1.0000
  N   N1        1.0  0.34365  0.54909  0.19884  1.0000
  N   N2        1.0  0.65635  0.45092  0.80116  1.0000
  N   N3        1.0  0.01296  0.55142  0.23637  1.0000
  N   N4        1.0  0.98704  0.44858  0.76363  1.0000
  O   O1        1.0  0.44566  0.36451  0.45935  1.0000
  O   O2        1.0  0.55434  0.63549  0.54065  1.0000
  O   O3        1.0  0.31837  0.18419  0.53237  1.0000
  O   O4        1.0  0.68164  0.81581  0.46763  1.0000
  O   O5        1.0  0.95843  0.30960  0.10960  1.0000
  O   O6        1.0  0.04156  0.69040  0.89040  1.0000
  O   O7        1.0  0.10260  0.11547  0.14500  1.0000
  O   O8        1.0  0.89740  0.88453  0.85500  1.0000
