data_image0
_chemical_formula_structural       Cd4H16C16O20
_chemical_formula_sum              "Cd4 H16 C16 O20"
_cell_length_a       7.59985
_cell_length_b       8.70613
_cell_length_c       9.43269
_cell_angle_alpha    98.0503
_cell_angle_beta     98.7074
_cell_angle_gamma    108.784

_space_group_name_H-M_alt    "P 1"
_space_group_IT_number       1

loop_
  _space_group_symop_operation_xyz
  'x, y, z'

loop_
  _atom_site_type_symbol
  _atom_site_label
  _atom_site_symmetry_multiplicity
  _atom_site_fract_x
  _atom_site_fract_y
  _atom_site_fract_z
  _atom_site_occupancy
  Cd  Cd1       1.0  0.22465  0.15743  0.14180  1.0000
  Cd  Cd2       1.0  0.77534  0.84257  0.85819  1.0000
  Cd  Cd3       1.0  0.69631  0.53563  0.32910  1.0000
  Cd  Cd4       1.0  0.30369  0.46437  0.67090  1.0000
  H   H1        1.0  0.04236  0.45611  0.17296  1.0000
  H   H2        1.0  0.95765  0.54389  0.82703  1.0000
  H   H3        1.0  0.16084  0.58426  0.06094  1.0000
  H   H4        1.0  0.83916  0.41575  0.93906  1.0000
  H   H5        1.0  0.24775  0.82976  0.27716  1.0000
  H   H6        1.0  0.75226  0.17025  0.72284  1.0000
  H   H7        1.0  0.02664  0.91098  0.43112  1.0000
  H   H8        1.0  0.97336  0.08902  0.56888  1.0000
  H   H9        1.0  0.30097  0.04418  0.62817  1.0000
  H   H10       1.0  0.69903  0.95582  0.37183  1.0000
  H   H11       1.0  0.36796  0.95814  0.47798  1.0000
  H   H12       1.0  0.63204  0.04186  0.52202  1.0000
  H   H13       1.0  0.31684  0.99062  0.90616  1.0000
  H   H14       1.0  0.68311  0.00936  0.09382  1.0000
  H   H15       1.0  0.32863  0.17222  0.89218  1.0000
  H   H16       1.0  0.67138  0.82778  0.10782  1.0000
  C   C1        1.0  0.34621  0.56286  0.24015  1.0000
  C   C2        1.0  0.65379  0.43714  0.75985  1.0000
  C   C3        1.0  0.15650  0.57315  0.17515  1.0000
  C   C4        1.0  0.84350  0.42686  0.82485  1.0000
  C   C5        1.0  0.11647  0.72054  0.25214  1.0000
  C   C6        1.0  0.88353  0.27946  0.74786  1.0000
  C   C7        1.0  0.96436  0.75826  0.15065  1.0000
  C   C8        1.0  0.03565  0.24175  0.84935  1.0000
  C   C9        1.0  0.95276  0.78285  0.59981  1.0000
  C   C10       1.0  0.04724  0.21715  0.40020  1.0000
  C   C11       1.0  0.08089  0.82900  0.49056  1.0000
  C   C12       1.0  0.91911  0.17100  0.50945  1.0000
  C   C13       1.0  0.28732  0.92455  0.56272  1.0000
  C   C14       1.0  0.71268  0.07545  0.43728  1.0000
  C   C15       1.0  0.38255  0.83617  0.65930  1.0000
  C   C16       1.0  0.61746  0.16383  0.34070  1.0000
  O   O1        1.0  0.46394  0.67569  0.34022  1.0000
  O   O2        1.0  0.53607  0.32431  0.65978  1.0000
  O   O3        1.0  0.38718  0.43791  0.18202  1.0000
  O   O4        1.0  0.61282  0.56209  0.81797  1.0000
  O   O5        1.0  0.79335  0.70516  0.16723  1.0000
  O   O6        1.0  0.20666  0.29484  0.83277  1.0000
  O   O7        1.0  0.01779  0.83879  0.05265  1.0000
  O   O8        1.0  0.98221  0.16122  0.94735  1.0000
  O   O9        1.0  0.05621  0.68230  0.38468  1.0000
  O   O10       1.0  0.94380  0.31770  0.61532  1.0000
  O   O11       1.0  0.27569  0.70924  0.69757  1.0000
  O   O12       1.0  0.72432  0.29075  0.30243  1.0000
  O   O13       1.0  0.56241  0.89913  0.69757  1.0000
  O   O14       1.0  0.43759  0.10087  0.30242  1.0000
  O   O15       1.0  0.99684  0.88886  0.71928  1.0000
  O   O16       1.0  0.00317  0.11114  0.28072  1.0000
  O   O17       1.0  0.80557  0.65351  0.56583  1.0000
  O   O18       1.0  0.19444  0.34649  0.43417  1.0000
  O   O19       1.0  0.37894  0.10660  0.95557  1.0000
  O   O20       1.0  0.62104  0.89338  0.04442  1.0000
