data_image0
_chemical_formula_structural       Cd4H36C16N4Cl8O12
_chemical_formula_sum              "Cd4 H36 C16 N4 Cl8 O12"
_cell_length_a       7.24684
_cell_length_b       8.74918
_cell_length_c       14.2999
_cell_angle_alpha    90.0001
_cell_angle_beta     89.9998
_cell_angle_gamma    110.79

_space_group_name_H-M_alt    "P 1"
_space_group_IT_number       1

loop_
  _space_group_symop_operation_xyz
  'x, y, z'

loop_
  _atom_site_type_symbol
  _atom_site_label
  _atom_site_symmetry_multiplicity
  _atom_site_fract_x
  _atom_site_fract_y
  _atom_site_fract_z
  _atom_site_occupancy
  Cd  Cd1       1.0  0.95723  0.14152  0.24917  1.0000
  Cd  Cd2       1.0  0.54277  0.85848  0.74917  1.0000
  Cd  Cd3       1.0  0.04277  0.85848  0.75083  1.0000
  Cd  Cd4       1.0  0.45723  0.14152  0.25083  1.0000
  H   H1        1.0  0.13318  0.18380  0.89158  1.0000
  H   H2        1.0  0.36682  0.81620  0.39158  1.0000
  H   H3        1.0  0.86682  0.81620  0.10842  1.0000
  H   H4        1.0  0.63318  0.18379  0.60842  1.0000
  H   H5        1.0  0.07887  0.36533  0.90225  1.0000
  H   H6        1.0  0.42113  0.63467  0.40224  1.0000
  H   H7        1.0  0.92113  0.63467  0.09776  1.0000
  H   H8        1.0  0.57886  0.36533  0.59775  1.0000
  H   H9        1.0  0.21109  0.46010  0.09811  1.0000
  H   H10       1.0  0.28891  0.53990  0.59811  1.0000
  H   H11       1.0  0.78891  0.53990  0.90189  1.0000
  H   H12       1.0  0.71109  0.46010  0.40189  1.0000
  H   H13       1.0  0.28068  0.58552  0.99565  1.0000
  H   H14       1.0  0.21932  0.41449  0.49565  1.0000
  H   H15       1.0  0.71932  0.41449  0.00435  1.0000
  H   H16       1.0  0.78068  0.58551  0.50435  1.0000
  H   H17       1.0  0.44078  0.49326  0.86377  1.0000
  H   H18       1.0  0.05922  0.50675  0.36377  1.0000
  H   H19       1.0  0.55922  0.50674  0.13623  1.0000
  H   H20       1.0  0.94078  0.49326  0.63623  1.0000
  H   H21       1.0  0.47868  0.30419  0.87452  1.0000
  H   H22       1.0  0.02132  0.69581  0.37452  1.0000
  H   H23       1.0  0.52132  0.69581  0.12548  1.0000
  H   H24       1.0  0.97868  0.30419  0.62548  1.0000
  H   H25       1.0  0.34818  0.27258  0.02939  1.0000
  H   H26       1.0  0.15182  0.72743  0.52939  1.0000
  H   H27       1.0  0.65182  0.72743  0.97061  1.0000
  H   H28       1.0  0.84819  0.27258  0.47060  1.0000
  H   H29       1.0  0.07840  0.13713  0.44124  1.0000
  H   H30       1.0  0.42160  0.86287  0.94124  1.0000
  H   H31       1.0  0.92160  0.86287  0.55876  1.0000
  H   H32       1.0  0.57840  0.13713  0.05876  1.0000
  H   H33       1.0  0.85050  0.02457  0.43822  1.0000
  H   H34       1.0  0.64950  0.97543  0.93822  1.0000
  H   H35       1.0  0.14950  0.97543  0.56178  1.0000
  H   H36       1.0  0.35050  0.02457  0.06178  1.0000
  C   C1        1.0  0.96652  0.18713  0.01577  1.0000
  C   C2        1.0  0.53348  0.81287  0.51577  1.0000
  C   C3        1.0  0.03348  0.81288  0.98424  1.0000
  C   C4        1.0  0.46654  0.18713  0.48422  1.0000
  C   C5        1.0  0.12012  0.27479  0.94161  1.0000
  C   C6        1.0  0.37988  0.72521  0.44161  1.0000
  C   C7        1.0  0.87987  0.72521  0.05839  1.0000
  C   C8        1.0  0.62013  0.27479  0.55839  1.0000
  C   C9        1.0  0.32153  0.50322  0.04248  1.0000
  C   C10       1.0  0.17847  0.49678  0.54248  1.0000
  C   C11       1.0  0.67847  0.49678  0.95752  1.0000
  C   C12       1.0  0.82153  0.50322  0.45752  1.0000
  C   C13       1.0  0.47849  0.41269  0.91303  1.0000
  C   C14       1.0  0.02151  0.58731  0.41303  1.0000
  C   C15       1.0  0.52151  0.58731  0.08697  1.0000
  C   C16       1.0  0.97849  0.41269  0.58697  1.0000
  N   N1        1.0  0.31839  0.35856  0.98537  1.0000
  N   N2        1.0  0.18161  0.64143  0.48537  1.0000
  N   N3        1.0  0.68161  0.64144  0.01463  1.0000
  N   N4        1.0  0.81840  0.35856  0.51463  1.0000
  Cl  Cl1       1.0  0.80632  0.36888  0.21899  1.0000
  Cl  Cl2       1.0  0.69367  0.63112  0.71900  1.0000
  Cl  Cl3       1.0  0.19368  0.63112  0.78101  1.0000
  Cl  Cl4       1.0  0.30632  0.36888  0.28100  1.0000
  Cl  Cl5       1.0  0.61583  0.91668  0.23886  1.0000
  Cl  Cl6       1.0  0.88417  0.08332  0.73886  1.0000
  Cl  Cl7       1.0  0.38417  0.08332  0.76114  1.0000
  Cl  Cl8       1.0  0.11583  0.91668  0.26114  1.0000
  O   O1        1.0  0.03564  0.15092  0.09027  1.0000
  O   O2        1.0  0.46437  0.84909  0.59027  1.0000
  O   O3        1.0  0.96437  0.84909  0.90973  1.0000
  O   O4        1.0  0.53564  0.15092  0.40973  1.0000
  O   O5        1.0  0.78695  0.15671  0.99464  1.0000
  O   O6        1.0  0.71305  0.84329  0.49464  1.0000
  O   O7        1.0  0.21304  0.84329  0.00536  1.0000
  O   O8        1.0  0.28695  0.15671  0.50536  1.0000
  O   O9        1.0  0.94567  0.13369  0.41908  1.0000
  O   O10       1.0  0.55434  0.86631  0.91908  1.0000
  O   O11       1.0  0.05433  0.86631  0.58092  1.0000
  O   O12       1.0  0.44566  0.13369  0.08092  1.0000
