data_image0
_chemical_formula_structural       Cd2H12C8O12
_chemical_formula_sum              "Cd2 H12 C8 O12"
_cell_length_a       6.5441
_cell_length_b       7.63154
_cell_length_c       7.88668
_cell_angle_alpha    68.4533
_cell_angle_beta     88.1062
_cell_angle_gamma    70.1424

_space_group_name_H-M_alt    "P 1"
_space_group_IT_number       1

loop_
  _space_group_symop_operation_xyz
  'x, y, z'

loop_
  _atom_site_type_symbol
  _atom_site_label
  _atom_site_symmetry_multiplicity
  _atom_site_fract_x
  _atom_site_fract_y
  _atom_site_fract_z
  _atom_site_occupancy
  Cd  Cd1       1.0  0.14919  0.82372  0.88593  1.0000
  Cd  Cd2       1.0  0.85081  0.17628  0.11407  1.0000
  H   H1        1.0  0.48502  0.70481  0.35097  1.0000
  H   H2        1.0  0.51498  0.29519  0.64903  1.0000
  H   H3        1.0  0.85280  0.71817  0.46955  1.0000
  H   H4        1.0  0.14719  0.28185  0.53045  1.0000
  H   H5        1.0  0.57844  0.84649  0.92242  1.0000
  H   H6        1.0  0.42157  0.15351  0.07758  1.0000
  H   H7        1.0  0.55332  0.66195  0.08965  1.0000
  H   H8        1.0  0.44668  0.33805  0.91035  1.0000
  H   H9        1.0  0.76222  0.95489  0.64905  1.0000
  H   H10       1.0  0.23778  0.04510  0.35096  1.0000
  H   H11       1.0  0.82801  0.71584  0.77095  1.0000
  H   H12       1.0  0.17199  0.28416  0.22905  1.0000
  C   C1        1.0  0.35326  0.68875  0.61341  1.0000
  C   C2        1.0  0.64674  0.31126  0.38659  1.0000
  C   C3        1.0  0.46469  0.59903  0.48215  1.0000
  C   C4        1.0  0.53531  0.40097  0.51785  1.0000
  C   C5        1.0  0.03800  0.64886  0.25153  1.0000
  C   C6        1.0  0.96199  0.35114  0.74847  1.0000
  C   C7        1.0  0.96460  0.59414  0.43733  1.0000
  C   C8        1.0  0.03539  0.40586  0.56267  1.0000
  O   O1        1.0  0.28495  0.87972  0.56466  1.0000
  O   O2        1.0  0.71505  0.12029  0.43535  1.0000
  O   O3        1.0  0.32431  0.57592  0.77169  1.0000
  O   O4        1.0  0.67568  0.42408  0.22831  1.0000
  O   O5        1.0  0.99514  0.83739  0.15715  1.0000
  O   O6        1.0  0.00488  0.16261  0.84286  1.0000
  O   O7        1.0  0.14263  0.51861  0.18706  1.0000
  O   O8        1.0  0.85735  0.48139  0.81293  1.0000
  O   O9        1.0  0.47368  0.80492  0.00773  1.0000
  O   O10       1.0  0.52632  0.19508  0.99227  1.0000
  O   O11       1.0  0.80654  0.85014  0.77719  1.0000
  O   O12       1.0  0.19347  0.14985  0.22282  1.0000
