data_image0
_chemical_formula_structural       Mn2H30C42N4O16
_chemical_formula_sum              "Mn2 H30 C42 N4 O16"
_cell_length_a       8.93312
_cell_length_b       11.3513
_cell_length_c       11.5827
_cell_angle_alpha    110.843
_cell_angle_beta     100.658
_cell_angle_gamma    112.466

_space_group_name_H-M_alt    "P 1"
_space_group_IT_number       1

loop_
  _space_group_symop_operation_xyz
  'x, y, z'

loop_
  _atom_site_type_symbol
  _atom_site_label
  _atom_site_symmetry_multiplicity
  _atom_site_fract_x
  _atom_site_fract_y
  _atom_site_fract_z
  _atom_site_occupancy
  Mn  Mn1       1.0  0.35670  0.35464  0.37296  1.0000
  Mn  Mn2       1.0  0.63569  0.63170  0.61455  1.0000
  H   H1        1.0  0.67635  0.39921  0.11678  1.0000
  H   H2        1.0  0.34054  0.61475  0.90063  1.0000
  H   H3        1.0  0.07324  0.64099  0.50989  1.0000
  H   H4        1.0  0.95377  0.37957  0.50354  1.0000
  H   H5        1.0  0.90694  0.41071  0.02145  1.0000
  H   H6        1.0  0.10439  0.59479  0.98978  1.0000
  H   H7        1.0  0.31609  0.80924  0.28564  1.0000
  H   H8        1.0  0.68979  0.19473  0.71381  1.0000
  H   H9        1.0  0.50259  0.51339  0.12130  1.0000
  H   H10       1.0  0.51205  0.49428  0.88763  1.0000
  H   H11       1.0  0.61585  0.01609  0.37782  1.0000
  H   H12       1.0  0.38949  0.99040  0.62481  1.0000
  H   H13       1.0  0.80497  0.72251  0.21290  1.0000
  H   H14       1.0  0.20898  0.28795  0.79909  1.0000
  H   H15       1.0  0.93206  0.22171  0.27974  1.0000
  H   H16       1.0  0.04159  0.74218  0.69901  1.0000
  H   H17       1.0  0.22787  0.23343  0.03566  1.0000
  H   H18       1.0  0.73185  0.75088  0.93194  1.0000
  H   H19       1.0  0.87759  0.07713  0.87513  1.0000
  H   H20       1.0  0.08064  0.92073  0.10002  1.0000
  H   H21       1.0  0.61713  0.91025  0.83086  1.0000
  H   H22       1.0  0.35083  0.07390  0.15167  1.0000
  H   H23       1.0  0.66703  0.19684  0.21875  1.0000
  H   H24       1.0  0.30131  0.79130  0.76148  1.0000
  H   H25       1.0  0.05717  0.21122  0.47034  1.0000
  H   H26       1.0  0.95552  0.79841  0.54364  1.0000
  H   H27       1.0  0.42408  0.15862  0.38332  1.0000
  H   H28       1.0  0.58220  0.83182  0.61809  1.0000
  H   H29       1.0  0.21262  0.08183  0.34982  1.0000
  H   H30       1.0  0.79776  0.90040  0.65848  1.0000
  C   C1        1.0  0.72528  0.52444  0.38021  1.0000
  C   C2        1.0  0.29410  0.48744  0.63224  1.0000
  C   C3        1.0  0.85927  0.52497  0.32097  1.0000
  C   C4        1.0  0.16362  0.49384  0.69442  1.0000
  C   C5        1.0  0.81275  0.45534  0.18218  1.0000
  C   C6        1.0  0.20548  0.55887  0.83263  1.0000
  C   C7        1.0  0.03421  0.59055  0.40239  1.0000
  C   C8        1.0  0.98880  0.42778  0.61079  1.0000
  C   C9        1.0  0.16317  0.59039  0.35048  1.0000
  C   C10       1.0  0.85613  0.42364  0.65962  1.0000
  C   C11       1.0  0.11550  0.52965  0.21186  1.0000
  C   C12       1.0  0.89965  0.47870  0.79770  1.0000
  C   C13       1.0  0.94045  0.46027  0.12848  1.0000
  C   C14       1.0  0.07395  0.54857  0.88314  1.0000
  C   C15       1.0  0.34283  0.65869  0.45084  1.0000
  C   C16       1.0  0.67563  0.35332  0.55822  1.0000
  C   C17       1.0  0.42311  0.79044  0.26950  1.0000
  C   C18       1.0  0.58462  0.21489  0.73277  1.0000
  C   C19       1.0  0.39498  0.64971  0.20129  1.0000
  C   C20       1.0  0.61623  0.35618  0.80428  1.0000
  C   C21       1.0  0.52997  0.62418  0.17619  1.0000
  C   C22       1.0  0.48272  0.38317  0.83135  1.0000
  C   C23       1.0  0.59119  0.90624  0.32128  1.0000
  C   C24       1.0  0.41591  0.10056  0.68238  1.0000
  C   C25       1.0  0.72958  0.88152  0.30327  1.0000
  C   C26       1.0  0.27981  0.12660  0.70506  1.0000
  C   C27       1.0  0.69670  0.73995  0.22757  1.0000
  C   C28       1.0  0.31527  0.26873  0.78170  1.0000
  C   C29       1.0  0.91180  0.99932  0.36429  1.0000
  C   C30       1.0  0.09940  0.00799  0.65051  1.0000
  C   C31       1.0  0.96781  0.20620  0.19336  1.0000
  C   C32       1.0  0.00288  0.76656  0.78353  1.0000
  C   C33       1.0  0.11435  0.20830  0.06311  1.0000
  C   C34       1.0  0.84840  0.77464  0.90854  1.0000
  C   C35       1.0  0.94138  0.13151  0.98224  1.0000
  C   C36       1.0  0.02016  0.85887  0.99258  1.0000
  C   C37       1.0  0.66450  0.06217  0.02877  1.0000
  C   C38       1.0  0.30215  0.92441  0.95155  1.0000
  C   C39       1.0  0.55922  0.94858  0.90048  1.0000
  C   C40       1.0  0.40769  0.03794  0.08006  1.0000
  C   C41       1.0  0.58840  0.10707  0.11878  1.0000
  C   C42       1.0  0.37891  0.88045  0.86158  1.0000
  N   N1        1.0  0.12944  0.25446  0.19464  1.0000
  N   N2        1.0  0.83868  0.71700  0.77774  1.0000
  N   N3        1.0  0.84879  0.13027  0.06640  1.0000
  N   N4        1.0  0.11773  0.85409  0.91201  1.0000
  O   O1        1.0  0.57022  0.42154  0.31321  1.0000
  O   O2        1.0  0.45121  0.59274  0.69089  1.0000
  O   O3        1.0  0.77793  0.62936  0.49934  1.0000
  O   O4        1.0  0.23693  0.37461  0.51939  1.0000
  O   O5        1.0  0.42199  0.58368  0.44378  1.0000
  O   O6        1.0  0.58776  0.42135  0.56050  1.0000
  O   O7        1.0  0.40144  0.78573  0.54104  1.0000
  O   O8        1.0  0.61898  0.22572  0.47052  1.0000
  O   O9        1.0  0.23409  0.52846  0.15056  1.0000
  O   O10       1.0  0.77901  0.47595  0.85782  1.0000
  O   O11       1.0  0.03443  0.97531  0.35389  1.0000
  O   O12       1.0  0.97737  0.02748  0.67237  1.0000
  O   O13       1.0  0.93224  0.13103  0.43105  1.0000
  O   O14       1.0  0.07834  0.87782  0.57609  1.0000
  O   O15       1.0  0.30729  0.13820  0.32603  1.0000
  O   O16       1.0  0.69343  0.83694  0.67000  1.0000
