data_image0
_chemical_formula_structural       Zn2H36C54N4O16
_chemical_formula_sum              "Zn2 H36 C54 N4 O16"
_cell_length_a       9.81684
_cell_length_b       10.0268
_cell_length_c       14.0184
_cell_angle_alpha    96.2953
_cell_angle_beta     107.004
_cell_angle_gamma    110.527

_space_group_name_H-M_alt    "P 1"
_space_group_IT_number       1

loop_
  _space_group_symop_operation_xyz
  'x, y, z'

loop_
  _atom_site_type_symbol
  _atom_site_label
  _atom_site_symmetry_multiplicity
  _atom_site_fract_x
  _atom_site_fract_y
  _atom_site_fract_z
  _atom_site_occupancy
  Zn  Zn1       1.0  0.99248  0.34814  0.16169  1.0000
  Zn  Zn2       1.0  0.00752  0.65186  0.83831  1.0000
  H   H1        1.0  0.63453  0.51239  0.74231  1.0000
  H   H2        1.0  0.36547  0.48761  0.25769  1.0000
  H   H3        1.0  0.17439  0.22292  0.71973  1.0000
  H   H4        1.0  0.82560  0.77707  0.28027  1.0000
  H   H5        1.0  0.10694  0.13176  0.53226  1.0000
  H   H6        1.0  0.89306  0.86824  0.46774  1.0000
  H   H7        1.0  0.56630  0.42317  0.55677  1.0000
  H   H8        1.0  0.43370  0.57683  0.44323  1.0000
  H   H9        1.0  0.98108  0.83520  0.16221  1.0000
  H   H10       1.0  0.01893  0.16480  0.83779  1.0000
  H   H11       1.0  0.39506  0.03810  0.50718  1.0000
  H   H12       1.0  0.60495  0.96190  0.49282  1.0000
  H   H13       1.0  0.31134  0.77813  0.41512  1.0000
  H   H14       1.0  0.68866  0.22187  0.58489  1.0000
  H   H15       1.0  0.99655  0.40597  0.39594  1.0000
  H   H16       1.0  0.00345  0.59403  0.60406  1.0000
  H   H17       1.0  0.79526  0.37821  0.47895  1.0000
  H   H18       1.0  0.20474  0.62179  0.52104  1.0000
  H   H19       1.0  0.51371  0.28346  0.36577  1.0000
  H   H20       1.0  0.48629  0.71653  0.63423  1.0000
  H   H21       1.0  0.31269  0.18935  0.18563  1.0000
  H   H22       1.0  0.68731  0.81065  0.81437  1.0000
  H   H23       1.0  0.25137  0.11161  0.99770  1.0000
  H   H24       1.0  0.74863  0.88839  0.00230  1.0000
  H   H25       1.0  0.34130  0.07980  0.85138  1.0000
  H   H26       1.0  0.65870  0.92019  0.14862  1.0000
  H   H27       1.0  0.56784  0.11372  0.79081  1.0000
  H   H28       1.0  0.43217  0.88627  0.20919  1.0000
  H   H29       1.0  0.83676  0.21925  0.92038  1.0000
  H   H30       1.0  0.16324  0.78075  0.07962  1.0000
  H   H31       1.0  0.21645  0.40899  0.07744  1.0000
  H   H32       1.0  0.78354  0.59100  0.92256  1.0000
  H   H33       1.0  0.06671  0.38237  0.98317  1.0000
  H   H34       1.0  0.93329  0.61763  0.01683  1.0000
  H   H35       1.0  0.36847  0.43147  0.96467  1.0000
  H   H36       1.0  0.63151  0.56852  0.03533  1.0000
  C   C1        1.0  0.44981  0.42718  0.85503  1.0000
  C   C2        1.0  0.55019  0.57282  0.14497  1.0000
  C   C3        1.0  0.40890  0.37318  0.74395  1.0000
  C   C4        1.0  0.59109  0.62682  0.25605  1.0000
  C   C5        1.0  0.51887  0.42918  0.69760  1.0000
  C   C6        1.0  0.48113  0.57082  0.30240  1.0000
  C   C7        1.0  0.25997  0.26599  0.68389  1.0000
  C   C8        1.0  0.74003  0.73401  0.31611  1.0000
  C   C9        1.0  0.22225  0.21431  0.57947  1.0000
  C   C10       1.0  0.77775  0.78569  0.42053  1.0000
  C   C11       1.0  0.48111  0.37926  0.59284  1.0000
  C   C12       1.0  0.51888  0.62074  0.40716  1.0000
  C   C13       1.0  0.33345  0.27156  0.53434  1.0000
  C   C14       1.0  0.66655  0.72844  0.46566  1.0000
  C   C15       1.0  0.03846  0.11264  0.23070  1.0000
  C   C16       1.0  0.96154  0.88736  0.76930  1.0000
  C   C17       1.0  0.12238  0.02698  0.28527  1.0000
  C   C18       1.0  0.87763  0.97303  0.71473  1.0000
  C   C19       1.0  0.24022  0.08274  0.38288  1.0000
  C   C20       1.0  0.75979  0.91726  0.61712  1.0000
  C   C21       1.0  0.07560  0.88045  0.23653  1.0000
  C   C22       1.0  0.92441  0.11955  0.76347  1.0000
  C   C23       1.0  0.30617  0.99284  0.43055  1.0000
  C   C24       1.0  0.69383  0.00716  0.56946  1.0000
  C   C25       1.0  0.25926  0.84840  0.37957  1.0000
  C   C26       1.0  0.74075  0.15161  0.62043  1.0000
  C   C27       1.0  0.14373  0.79070  0.28117  1.0000
  C   C28       1.0  0.85627  0.20930  0.71884  1.0000
  C   C29       1.0  0.08878  0.63444  0.22627  1.0000
  C   C30       1.0  0.91122  0.36557  0.77373  1.0000
  C   C31       1.0  0.87272  0.36315  0.34997  1.0000
  C   C32       1.0  0.12728  0.63685  0.65003  1.0000
  C   C33       1.0  0.75948  0.34761  0.39557  1.0000
  C   C34       1.0  0.24052  0.65239  0.60443  1.0000
  C   C35       1.0  0.60433  0.29410  0.33334  1.0000
  C   C36       1.0  0.39566  0.70590  0.66665  1.0000
  C   C37       1.0  0.56212  0.25361  0.22555  1.0000
  C   C38       1.0  0.43788  0.74639  0.77445  1.0000
  C   C39       1.0  0.68469  0.27187  0.18713  1.0000
  C   C40       1.0  0.31531  0.72812  0.81287  1.0000
  C   C41       1.0  0.40483  0.19695  0.15516  1.0000
  C   C42       1.0  0.59517  0.80305  0.84483  1.0000
  C   C43       1.0  0.37099  0.15610  0.05176  1.0000
  C   C44       1.0  0.62901  0.84389  0.94823  1.0000
  C   C45       1.0  0.64909  0.22988  0.07829  1.0000
  C   C46       1.0  0.35092  0.77012  0.92171  1.0000
  C   C47       1.0  0.49181  0.17030  0.01079  1.0000
  C   C48       1.0  0.50819  0.82969  0.98921  1.0000
  C   C49       1.0  0.46173  0.12750  0.90451  1.0000
  C   C50       1.0  0.53827  0.87250  0.09549  1.0000
  C   C51       1.0  0.58546  0.14559  0.87179  1.0000
  C   C52       1.0  0.41454  0.85441  0.12821  1.0000
  C   C53       1.0  0.73776  0.20551  0.94429  1.0000
  C   C54       1.0  0.26224  0.79448  0.05571  1.0000
  N   N1        1.0  0.76911  0.24730  0.04442  1.0000
  N   N2        1.0  0.23089  0.75270  0.95558  1.0000
  N   N3        1.0  0.83604  0.32711  0.24895  1.0000
  N   N4        1.0  0.16396  0.67289  0.75105  1.0000
  O   O1        1.0  0.14348  0.55191  0.27347  1.0000
  O   O2        1.0  0.85652  0.44810  0.72653  1.0000
  O   O3        1.0  0.98721  0.58555  0.13582  1.0000
  O   O4        1.0  0.01279  0.41446  0.86418  1.0000
  O   O5        1.0  0.89529  0.04672  0.18192  1.0000
  O   O6        1.0  0.10472  0.95328  0.81808  1.0000
  O   O7        1.0  0.12198  0.24720  0.23646  1.0000
  O   O8        1.0  0.87803  0.75280  0.76355  1.0000
  O   O9        1.0  0.29664  0.23019  0.42944  1.0000
  O   O10       1.0  0.70336  0.76982  0.57057  1.0000
  O   O11       1.0  0.58646  0.50421  0.91484  1.0000
  O   O12       1.0  0.41353  0.49578  0.08516  1.0000
  O   O13       1.0  0.10234  0.35685  0.05022  1.0000
  O   O14       1.0  0.89766  0.64315  0.94978  1.0000
  O   O15       1.0  0.33128  0.38874  0.88751  1.0000
  O   O16       1.0  0.66871  0.61125  0.11249  1.0000
