data_image0
_chemical_formula_structural       Cd4H32C52N20Cl4O8
_chemical_formula_sum              "Cd4 H32 C52 N20 Cl4 O8"
_cell_length_a       11.0495
_cell_length_b       11.6539
_cell_length_c       13.2
_cell_angle_alpha    110.555
_cell_angle_beta     98.7398
_cell_angle_gamma    113.967

_space_group_name_H-M_alt    "P 1"
_space_group_IT_number       1

loop_
  _space_group_symop_operation_xyz
  'x, y, z'

loop_
  _atom_site_type_symbol
  _atom_site_label
  _atom_site_symmetry_multiplicity
  _atom_site_fract_x
  _atom_site_fract_y
  _atom_site_fract_z
  _atom_site_occupancy
  Cd  Cd1       1.0  0.14759  0.22177  0.11102  1.0000
  Cd  Cd2       1.0  0.85241  0.77823  0.88898  1.0000
  Cd  Cd3       1.0  0.63587  0.44464  0.60153  1.0000
  Cd  Cd4       1.0  0.36413  0.55536  0.39847  1.0000
  H   H1        1.0  0.22344  0.53958  0.12249  1.0000
  H   H2        1.0  0.77656  0.46042  0.87751  1.0000
  H   H3        1.0  0.31597  0.67481  0.01137  1.0000
  H   H4        1.0  0.68403  0.32518  0.98863  1.0000
  H   H5        1.0  0.39744  0.36379  0.81755  1.0000
  H   H6        1.0  0.60256  0.63621  0.18245  1.0000
  H   H7        1.0  0.22955  0.92899  0.97128  1.0000
  H   H8        1.0  0.77045  0.07101  0.02872  1.0000
  H   H9        1.0  0.51631  0.08471  0.75972  1.0000
  H   H10       1.0  0.48369  0.91529  0.24028  1.0000
  H   H11       1.0  0.61541  0.93381  0.66428  1.0000
  H   H12       1.0  0.38459  0.06619  0.33571  1.0000
  H   H13       1.0  0.44276  0.66655  0.82147  1.0000
  H   H14       1.0  0.55724  0.33345  0.17853  1.0000
  H   H15       1.0  0.33458  0.80671  0.90732  1.0000
  H   H16       1.0  0.66542  0.19329  0.09268  1.0000
  H   H17       1.0  0.64751  0.15161  0.56636  1.0000
  H   H18       1.0  0.35249  0.84839  0.43364  1.0000
  H   H19       1.0  0.75246  0.00761  0.46304  1.0000
  H   H20       1.0  0.24754  0.99238  0.53696  1.0000
  H   H21       1.0  0.92794  0.29397  0.33614  1.0000
  H   H22       1.0  0.07206  0.70602  0.66386  1.0000
  H   H23       1.0  0.74413  0.71180  0.47915  1.0000
  H   H24       1.0  0.25587  0.28820  0.52085  1.0000
  H   H25       1.0  0.86800  0.87352  0.42781  1.0000
  H   H26       1.0  0.13200  0.12648  0.57219  1.0000
  H   H27       1.0  0.96129  0.01871  0.33034  1.0000
  H   H28       1.0  0.03870  0.98129  0.66967  1.0000
  H   H29       1.0  0.07127  0.72023  0.12988  1.0000
  H   H30       1.0  0.92874  0.27977  0.87012  1.0000
  H   H31       1.0  0.98504  0.57668  0.23343  1.0000
  H   H32       1.0  0.01496  0.42332  0.76657  1.0000
  C   C1        1.0  0.26309  0.50208  0.05451  1.0000
  C   C2        1.0  0.73691  0.49792  0.94549  1.0000
  C   C3        1.0  0.31306  0.57458  0.99214  1.0000
  C   C4        1.0  0.68694  0.42542  0.00786  1.0000
  C   C5        1.0  0.35916  0.40447  0.88612  1.0000
  C   C6        1.0  0.64084  0.59553  0.11389  1.0000
  C   C7        1.0  0.31179  0.33215  0.94997  1.0000
  C   C8        1.0  0.68821  0.66785  0.05003  1.0000
  C   C9        1.0  0.31356  0.20245  0.93319  1.0000
  C   C10       1.0  0.68645  0.79755  0.06681  1.0000
  C   C11       1.0  0.27075  0.01565  0.94973  1.0000
  C   C12       1.0  0.72925  0.98435  0.05027  1.0000
  C   C13       1.0  0.41999  0.95428  0.83865  1.0000
  C   C14       1.0  0.58001  0.04572  0.16135  1.0000
  C   C15       1.0  0.50204  0.99337  0.77283  1.0000
  C   C16       1.0  0.49796  0.00663  0.22717  1.0000
  C   C17       1.0  0.55721  0.90968  0.72054  1.0000
  C   C18       1.0  0.44279  0.09032  0.27946  1.0000
  C   C19       1.0  0.53567  0.79138  0.73683  1.0000
  C   C20       1.0  0.46433  0.20862  0.26317  1.0000
  C   C21       1.0  0.45930  0.75791  0.80750  1.0000
  C   C22       1.0  0.54070  0.24209  0.19250  1.0000
  C   C23       1.0  0.39913  0.83747  0.85687  1.0000
  C   C24       1.0  0.60087  0.16253  0.14313  1.0000
  C   C25       1.0  0.58203  0.69284  0.67148  1.0000
  C   C26       1.0  0.41797  0.30716  0.32852  1.0000
  C   C27       1.0  0.71101  0.18184  0.51482  1.0000
  C   C28       1.0  0.28898  0.81815  0.48518  1.0000
  C   C29       1.0  0.77039  0.10472  0.45876  1.0000
  C   C30       1.0  0.22961  0.89528  0.54124  1.0000
  C   C31       1.0  0.86464  0.26063  0.38713  1.0000
  C   C32       1.0  0.13536  0.73937  0.61287  1.0000
  C   C33       1.0  0.80358  0.33789  0.44186  1.0000
  C   C34       1.0  0.19642  0.66211  0.55814  1.0000
  C   C35       1.0  0.81492  0.46260  0.43230  1.0000
  C   C36       1.0  0.18508  0.53740  0.56770  1.0000
  C   C37       1.0  0.78114  0.63631  0.45560  1.0000
  C   C38       1.0  0.21886  0.36369  0.54440  1.0000
  C   C39       1.0  0.91852  0.71490  0.33423  1.0000
  C   C40       1.0  0.08148  0.28510  0.66577  1.0000
  C   C41       1.0  0.91416  0.84037  0.36383  1.0000
  C   C42       1.0  0.08584  0.15963  0.63617  1.0000
  C   C43       1.0  0.96785  0.92264  0.30936  1.0000
  C   C44       1.0  0.03215  0.07736  0.69064  1.0000
  C   C45       1.0  0.02250  0.87856  0.22342  1.0000
  C   C46       1.0  0.97750  0.12144  0.77658  1.0000
  C   C47       1.0  0.02903  0.75414  0.19698  1.0000
  C   C48       1.0  0.97097  0.24586  0.80302  1.0000
  C   C49       1.0  0.97938  0.67291  0.25291  1.0000
  C   C50       1.0  0.02062  0.32709  0.74709  1.0000
  C   C51       1.0  0.06321  0.95810  0.15456  1.0000
  C   C52       1.0  0.93679  0.04191  0.84544  1.0000
  N   N1        1.0  0.26224  0.38086  0.03262  1.0000
  N   N2        1.0  0.73777  0.61914  0.96738  1.0000
  N   N3        1.0  0.35964  0.52575  0.90782  1.0000
  N   N4        1.0  0.64036  0.47425  0.09218  1.0000
  N   N5        1.0  0.38385  0.15324  0.87451  1.0000
  N   N6        1.0  0.61616  0.84676  0.12549  1.0000
  N   N7        1.0  0.35637  0.03449  0.88601  1.0000
  N   N8        1.0  0.64363  0.96551  0.11399  1.0000
  N   N9        1.0  0.24324  0.12098  0.98109  1.0000
  N   N10       1.0  0.75677  0.87903  0.01891  1.0000
  N   N11       1.0  0.72817  0.29776  0.50614  1.0000
  N   N12       1.0  0.27183  0.70224  0.49386  1.0000
  N   N13       1.0  0.84843  0.14499  0.39628  1.0000
  N   N14       1.0  0.15157  0.85501  0.60372  1.0000
  N   N15       1.0  0.88202  0.51651  0.37063  1.0000
  N   N16       1.0  0.11798  0.48349  0.62937  1.0000
  N   N17       1.0  0.86032  0.62743  0.38634  1.0000
  N   N18       1.0  0.13968  0.37257  0.61366  1.0000
  N   N19       1.0  0.75182  0.53355  0.48577  1.0000
  N   N20       1.0  0.24818  0.46645  0.51423  1.0000
  Cl  Cl1       1.0  0.09227  0.40424  0.23324  1.0000
  Cl  Cl2       1.0  0.90774  0.59576  0.76676  1.0000
  Cl  Cl3       1.0  0.49098  0.26607  0.66051  1.0000
  Cl  Cl4       1.0  0.50902  0.73393  0.33949  1.0000
  O   O1        1.0  0.57338  0.66858  0.56920  1.0000
  O   O2        1.0  0.42662  0.33142  0.43080  1.0000
  O   O3        1.0  0.62347  0.63327  0.72395  1.0000
  O   O4        1.0  0.37654  0.36673  0.27605  1.0000
  O   O5        1.0  0.09481  0.08735  0.20239  1.0000
  O   O6        1.0  0.90519  0.91265  0.79762  1.0000
  O   O7        1.0  0.06007  0.89110  0.05344  1.0000
  O   O8        1.0  0.93993  0.10890  0.94656  1.0000
