data_image0
_chemical_formula_structural       Li4H32C32N12O12
_chemical_formula_sum              "Li4 H32 C32 N12 O12"
_cell_length_a       7.25431
_cell_length_b       9.49259
_cell_length_c       12.8851
_cell_angle_alpha    90
_cell_angle_beta     100.632
_cell_angle_gamma    90.0004

_space_group_name_H-M_alt    "P 1"
_space_group_IT_number       1

loop_
  _space_group_symop_operation_xyz
  'x, y, z'

loop_
  _atom_site_type_symbol
  _atom_site_label
  _atom_site_symmetry_multiplicity
  _atom_site_fract_x
  _atom_site_fract_y
  _atom_site_fract_z
  _atom_site_occupancy
  Li  Li1       1.0  0.14463  0.36576  0.60710  1.0000
  Li  Li2       1.0  0.35537  0.86576  0.39290  1.0000
  Li  Li3       1.0  0.85537  0.63424  0.39290  1.0000
  Li  Li4       1.0  0.64463  0.13424  0.60710  1.0000
  H   H1        1.0  0.25960  0.13350  0.66548  1.0000
  H   H2        1.0  0.24040  0.63350  0.33452  1.0000
  H   H3        1.0  0.74040  0.86650  0.33452  1.0000
  H   H4        1.0  0.75960  0.36651  0.66548  1.0000
  H   H5        1.0  0.04703  0.13149  0.67522  1.0000
  H   H6        1.0  0.45297  0.63149  0.32478  1.0000
  H   H7        1.0  0.95297  0.86851  0.32478  1.0000
  H   H8        1.0  0.54703  0.36851  0.67522  1.0000
  H   H9        1.0  0.24855  0.61299  0.50957  1.0000
  H   H10       1.0  0.25145  0.11299  0.49043  1.0000
  H   H11       1.0  0.75145  0.38702  0.49043  1.0000
  H   H12       1.0  0.74855  0.88701  0.50957  1.0000
  H   H13       1.0  0.47579  0.44439  0.81706  1.0000
  H   H14       1.0  0.02421  0.94439  0.18294  1.0000
  H   H15       1.0  0.52421  0.55561  0.18294  1.0000
  H   H16       1.0  0.97579  0.05561  0.81706  1.0000
  H   H17       1.0  0.59631  0.47372  0.94637  1.0000
  H   H18       1.0  0.90369  0.97372  0.05363  1.0000
  H   H19       1.0  0.40369  0.52628  0.05363  1.0000
  H   H20       1.0  0.09631  0.02628  0.94637  1.0000
  H   H21       1.0  0.65056  0.71022  0.01557  1.0000
  H   H22       1.0  0.84944  0.21022  0.98443  1.0000
  H   H23       1.0  0.34944  0.28978  0.98443  1.0000
  H   H24       1.0  0.15056  0.78978  0.01557  1.0000
  H   H25       1.0  0.64213  0.96559  0.97957  1.0000
  H   H26       1.0  0.85787  0.46559  0.02043  1.0000
  H   H27       1.0  0.35788  0.03441  0.02043  1.0000
  H   H28       1.0  0.14212  0.53441  0.97957  1.0000
  H   H29       1.0  0.52600  0.05847  0.79875  1.0000
  H   H30       1.0  0.97400  0.55847  0.20125  1.0000
  H   H31       1.0  0.47401  0.94153  0.20125  1.0000
  H   H32       1.0  0.02599  0.44153  0.79875  1.0000
  C   C1        1.0  0.37522  0.61308  0.66608  1.0000
  C   C2        1.0  0.12478  0.11307  0.33392  1.0000
  C   C3        1.0  0.62478  0.38693  0.33392  1.0000
  C   C4        1.0  0.87522  0.88692  0.66608  1.0000
  C   C5        1.0  0.45355  0.70432  0.75278  1.0000
  C   C6        1.0  0.04646  0.20431  0.24722  1.0000
  C   C7        1.0  0.54645  0.29569  0.24722  1.0000
  C   C8        1.0  0.95354  0.79569  0.75278  1.0000
  C   C9        1.0  0.52469  0.65102  0.85631  1.0000
  C   C10       1.0  0.97532  0.15102  0.14369  1.0000
  C   C11       1.0  0.47531  0.34898  0.14369  1.0000
  C   C12       1.0  0.02469  0.84898  0.85631  1.0000
  C   C13       1.0  0.59515  0.74875  0.93615  1.0000
  C   C14       1.0  0.90484  0.24874  0.06385  1.0000
  C   C15       1.0  0.40484  0.25125  0.06385  1.0000
  C   C16       1.0  0.09515  0.75126  0.93615  1.0000
  C   C17       1.0  0.59179  0.89258  0.91528  1.0000
  C   C18       1.0  0.90821  0.39257  0.08472  1.0000
  C   C19       1.0  0.40822  0.10742  0.08472  1.0000
  C   C20       1.0  0.09178  0.60742  0.91528  1.0000
  C   C21       1.0  0.52382  0.94600  0.81491  1.0000
  C   C22       1.0  0.97618  0.44600  0.18509  1.0000
  C   C23       1.0  0.47618  0.05400  0.18509  1.0000
  C   C24       1.0  0.02382  0.55400  0.81491  1.0000
  C   C25       1.0  0.45592  0.85174  0.73328  1.0000
  C   C26       1.0  0.04408  0.35174  0.26672  1.0000
  C   C27       1.0  0.54409  0.14826  0.26672  1.0000
  C   C28       1.0  0.95592  0.64826  0.73328  1.0000
  C   C29       1.0  0.39262  0.90274  0.62524  1.0000
  C   C30       1.0  0.10738  0.40274  0.37476  1.0000
  C   C31       1.0  0.60738  0.09726  0.37475  1.0000
  C   C32       1.0  0.89262  0.59726  0.62524  1.0000
  N   N1        1.0  0.31628  0.67519  0.57167  1.0000
  N   N2        1.0  0.18372  0.17519  0.42833  1.0000
  N   N3        1.0  0.68372  0.32481  0.42833  1.0000
  N   N4        1.0  0.81627  0.82481  0.57167  1.0000
  N   N5        1.0  0.32666  0.81471  0.54726  1.0000
  N   N6        1.0  0.17334  0.31471  0.45274  1.0000
  N   N7        1.0  0.67334  0.18529  0.45274  1.0000
  N   N8        1.0  0.82666  0.68529  0.54726  1.0000
  N   N9        1.0  0.51901  0.51100  0.87854  1.0000
  N   N10       1.0  0.98099  0.01100  0.12146  1.0000
  N   N11       1.0  0.48099  0.48900  0.12146  1.0000
  N   N12       1.0  0.01901  0.98900  0.87854  1.0000
  O   O1        1.0  0.35567  0.47897  0.67342  1.0000
  O   O2        1.0  0.14433  0.97897  0.32659  1.0000
  O   O3        1.0  0.64433  0.52103  0.32658  1.0000
  O   O4        1.0  0.85567  0.02103  0.67341  1.0000
  O   O5        1.0  0.40474  0.03661  0.60359  1.0000
  O   O6        1.0  0.09526  0.53661  0.39641  1.0000
  O   O7        1.0  0.59527  0.96339  0.39641  1.0000
  O   O8        1.0  0.90474  0.46339  0.60359  1.0000
  O   O9        1.0  0.15855  0.19368  0.68512  1.0000
  O   O10       1.0  0.34145  0.69368  0.31488  1.0000
  O   O11       1.0  0.84145  0.80632  0.31488  1.0000
  O   O12       1.0  0.65855  0.30632  0.68512  1.0000
