data_image0
_chemical_formula_structural       Co2H16C16O8
_chemical_formula_sum              "Co2 H16 C16 O8"
_cell_length_a       4.87913
_cell_length_b       6.67938
_cell_length_c       12.8919
_cell_angle_alpha    99.3783
_cell_angle_beta     100.557
_cell_angle_gamma    95.7276

_space_group_name_H-M_alt    "P 1"
_space_group_IT_number       1

loop_
  _space_group_symop_operation_xyz
  'x, y, z'

loop_
  _atom_site_type_symbol
  _atom_site_label
  _atom_site_symmetry_multiplicity
  _atom_site_fract_x
  _atom_site_fract_y
  _atom_site_fract_z
  _atom_site_occupancy
  Co  Co1       1.0  0.23944  0.30617  0.42112  1.0000
  Co  Co2       1.0  0.76057  0.69384  0.57889  1.0000
  H   H1        1.0  0.95906  0.90452  0.30299  1.0000
  H   H2        1.0  0.04095  0.09548  0.69701  1.0000
  H   H3        1.0  0.57366  0.06137  0.12723  1.0000
  H   H4        1.0  0.42634  0.93864  0.87278  1.0000
  H   H5        1.0  0.94065  0.11977  0.17043  1.0000
  H   H6        1.0  0.05935  0.88023  0.82957  1.0000
  H   H7        1.0  0.86283  0.86072  0.00100  1.0000
  H   H8        1.0  0.13714  0.13929  0.99900  1.0000
  H   H9        1.0  0.79740  0.50496  0.02047  1.0000
  H   H10       1.0  0.20257  0.49504  0.97953  1.0000
  H   H11       1.0  0.85381  0.50783  0.22927  1.0000
  H   H12       1.0  0.14619  0.49217  0.77072  1.0000
  H   H13       1.0  0.51485  0.41929  0.15071  1.0000
  H   H14       1.0  0.48514  0.58071  0.84929  1.0000
  H   H15       1.0  0.34262  0.74052  0.20019  1.0000
  H   H16       1.0  0.65739  0.25948  0.79982  1.0000
  C   C1        1.0  0.65350  0.09749  0.33748  1.0000
  C   C2        1.0  0.34651  0.90251  0.66253  1.0000
  C   C3        1.0  0.74711  0.92720  0.26465  1.0000
  C   C4        1.0  0.25290  0.07280  0.73535  1.0000
  C   C5        1.0  0.76501  0.99523  0.15703  1.0000
  C   C6        1.0  0.23499  0.00477  0.84297  1.0000
  C   C7        1.0  0.80272  0.82132  0.07351  1.0000
  C   C8        1.0  0.19727  0.17869  0.92648  1.0000
  C   C9        1.0  0.76519  0.62479  0.08381  1.0000
  C   C10       1.0  0.23479  0.37520  0.91619  1.0000
  C   C11       1.0  0.67388  0.55555  0.17831  1.0000
  C   C12       1.0  0.32612  0.44445  0.82169  1.0000
  C   C13       1.0  0.55179  0.72476  0.24498  1.0000
  C   C14       1.0  0.44822  0.27524  0.75502  1.0000
  C   C15       1.0  0.51393  0.65462  0.34804  1.0000
  C   C16       1.0  0.48608  0.34538  0.65196  1.0000
  O   O1        1.0  0.82632  0.25168  0.39065  1.0000
  O   O2        1.0  0.17369  0.74832  0.60935  1.0000
  O   O3        1.0  0.39123  0.08491  0.33943  1.0000
  O   O4        1.0  0.60878  0.91509  0.66057  1.0000
  O   O5        1.0  0.70230  0.72506  0.43183  1.0000
  O   O6        1.0  0.29771  0.27495  0.56817  1.0000
  O   O7        1.0  0.30177  0.52199  0.34227  1.0000
  O   O8        1.0  0.69823  0.47801  0.65773  1.0000
