data_image0
_chemical_formula_structural       Na4H44C24N32O8
_chemical_formula_sum              "Na4 H44 C24 N32 O8"
_cell_length_a       6.18482
_cell_length_b       8.98377
_cell_length_c       21.0581
_cell_angle_alpha    78.7748
_cell_angle_beta     81.6266
_cell_angle_gamma    69.8768

_space_group_name_H-M_alt    "P 1"
_space_group_IT_number       1

loop_
  _space_group_symop_operation_xyz
  'x, y, z'

loop_
  _atom_site_type_symbol
  _atom_site_label
  _atom_site_symmetry_multiplicity
  _atom_site_fract_x
  _atom_site_fract_y
  _atom_site_fract_z
  _atom_site_occupancy
  Na  Na1       1.0  0.28201  0.97265  0.46456  1.0000
  Na  Na2       1.0  0.71981  0.52694  0.03549  1.0000
  Na  Na3       1.0  0.71799  0.02735  0.53544  1.0000
  Na  Na4       1.0  0.28019  0.47306  0.96451  1.0000
  H   H1        1.0  0.07312  0.20526  0.55378  1.0000
  H   H2        1.0  0.83111  0.29495  0.94621  1.0000
  H   H3        1.0  0.92688  0.79474  0.44622  1.0000
  H   H4        1.0  0.16889  0.70505  0.05379  1.0000
  H   H5        1.0  0.28728  0.92175  0.60543  1.0000
  H   H6        1.0  0.81455  0.57847  0.89453  1.0000
  H   H7        1.0  0.71272  0.07825  0.39457  1.0000
  H   H8        1.0  0.18545  0.42153  0.10547  1.0000
  H   H9        1.0  0.56945  0.53248  0.27893  1.0000
  H   H10       1.0  0.38100  0.96776  0.22119  1.0000
  H   H11       1.0  0.43055  0.46752  0.72108  1.0000
  H   H12       1.0  0.61900  0.03224  0.77881  1.0000
  H   H13       1.0  0.18663  0.62132  0.33456  1.0000
  H   H14       1.0  0.14316  0.87857  0.16546  1.0000
  H   H15       1.0  0.81337  0.37868  0.66544  1.0000
  H   H16       1.0  0.85685  0.12143  0.83454  1.0000
  H   H17       1.0  0.97272  0.49762  0.23886  1.0000
  H   H18       1.0  0.70997  0.00247  0.26097  1.0000
  H   H19       1.0  0.02728  0.50238  0.76114  1.0000
  H   H20       1.0  0.29003  0.99753  0.73903  1.0000
  H   H21       1.0  0.00185  0.41093  0.47439  1.0000
  H   H22       1.0  0.88646  0.08934  0.02555  1.0000
  H   H23       1.0  0.99815  0.58907  0.52561  1.0000
  H   H24       1.0  0.11354  0.91066  0.97445  1.0000
  H   H25       1.0  0.72389  0.39002  0.50026  1.0000
  H   H26       1.0  0.61320  0.11014  0.99973  1.0000
  H   H27       1.0  0.27611  0.60998  0.49974  1.0000
  H   H28       1.0  0.38679  0.88986  0.00027  1.0000
  H   H29       1.0  0.89012  0.30753  0.43059  1.0000
  H   H30       1.0  0.62790  0.19274  0.06935  1.0000
  H   H31       1.0  0.10988  0.69247  0.56941  1.0000
  H   H32       1.0  0.37210  0.80726  0.93065  1.0000
  H   H33       1.0  0.41796  0.66369  0.62165  1.0000
  H   H34       1.0  0.70344  0.83654  0.87821  1.0000
  H   H35       1.0  0.58204  0.33631  0.37835  1.0000
  H   H36       1.0  0.29656  0.16346  0.12179  1.0000
  H   H37       1.0  0.68120  0.70690  0.61860  1.0000
  H   H38       1.0  0.00678  0.79330  0.88137  1.0000
  H   H39       1.0  0.31880  0.29310  0.38140  1.0000
  H   H40       1.0  0.99322  0.20670  0.11863  1.0000
  H   H41       1.0  0.59886  0.66390  0.54777  1.0000
  H   H42       1.0  0.81081  0.83652  0.95214  1.0000
  H   H43       1.0  0.40113  0.33611  0.45223  1.0000
  H   H44       1.0  0.18919  0.16348  0.04786  1.0000
  C   C1        1.0  0.82854  0.64095  0.34757  1.0000
  C   C2        1.0  0.81775  0.85903  0.15239  1.0000
  C   C3        1.0  0.17146  0.35905  0.65243  1.0000
  C   C4        1.0  0.18224  0.14097  0.84761  1.0000
  C   C5        1.0  0.32740  0.48097  0.22405  1.0000
  C   C6        1.0  0.03299  0.01920  0.27594  1.0000
  C   C7        1.0  0.67261  0.51903  0.77595  1.0000
  C   C8        1.0  0.96701  0.98080  0.72406  1.0000
  C   C9        1.0  0.05581  0.59258  0.31404  1.0000
  C   C10       1.0  0.96318  0.90745  0.18593  1.0000
  C   C11       1.0  0.94419  0.40742  0.68597  1.0000
  C   C12       1.0  0.03682  0.09255  0.81407  1.0000
  C   C13       1.0  0.10485  0.52240  0.26015  1.0000
  C   C14       1.0  0.88804  0.97775  0.23975  1.0000
  C   C15       1.0  0.89515  0.47760  0.73985  1.0000
  C   C16       1.0  0.11196  0.02225  0.76025  1.0000
  C   C17       1.0  0.89907  0.33060  0.47917  1.0000
  C   C18       1.0  0.70809  0.16961  0.02078  1.0000
  C   C19       1.0  0.10093  0.66939  0.52083  1.0000
  C   C20       1.0  0.29190  0.83039  0.97922  1.0000
  C   C21       1.0  0.53495  0.72194  0.59119  1.0000
  C   C22       1.0  0.84829  0.77836  0.90874  1.0000
  C   C23       1.0  0.46505  0.27805  0.40881  1.0000
  C   C24       1.0  0.15171  0.22164  0.09126  1.0000
  N   N1        1.0  0.52873  0.48697  0.23976  1.0000
  N   N2        1.0  0.25597  0.01314  0.26032  1.0000
  N   N3        1.0  0.47128  0.51303  0.76024  1.0000
  N   N4        1.0  0.74403  0.98686  0.73968  1.0000
  N   N5        1.0  0.63857  0.61489  0.33371  1.0000
  N   N6        1.0  0.58797  0.88510  0.16623  1.0000
  N   N7        1.0  0.36143  0.38511  0.66629  1.0000
  N   N8        1.0  0.41203  0.11490  0.83377  1.0000
  N   N9        1.0  0.37038  0.42976  0.16616  1.0000
  N   N10       1.0  0.96701  0.07035  0.33381  1.0000
  N   N11       1.0  0.62962  0.57024  0.83384  1.0000
  N   N12       1.0  0.03299  0.92965  0.66619  1.0000
  N   N13       1.0  0.77446  0.72257  0.39838  1.0000
  N   N14       1.0  0.89585  0.77747  0.10158  1.0000
  N   N15       1.0  0.22554  0.27743  0.60162  1.0000
  N   N16       1.0  0.10415  0.22253  0.89842  1.0000
  N   N17       1.0  0.54887  0.74593  0.41525  1.0000
  N   N18       1.0  0.71044  0.75406  0.08467  1.0000
  N   N19       1.0  0.45113  0.25407  0.58475  1.0000
  N   N20       1.0  0.28956  0.24594  0.91533  1.0000
  N   N21       1.0  0.46719  0.68134  0.37662  1.0000
  N   N22       1.0  0.52578  0.81862  0.12328  1.0000
  N   N23       1.0  0.53281  0.31866  0.62338  1.0000
  N   N24       1.0  0.47421  0.18138  0.87672  1.0000
  N   N25       1.0  0.59690  0.40659  0.14805  1.0000
  N   N26       1.0  0.15225  0.09350  0.35204  1.0000
  N   N27       1.0  0.40310  0.59342  0.85195  1.0000
  N   N28       1.0  0.84775  0.90650  0.64796  1.0000
  N   N29       1.0  0.69410  0.44031  0.19207  1.0000
  N   N30       1.0  0.32707  0.05979  0.30809  1.0000
  N   N31       1.0  0.30590  0.55969  0.80793  1.0000
  N   N32       1.0  0.67292  0.94021  0.69191  1.0000
  O   O1        1.0  0.00652  0.17957  0.51823  1.0000
  O   O2        1.0  0.70331  0.32063  0.98168  1.0000
  O   O3        1.0  0.99348  0.82043  0.48177  1.0000
  O   O4        1.0  0.29668  0.67937  0.01832  1.0000
  O   O5        1.0  0.41444  0.88927  0.57087  1.0000
  O   O6        1.0  0.87484  0.61103  0.92911  1.0000
  O   O7        1.0  0.58556  0.11073  0.42913  1.0000
  O   O8        1.0  0.12516  0.38897  0.07089  1.0000
