data_image0
_chemical_formula_structural       Na2H18C8N16O6
_chemical_formula_sum              "Na2 H18 C8 N16 O6"
_cell_length_a       6.30177
_cell_length_b       6.61705
_cell_length_c       12.4966
_cell_angle_alpha    80.3262
_cell_angle_beta     83.8397
_cell_angle_gamma    69.8842

_space_group_name_H-M_alt    "P 1"
_space_group_IT_number       1

loop_
  _space_group_symop_operation_xyz
  'x, y, z'

loop_
  _atom_site_type_symbol
  _atom_site_label
  _atom_site_symmetry_multiplicity
  _atom_site_fract_x
  _atom_site_fract_y
  _atom_site_fract_z
  _atom_site_occupancy
  Na  Na1       1.0  0.27506  0.45006  0.94345  1.0000
  Na  Na2       1.0  0.72495  0.54994  0.05655  1.0000
  H   H1        1.0  0.19549  0.37458  0.17226  1.0000
  H   H2        1.0  0.80452  0.62542  0.82774  1.0000
  H   H3        1.0  0.11395  0.19964  0.13836  1.0000
  H   H4        1.0  0.88605  0.80037  0.86163  1.0000
  H   H5        1.0  0.25519  0.79972  0.08407  1.0000
  H   H6        1.0  0.74481  0.20028  0.91593  1.0000
  H   H7        1.0  0.33332  0.87499  0.96524  1.0000
  H   H8        1.0  0.66668  0.12501  0.03476  1.0000
  H   H9        1.0  0.48430  0.07888  0.83519  1.0000
  H   H10       1.0  0.51570  0.92112  0.16481  1.0000
  H   H11       1.0  0.22902  0.11514  0.82361  1.0000
  H   H12       1.0  0.77098  0.88486  0.17639  1.0000
  H   H13       1.0  0.31732  0.74088  0.51310  1.0000
  H   H14       1.0  0.68267  0.25912  0.48690  1.0000
  H   H15       1.0  0.93207  0.70983  0.59549  1.0000
  H   H16       1.0  0.06793  0.29017  0.40451  1.0000
  H   H17       1.0  0.64002  0.78893  0.39722  1.0000
  H   H18       1.0  0.35997  0.21108  0.60278  1.0000
  C   C1        1.0  0.97024  0.81597  0.37300  1.0000
  C   C2        1.0  0.02975  0.18402  0.62700  1.0000
  C   C3        1.0  0.78606  0.72571  0.55101  1.0000
  C   C4        1.0  0.21392  0.27429  0.44899  1.0000
  C   C5        1.0  0.78583  0.77488  0.44166  1.0000
  C   C6        1.0  0.21416  0.22512  0.55834  1.0000
  C   C7        1.0  0.60153  0.68530  0.61915  1.0000
  C   C8        1.0  0.39846  0.31470  0.38085  1.0000
  N   N1        1.0  0.60509  0.62734  0.72750  1.0000
  N   N2        1.0  0.39491  0.37266  0.27250  1.0000
  N   N3        1.0  0.39894  0.69177  0.58923  1.0000
  N   N4        1.0  0.60105  0.30823  0.41078  1.0000
  N   N5        1.0  0.95940  0.87031  0.26433  1.0000
  N   N6        1.0  0.04060  0.12969  0.73567  1.0000
  N   N7        1.0  0.17176  0.81415  0.40292  1.0000
  N   N8        1.0  0.82823  0.18584  0.59708  1.0000
  N   N9        1.0  0.28257  0.86845  0.31154  1.0000
  N   N10       1.0  0.71743  0.13155  0.68846  1.0000
  N   N11       1.0  0.40451  0.59961  0.76054  1.0000
  N   N12       1.0  0.59549  0.40038  0.23946  1.0000
  N   N13       1.0  0.15421  0.90252  0.22825  1.0000
  N   N14       1.0  0.84580  0.09748  0.77175  1.0000
  N   N15       1.0  0.27865  0.63829  0.67803  1.0000
  N   N16       1.0  0.72135  0.36170  0.32197  1.0000
  O   O1        1.0  0.11121  0.34985  0.11555  1.0000
  O   O2        1.0  0.88880  0.65016  0.88445  1.0000
  O   O3        1.0  0.32204  0.74429  0.01564  1.0000
  O   O4        1.0  0.67796  0.25571  0.98436  1.0000
  O   O5        1.0  0.34136  0.10357  0.87834  1.0000
  O   O6        1.0  0.65865  0.89642  0.12166  1.0000
