data_image0
_chemical_formula_structural       Na4H16C16N32O2
_chemical_formula_sum              "Na4 H16 C16 N32 O2"
_cell_length_a       6.07145
_cell_length_b       7.06668
_cell_length_c       18.6981
_cell_angle_alpha    93.4688
_cell_angle_beta     89.9979
_cell_angle_gamma    115.461

_space_group_name_H-M_alt    "P 1"
_space_group_IT_number       1

loop_
  _space_group_symop_operation_xyz
  'x, y, z'

loop_
  _atom_site_type_symbol
  _atom_site_label
  _atom_site_symmetry_multiplicity
  _atom_site_fract_x
  _atom_site_fract_y
  _atom_site_fract_z
  _atom_site_occupancy
  Na  Na1       1.0  0.07321  0.72450  0.77553  1.0000
  Na  Na2       1.0  0.34843  0.27528  0.72449  1.0000
  Na  Na3       1.0  0.92679  0.27550  0.22447  1.0000
  Na  Na4       1.0  0.65158  0.72472  0.27551  1.0000
  H   H1        1.0  0.39052  0.30557  0.56628  1.0000
  H   H2        1.0  0.08536  0.69434  0.93376  1.0000
  H   H3        1.0  0.60948  0.69443  0.43373  1.0000
  H   H4        1.0  0.91464  0.30567  0.06624  1.0000
  H   H5        1.0  0.67099  0.21390  0.43998  1.0000
  H   H6        1.0  0.45770  0.78601  0.06002  1.0000
  H   H7        1.0  0.32901  0.78610  0.56002  1.0000
  H   H8        1.0  0.54229  0.21399  0.93999  1.0000
  H   H9        1.0  0.04970  0.23980  0.49754  1.0000
  H   H10       1.0  0.81062  0.76025  0.00244  1.0000
  H   H11       1.0  0.95030  0.76020  0.50246  1.0000
  H   H12       1.0  0.18937  0.23975  0.99756  1.0000
  H   H13       1.0  0.53501  0.94722  0.71131  1.0000
  H   H14       1.0  0.58781  0.05277  0.78869  1.0000
  H   H15       1.0  0.46499  0.05278  0.28869  1.0000
  H   H16       1.0  0.41218  0.94723  0.21131  1.0000
  C   C1        1.0  0.74360  0.32590  0.58750  1.0000
  C   C2        1.0  0.41807  0.67401  0.91248  1.0000
  C   C3        1.0  0.25641  0.67411  0.41250  1.0000
  C   C4        1.0  0.58193  0.32599  0.08752  1.0000
  C   C5        1.0  0.31306  0.19178  0.42468  1.0000
  C   C6        1.0  0.12190  0.80819  0.07533  1.0000
  C   C7        1.0  0.68694  0.80821  0.57532  1.0000
  C   C8        1.0  0.87810  0.19182  0.92467  1.0000
  C   C9        1.0  0.52483  0.23267  0.46866  1.0000
  C   C10       1.0  0.29274  0.76722  0.03134  1.0000
  C   C11       1.0  0.47518  0.76734  0.53134  1.0000
  C   C12       1.0  0.70726  0.23278  0.96866  1.0000
  C   C13       1.0  0.54010  0.28580  0.53963  1.0000
  C   C14       1.0  0.25476  0.71409  0.96039  1.0000
  C   C15       1.0  0.45990  0.71420  0.46037  1.0000
  C   C16       1.0  0.74523  0.28591  0.03961  1.0000
  N   N1        1.0  0.10196  0.19541  0.44619  1.0000
  N   N2        1.0  0.90726  0.80463  0.05379  1.0000
  N   N3        1.0  0.89804  0.80459  0.55381  1.0000
  N   N4        1.0  0.09273  0.19537  0.94621  1.0000
  N   N5        1.0  0.95531  0.31246  0.57323  1.0000
  N   N6        1.0  0.64330  0.68754  0.92674  1.0000
  N   N7        1.0  0.04470  0.68754  0.42677  1.0000
  N   N8        1.0  0.35670  0.31245  0.07326  1.0000
  N   N9        1.0  0.74255  0.38928  0.65709  1.0000
  N   N10       1.0  0.35359  0.61063  0.84290  1.0000
  N   N11       1.0  0.25746  0.61073  0.34291  1.0000
  N   N12       1.0  0.64641  0.38937  0.15710  1.0000
  N   N13       1.0  0.06189  0.11017  0.33412  1.0000
  N   N14       1.0  0.95224  0.88975  0.16586  1.0000
  N   N15       1.0  0.93811  0.88983  0.66588  1.0000
  N   N16       1.0  0.04775  0.11025  0.83414  1.0000
  N   N17       1.0  0.28806  0.13769  0.35400  1.0000
  N   N18       1.0  0.15091  0.86224  0.14601  1.0000
  N   N19       1.0  0.71194  0.86231  0.64601  1.0000
  N   N20       1.0  0.84909  0.13776  0.85399  1.0000
  N   N21       1.0  0.94803  0.14413  0.38930  1.0000
  N   N22       1.0  0.80453  0.85586  0.11066  1.0000
  N   N23       1.0  0.05196  0.85587  0.61070  1.0000
  N   N24       1.0  0.19546  0.14414  0.88933  1.0000
  N   N25       1.0  0.95791  0.41739  0.68523  1.0000
  N   N26       1.0  0.54080  0.58254  0.81474  1.0000
  N   N27       1.0  0.04210  0.58261  0.31477  1.0000
  N   N28       1.0  0.45920  0.41746  0.18526  1.0000
  N   N29       1.0  0.08562  0.37057  0.63524  1.0000
  N   N30       1.0  0.71542  0.62942  0.86472  1.0000
  N   N31       1.0  0.91439  0.62943  0.36476  1.0000
  N   N32       1.0  0.28458  0.37058  0.13528  1.0000
  O   O1        1.0  0.45910  0.99993  0.75001  1.0000
  O   O2        1.0  0.54090  0.00007  0.24999  1.0000
