data_image0
_chemical_formula_structural       Na2H10C8N16O2
_chemical_formula_sum              "Na2 H10 C8 N16 O2"
_cell_length_a       3.65578
_cell_length_b       6.19278
_cell_length_c       18.3545
_cell_angle_alpha    89.7375
_cell_angle_beta     89.5952
_cell_angle_gamma    72.5473

_space_group_name_H-M_alt    "P 1"
_space_group_IT_number       1

loop_
  _space_group_symop_operation_xyz
  'x, y, z'

loop_
  _atom_site_type_symbol
  _atom_site_label
  _atom_site_symmetry_multiplicity
  _atom_site_fract_x
  _atom_site_fract_y
  _atom_site_fract_z
  _atom_site_occupancy
  Na  Na1       1.0  0.48263  0.30863  0.30701  1.0000
  Na  Na2       1.0  0.79917  0.69028  0.80665  1.0000
  H   H1        1.0  0.20825  0.95840  0.25542  1.0000
  H   H2        1.0  0.16562  0.04166  0.75452  1.0000
  H   H3        1.0  0.42466  0.87477  0.60294  1.0000
  H   H4        1.0  0.31086  0.12786  0.10380  1.0000
  H   H5        1.0  0.70512  0.14320  0.48203  1.0000
  H   H6        1.0  0.84397  0.85507  0.98152  1.0000
  H   H7        1.0  0.07009  0.95635  0.33714  1.0000
  H   H8        1.0  0.02759  0.04260  0.83632  1.0000
  H   H9        1.0  0.51572  0.49149  0.55145  1.0000
  H   H10       1.0  0.00702  0.50812  0.05154  1.0000
  C   C1        1.0  0.75263  0.79420  0.46637  1.0000
  C   C2        1.0  0.54638  0.20625  0.96615  1.0000
  C   C3        1.0  0.64542  0.99930  0.50878  1.0000
  C   C4        1.0  0.64516  0.00052  0.00872  1.0000
  C   C5        1.0  0.48392  0.01784  0.57582  1.0000
  C   C6        1.0  0.50796  0.98317  0.07633  1.0000
  C   C7        1.0  0.37023  0.22346  0.61769  1.0000
  C   C8        1.0  0.59754  0.77696  0.11820  1.0000
  N   N1        1.0  0.92099  0.77817  0.40002  1.0000
  N   N2        1.0  0.69831  0.22137  0.89969  1.0000
  N   N3        1.0  0.25079  0.57572  0.65308  1.0000
  N   N4        1.0  0.82544  0.42324  0.15332  1.0000
  N   N5        1.0  0.39589  0.43004  0.59893  1.0000
  N   N6        1.0  0.82689  0.56928  0.09923  1.0000
  N   N7        1.0  0.13712  0.46157  0.70401  1.0000
  N   N8        1.0  0.59927  0.53831  0.20437  1.0000
  N   N9        1.0  0.70265  0.59287  0.48472  1.0000
  N   N10       1.0  0.29388  0.40835  0.98418  1.0000
  N   N11       1.0  0.97301  0.56518  0.37822  1.0000
  N   N12       1.0  0.53629  0.43457  0.87748  1.0000
  N   N13       1.0  0.20605  0.24341  0.68417  1.0000
  N   N14       1.0  0.45315  0.75748  0.18471  1.0000
  N   N15       1.0  0.84171  0.45349  0.42901  1.0000
  N   N16       1.0  0.29261  0.54724  0.92812  1.0000
  O   O1        1.0  0.10832  0.05969  0.29762  1.0000
  O   O2        1.0  0.17068  0.93989  0.79688  1.0000
