data_image0
_chemical_formula_structural       Na4H16C8N16O6
_chemical_formula_sum              "Na4 H16 C8 N16 O6"
_cell_length_a       7.7264
_cell_length_b       8.8912
_cell_length_c       8.89124
_cell_angle_alpha    100.954
_cell_angle_beta     111.77
_cell_angle_gamma    111.769

_space_group_name_H-M_alt    "P 1"
_space_group_IT_number       1

loop_
  _space_group_symop_operation_xyz
  'x, y, z'

loop_
  _atom_site_type_symbol
  _atom_site_label
  _atom_site_symmetry_multiplicity
  _atom_site_fract_x
  _atom_site_fract_y
  _atom_site_fract_z
  _atom_site_occupancy
  Na  Na1       1.0  0.60092  0.87716  0.71984  1.0000
  Na  Na2       1.0  0.89908  0.28016  0.12284  1.0000
  Na  Na3       1.0  0.39908  0.12284  0.28016  1.0000
  Na  Na4       1.0  0.10092  0.71984  0.87716  1.0000
  H   H1        1.0  0.63769  0.91009  0.05865  1.0000
  H   H2        1.0  0.86231  0.94135  0.08990  1.0000
  H   H3        1.0  0.36231  0.08990  0.94134  1.0000
  H   H4        1.0  0.13769  0.05865  0.91010  1.0000
  H   H5        1.0  0.16244  0.66665  0.55152  1.0000
  H   H6        1.0  0.33756  0.44848  0.33335  1.0000
  H   H7        1.0  0.83756  0.33335  0.44848  1.0000
  H   H8        1.0  0.66244  0.55152  0.66665  1.0000
  H   H9        1.0  0.18706  0.54799  0.65602  1.0000
  H   H10       1.0  0.31294  0.34398  0.45201  1.0000
  H   H11       1.0  0.81294  0.45201  0.34398  1.0000
  H   H12       1.0  0.68706  0.65602  0.54799  1.0000
  H   H13       1.0  0.51706  0.60209  0.87935  1.0000
  H   H14       1.0  0.98295  0.12066  0.39791  1.0000
  H   H15       1.0  0.48294  0.39790  0.12065  1.0000
  H   H16       1.0  0.01705  0.87935  0.60209  1.0000
  C   C1        1.0  0.50773  0.35281  0.81878  1.0000
  C   C2        1.0  0.99227  0.18123  0.64720  1.0000
  C   C3        1.0  0.49227  0.64719  0.18122  1.0000
  C   C4        1.0  0.00774  0.81878  0.35281  1.0000
  C   C5        1.0  0.50661  0.49587  0.92602  1.0000
  C   C6        1.0  0.99339  0.07398  0.50413  1.0000
  C   C7        1.0  0.49339  0.50412  0.07398  1.0000
  C   C8        1.0  0.00661  0.92603  0.49587  1.0000
  N   N1        1.0  0.51514  0.21249  0.85185  1.0000
  N   N2        1.0  0.98486  0.14815  0.78751  1.0000
  N   N3        1.0  0.48486  0.78751  0.14815  1.0000
  N   N4        1.0  0.01514  0.85186  0.21249  1.0000
  N   N5        1.0  0.50917  0.11561  0.71141  1.0000
  N   N6        1.0  0.99083  0.28859  0.88439  1.0000
  N   N7        1.0  0.49083  0.88439  0.28859  1.0000
  N   N8        1.0  0.00917  0.71141  0.11561  1.0000
  N   N9        1.0  0.49900  0.34270  0.66226  1.0000
  N   N10       1.0  0.00100  0.33774  0.65730  1.0000
  N   N11       1.0  0.50100  0.65730  0.33774  1.0000
  N   N12       1.0  0.99900  0.66226  0.34270  1.0000
  N   N13       1.0  0.50060  0.19336  0.59892  1.0000
  N   N14       1.0  0.99940  0.40108  0.80664  1.0000
  N   N15       1.0  0.49940  0.80664  0.40108  1.0000
  N   N16       1.0  0.00060  0.59892  0.19336  1.0000
  O   O1        1.0  0.75000  0.97135  0.02864  1.0000
  O   O2        1.0  0.25000  0.02865  0.97135  1.0000
  O   O3        1.0  0.25157  0.67218  0.66940  1.0000
  O   O4        1.0  0.24844  0.33060  0.32782  1.0000
  O   O5        1.0  0.74843  0.32782  0.33060  1.0000
  O   O6        1.0  0.75157  0.66940  0.67218  1.0000
