data_image0
_chemical_formula_structural       Ag4H56C24N12O12
_chemical_formula_sum              "Ag4 H56 C24 N12 O12"
_cell_length_a       6.59656
_cell_length_b       6.59535
_cell_length_c       21.834
_cell_angle_alpha    90
_cell_angle_beta     90
_cell_angle_gamma    90

_space_group_name_H-M_alt    "P 1"
_space_group_IT_number       1

loop_
  _space_group_symop_operation_xyz
  'x, y, z'

loop_
  _atom_site_type_symbol
  _atom_site_label
  _atom_site_symmetry_multiplicity
  _atom_site_fract_x
  _atom_site_fract_y
  _atom_site_fract_z
  _atom_site_occupancy
  Ag  Ag1       1.0  0.15938  0.51277  0.23010  1.0000
  Ag  Ag2       1.0  0.84062  0.48722  0.73010  1.0000
  Ag  Ag3       1.0  0.48746  0.15923  0.98011  1.0000
  Ag  Ag4       1.0  0.51253  0.84076  0.48011  1.0000
  H   H1        1.0  0.56389  0.63914  0.16114  1.0000
  H   H2        1.0  0.43611  0.36087  0.66114  1.0000
  H   H3        1.0  0.36065  0.56421  0.91127  1.0000
  H   H4        1.0  0.63935  0.43579  0.41127  1.0000
  H   H5        1.0  0.49764  0.86641  0.20017  1.0000
  H   H6        1.0  0.50236  0.13359  0.70016  1.0000
  H   H7        1.0  0.13328  0.49801  0.95024  1.0000
  H   H8        1.0  0.86671  0.50199  0.45024  1.0000
  H   H9        1.0  0.63160  0.04493  0.11628  1.0000
  H   H10       1.0  0.36840  0.95507  0.61628  1.0000
  H   H11       1.0  0.95508  0.63187  0.86629  1.0000
  H   H12       1.0  0.04492  0.36813  0.36629  1.0000
  H   H13       1.0  0.65355  0.82010  0.07202  1.0000
  H   H14       1.0  0.34645  0.17989  0.57202  1.0000
  H   H15       1.0  0.17994  0.65371  0.82207  1.0000
  H   H16       1.0  0.82005  0.34628  0.32208  1.0000
  H   H17       1.0  0.15641  0.99061  0.19911  1.0000
  H   H18       1.0  0.84359  0.00939  0.69910  1.0000
  H   H19       1.0  0.00924  0.15670  0.94927  1.0000
  H   H20       1.0  0.99076  0.84330  0.44927  1.0000
  H   H21       1.0  0.98373  0.88840  0.14512  1.0000
  H   H22       1.0  0.01627  0.11160  0.64512  1.0000
  H   H23       1.0  0.11148  0.98395  0.89531  1.0000
  H   H24       1.0  0.88853  0.01605  0.39531  1.0000
  H   H25       1.0  0.10305  0.13422  0.07547  1.0000
  H   H26       1.0  0.89695  0.86578  0.57547  1.0000
  H   H27       1.0  0.86586  0.10312  0.82565  1.0000
  H   H28       1.0  0.13414  0.89687  0.32565  1.0000
  H   H29       1.0  0.30352  0.20242  0.12606  1.0000
  H   H30       1.0  0.69649  0.79758  0.62606  1.0000
  H   H31       1.0  0.79761  0.30381  0.87615  1.0000
  H   H32       1.0  0.20239  0.69619  0.37615  1.0000
  H   H33       1.0  0.06821  0.58657  0.08803  1.0000
  H   H34       1.0  0.93180  0.41343  0.58803  1.0000
  H   H35       1.0  0.41340  0.06832  0.83826  1.0000
  H   H36       1.0  0.58660  0.93168  0.33826  1.0000
  H   H37       1.0  0.32396  0.50065  0.08823  1.0000
  H   H38       1.0  0.67605  0.49935  0.58823  1.0000
  H   H39       1.0  0.49927  0.32413  0.83845  1.0000
  H   H40       1.0  0.50073  0.67587  0.33845  1.0000
  H   H41       1.0  0.38063  0.71814  0.00522  1.0000
  H   H42       1.0  0.61937  0.28186  0.50522  1.0000
  H   H43       1.0  0.28205  0.38073  0.75537  1.0000
  H   H44       1.0  0.71794  0.61926  0.25537  1.0000
  H   H45       1.0  0.13905  0.83405  0.01426  1.0000
  H   H46       1.0  0.86095  0.16595  0.51425  1.0000
  H   H47       1.0  0.16620  0.13904  0.76438  1.0000
  H   H48       1.0  0.83380  0.86095  0.26438  1.0000
  H   H49       1.0  0.85626  0.33516  0.13141  1.0000
  H   H50       1.0  0.14374  0.66484  0.63141  1.0000
  H   H51       1.0  0.66458  0.85548  0.88142  1.0000
  H   H52       1.0  0.33541  0.14452  0.38142  1.0000
  H   H53       1.0  0.74501  0.31571  0.19453  1.0000
  H   H54       1.0  0.25499  0.68430  0.69454  1.0000
  H   H55       1.0  0.68432  0.74472  0.94461  1.0000
  H   H56       1.0  0.31568  0.25527  0.44461  1.0000
  C   C1        1.0  0.47922  0.78174  0.15723  1.0000
  C   C2        1.0  0.52079  0.21827  0.65723  1.0000
  C   C3        1.0  0.21808  0.47952  0.90733  1.0000
  C   C4        1.0  0.78191  0.52049  0.40733  1.0000
  C   C5        1.0  0.55135  0.90786  0.10160  1.0000
  C   C6        1.0  0.44865  0.09214  0.60160  1.0000
  C   C7        1.0  0.09211  0.55154  0.85163  1.0000
  C   C8        1.0  0.90789  0.44845  0.35164  1.0000
  C   C9        1.0  0.14389  0.92491  0.15311  1.0000
  C   C10       1.0  0.85611  0.07509  0.65311  1.0000
  C   C11       1.0  0.07497  0.14413  0.90329  1.0000
  C   C12       1.0  0.92503  0.85587  0.40329  1.0000
  C   C13       1.0  0.22593  0.07444  0.10415  1.0000
  C   C14       1.0  0.77408  0.92557  0.60415  1.0000
  C   C15       1.0  0.92560  0.22614  0.85428  1.0000
  C   C16       1.0  0.07440  0.77385  0.35428  1.0000
  C   C17       1.0  0.22669  0.63545  0.09070  1.0000
  C   C18       1.0  0.77332  0.36455  0.59070  1.0000
  C   C19       1.0  0.36450  0.22684  0.84090  1.0000
  C   C20       1.0  0.63550  0.77316  0.34090  1.0000
  C   C21       1.0  0.27683  0.78603  0.03855  1.0000
  C   C22       1.0  0.72317  0.21397  0.53854  1.0000
  C   C23       1.0  0.21406  0.27689  0.78868  1.0000
  C   C24       1.0  0.78594  0.72310  0.28868  1.0000
  N   N1        1.0  0.26073  0.73230  0.15115  1.0000
  N   N2        1.0  0.73927  0.26771  0.65115  1.0000
  N   N3        1.0  0.26759  0.26096  0.90133  1.0000
  N   N4        1.0  0.73241  0.73904  0.40133  1.0000
  N   N5        1.0  0.37467  0.97054  0.06390  1.0000
  N   N6        1.0  0.62533  0.02946  0.56390  1.0000
  N   N7        1.0  0.02952  0.37472  0.81399  1.0000
  N   N8        1.0  0.97048  0.62527  0.31399  1.0000
  N   N9        1.0  0.48927  0.21677  0.27262  1.0000
  N   N10       1.0  0.51073  0.78323  0.77262  1.0000
  N   N11       1.0  0.78344  0.48883  0.02266  1.0000
  N   N12       1.0  0.21656  0.51117  0.52267  1.0000
  O   O1        1.0  0.49511  0.32091  0.22347  1.0000
  O   O2        1.0  0.50489  0.67909  0.72347  1.0000
  O   O3        1.0  0.67880  0.49480  0.97362  1.0000
  O   O4        1.0  0.32121  0.50519  0.47362  1.0000
  O   O5        1.0  0.32525  0.23249  0.30231  1.0000
  O   O6        1.0  0.67475  0.76752  0.80231  1.0000
  O   O7        1.0  0.76845  0.32451  0.05225  1.0000
  O   O8        1.0  0.23155  0.67550  0.55225  1.0000
  O   O9        1.0  0.88200  0.32110  0.17582  1.0000
  O   O10       1.0  0.11800  0.67890  0.67583  1.0000
  O   O11       1.0  0.67925  0.88160  0.92580  1.0000
  O   O12       1.0  0.32075  0.11840  0.42580  1.0000
