data_image0
_chemical_formula_structural       K2H16Au2C20N4Cl8
_chemical_formula_sum              "K2 H16 Au2 C20 N4 Cl8"
_cell_length_a       7.94517
_cell_length_b       10.5774
_cell_length_c       10.5774
_cell_angle_alpha    74.0824
_cell_angle_beta     67.9203
_cell_angle_gamma    67.9203

_space_group_name_H-M_alt    "P 1"
_space_group_IT_number       1

loop_
  _space_group_symop_operation_xyz
  'x, y, z'

loop_
  _atom_site_type_symbol
  _atom_site_label
  _atom_site_symmetry_multiplicity
  _atom_site_fract_x
  _atom_site_fract_y
  _atom_site_fract_z
  _atom_site_occupancy
  K   K1        1.0  0.25000  0.75000  0.75000  1.0000
  K   K2        1.0  0.75000  0.25000  0.25000  1.0000
  H   H1        1.0  0.26611  0.04322  0.19340  1.0000
  H   H2        1.0  0.50265  0.80664  0.95681  1.0000
  H   H3        1.0  0.76611  0.69340  0.54322  1.0000
  H   H4        1.0  0.99735  0.54319  0.69336  1.0000
  H   H5        1.0  0.73389  0.95678  0.80660  1.0000
  H   H6        1.0  0.49735  0.19336  0.04318  1.0000
  H   H7        1.0  0.23389  0.30660  0.45678  1.0000
  H   H8        1.0  0.00265  0.45681  0.30664  1.0000
  H   H9        1.0  0.25379  0.85681  0.39522  1.0000
  H   H10       1.0  0.50565  0.60479  0.14326  1.0000
  H   H11       1.0  0.75379  0.89522  0.35681  1.0000
  H   H12       1.0  0.99435  0.35674  0.89521  1.0000
  H   H13       1.0  0.74621  0.14319  0.60478  1.0000
  H   H14       1.0  0.49435  0.39521  0.85674  1.0000
  H   H15       1.0  0.24621  0.10478  0.64319  1.0000
  H   H16       1.0  0.00565  0.64326  0.10479  1.0000
  Au  Au1       1.0  1.00000  0.00000  1.00000  1.0000
  Au  Au2       1.0  0.50000  0.50000  0.50000  1.0000
  C   C1        1.0  0.25000  0.19192  0.30808  1.0000
  C   C2        1.0  0.75000  0.69187  0.80813  1.0000
  C   C3        1.0  0.75000  0.80808  0.69192  1.0000
  C   C4        1.0  0.25000  0.30812  0.19187  1.0000
  C   C5        1.0  0.25873  0.06212  0.29192  1.0000
  C   C6        1.0  0.61266  0.70808  0.93792  1.0000
  C   C7        1.0  0.75873  0.79192  0.56213  1.0000
  C   C8        1.0  0.88734  0.56208  0.79192  1.0000
  C   C9        1.0  0.74127  0.93787  0.70808  1.0000
  C   C10       1.0  0.38734  0.29192  0.06208  1.0000
  C   C11       1.0  0.24127  0.20808  0.43787  1.0000
  C   C12       1.0  0.11267  0.43792  0.20808  1.0000
  C   C13       1.0  0.25407  0.95682  0.40506  1.0000
  C   C14       1.0  0.61580  0.59493  0.04319  1.0000
  C   C15       1.0  0.75407  0.90506  0.45682  1.0000
  C   C16       1.0  0.88420  0.45681  0.90507  1.0000
  C   C17       1.0  0.74593  0.04318  0.59494  1.0000
  C   C18       1.0  0.38420  0.40507  0.95681  1.0000
  C   C19       1.0  0.24593  0.09494  0.54318  1.0000
  C   C20       1.0  0.11580  0.54319  0.09493  1.0000
  N   N1        1.0  0.25000  0.97086  0.52914  1.0000
  N   N2        1.0  0.75000  0.47085  0.02915  1.0000
  N   N3        1.0  0.75000  0.02914  0.47086  1.0000
  N   N4        1.0  0.25000  0.52915  0.97085  1.0000
  Cl  Cl1       1.0  0.13836  0.84103  0.15903  1.0000
  Cl  Cl2       1.0  0.63836  0.65904  0.34103  1.0000
  Cl  Cl3       1.0  0.36164  0.34097  0.65897  1.0000
  Cl  Cl4       1.0  0.86164  0.15897  0.84097  1.0000
  Cl  Cl5       1.0  0.74451  0.91446  0.08557  1.0000
  Cl  Cl6       1.0  0.24451  0.58557  0.41446  1.0000
  Cl  Cl7       1.0  0.75549  0.41443  0.58554  1.0000
  Cl  Cl8       1.0  0.25549  0.08554  0.91443  1.0000
