data_image0
_chemical_formula_structural       Cu2H30C38S2N6O18
_chemical_formula_sum              "Cu2 H30 C38 S2 N6 O18"
_cell_length_a       9.10986
_cell_length_b       9.90645
_cell_length_c       13.0879
_cell_angle_alpha    96.7283
_cell_angle_beta     103.166
_cell_angle_gamma    116.514

_space_group_name_H-M_alt    "P 1"
_space_group_IT_number       1

loop_
  _space_group_symop_operation_xyz
  'x, y, z'

loop_
  _atom_site_type_symbol
  _atom_site_label
  _atom_site_symmetry_multiplicity
  _atom_site_fract_x
  _atom_site_fract_y
  _atom_site_fract_z
  _atom_site_occupancy
  Cu  Cu1       1.0  0.76396  0.34589  0.00942  1.0000
  Cu  Cu2       1.0  0.23604  0.65411  0.99058  1.0000
  H   H1        1.0  0.53036  0.24705  0.13726  1.0000
  H   H2        1.0  0.46964  0.75295  0.86274  1.0000
  H   H3        1.0  0.49214  0.35780  0.07013  1.0000
  H   H4        1.0  0.50787  0.64220  0.92988  1.0000
  H   H5        1.0  0.67883  0.36229  0.31456  1.0000
  H   H6        1.0  0.32116  0.63771  0.68544  1.0000
  H   H7        1.0  0.28650  0.95416  0.49562  1.0000
  H   H8        1.0  0.71349  0.04584  0.50438  1.0000
  H   H9        1.0  0.65989  0.47918  0.46998  1.0000
  H   H10       1.0  0.34010  0.52082  0.53002  1.0000
  H   H11       1.0  0.90816  0.73608  0.58804  1.0000
  H   H12       1.0  0.09184  0.26392  0.41196  1.0000
  H   H13       1.0  0.17332  0.73166  0.35249  1.0000
  H   H14       1.0  0.82667  0.26833  0.64751  1.0000
  H   H15       1.0  0.91464  0.47153  0.24610  1.0000
  H   H16       1.0  0.08535  0.52846  0.75390  1.0000
  H   H17       1.0  0.36370  0.20230  0.55414  1.0000
  H   H18       1.0  0.63630  0.79770  0.44586  1.0000
  H   H19       1.0  0.60950  0.46876  0.64795  1.0000
  H   H20       1.0  0.39050  0.53123  0.35205  1.0000
  H   H21       1.0  0.78673  0.51886  0.83905  1.0000
  H   H22       1.0  0.21327  0.48114  0.16095  1.0000
  H   H23       1.0  0.47443  0.06692  0.85315  1.0000
  H   H24       1.0  0.52557  0.93308  0.14685  1.0000
  H   H25       1.0  0.71943  0.86889  0.00632  1.0000
  H   H26       1.0  0.28057  0.13112  0.99369  1.0000
  H   H27       1.0  0.13241  0.81379  0.19572  1.0000
  H   H28       1.0  0.86759  0.18621  0.80428  1.0000
  H   H29       1.0  0.16480  0.26609  0.23631  1.0000
  H   H30       1.0  0.83521  0.73391  0.76369  1.0000
  C   C1        1.0  0.77907  0.54125  0.45066  1.0000
  C   C2        1.0  0.22093  0.45875  0.54934  1.0000
  C   C3        1.0  0.91622  0.68205  0.51405  1.0000
  C   C4        1.0  0.08378  0.31795  0.48595  1.0000
  C   C5        1.0  0.06312  0.75414  0.47976  1.0000
  C   C6        1.0  0.93688  0.24586  0.52024  1.0000
  C   C7        1.0  0.06206  0.67890  0.38089  1.0000
  C   C8        1.0  0.93793  0.32110  0.61911  1.0000
  C   C9        1.0  0.92148  0.53704  0.32151  1.0000
  C   C10       1.0  0.07851  0.46295  0.67849  1.0000
  C   C11       1.0  0.25663  0.94948  0.65016  1.0000
  C   C12       1.0  0.74337  0.05052  0.34984  1.0000
  C   C13       1.0  0.40051  0.11253  0.69668  1.0000
  C   C14       1.0  0.59949  0.88747  0.30332  1.0000
  C   C15       1.0  0.43850  0.22679  0.63844  1.0000
  C   C16       1.0  0.56150  0.77321  0.36156  1.0000
  C   C17       1.0  0.57680  0.37575  0.68995  1.0000
  C   C18       1.0  0.42320  0.62425  0.31005  1.0000
  C   C19       1.0  0.67329  0.40636  0.79710  1.0000
  C   C20       1.0  0.32671  0.59363  0.20290  1.0000
  C   C21       1.0  0.50033  0.15293  0.80529  1.0000
  C   C22       1.0  0.49967  0.84707  0.19470  1.0000
  C   C23       1.0  0.86373  0.17832  0.08277  1.0000
  C   C24       1.0  0.13628  0.82169  0.91723  1.0000
  C   C25       1.0  0.93526  0.07726  0.11670  1.0000
  C   C26       1.0  0.06474  0.92274  0.88330  1.0000
  C   C27       1.0  0.84474  0.91808  0.06768  1.0000
  C   C28       1.0  0.15526  0.08192  0.93233  1.0000
  C   C29       1.0  0.91448  0.82251  0.09625  1.0000
  C   C30       1.0  0.08552  0.17749  0.90375  1.0000
  C   C31       1.0  0.07655  0.88768  0.17530  1.0000
  C   C32       1.0  0.92345  0.11232  0.82470  1.0000
  C   C33       1.0  0.16458  0.04700  0.22598  1.0000
  C   C34       1.0  0.83543  0.95300  0.77402  1.0000
  C   C35       1.0  0.09565  0.14230  0.19676  1.0000
  C   C36       1.0  0.90436  0.85770  0.80324  1.0000
  C   C37       1.0  0.81285  0.65178  0.03914  1.0000
  C   C38       1.0  0.18715  0.34822  0.96086  1.0000
  S   S1        1.0  0.37013  0.13571  0.32797  1.0000
  S   S2        1.0  0.62987  0.86429  0.67203  1.0000
  N   N1        1.0  0.78448  0.47139  0.35765  1.0000
  N   N2        1.0  0.21551  0.52861  0.64235  1.0000
  N   N3        1.0  0.20473  0.89616  0.53793  1.0000
  N   N4        1.0  0.79527  0.10384  0.46206  1.0000
  N   N5        1.0  0.63392  0.29667  0.85384  1.0000
  N   N6        1.0  0.36608  0.70332  0.14615  1.0000
  O   O1        1.0  0.18868  0.86692  0.70735  1.0000
  O   O2        1.0  0.81132  0.13308  0.29265  1.0000
  O   O3        1.0  0.37128  0.01742  0.38602  1.0000
  O   O4        1.0  0.62872  0.98258  0.61399  1.0000
  O   O5        1.0  0.49869  0.17813  0.26882  1.0000
  O   O6        1.0  0.50131  0.82187  0.73118  1.0000
  O   O7        1.0  0.38558  0.27323  0.39621  1.0000
  O   O8        1.0  0.61442  0.72677  0.60379  1.0000
  O   O9        1.0  0.72418  0.12379  0.00314  1.0000
  O   O10       1.0  0.27583  0.87621  0.99686  1.0000
  O   O11       1.0  0.94360  0.32439  0.12878  1.0000
  O   O12       1.0  0.05641  0.67562  0.87122  1.0000
  O   O13       1.0  0.89204  0.57240  0.05935  1.0000
  O   O14       1.0  0.10796  0.42760  0.94065  1.0000
  O   O15       1.0  0.58249  0.33000  0.10175  1.0000
  O   O16       1.0  0.41751  0.67000  0.89825  1.0000
  O   O17       1.0  0.66273  0.59586  0.97554  1.0000
  O   O18       1.0  0.33727  0.40414  0.02446  1.0000
