data_image0
_chemical_formula_structural       Cd3H36C38S2N6O22
_chemical_formula_sum              "Cd3 H36 C38 S2 N6 O22"
_cell_length_a       10.2094
_cell_length_b       9.87554
_cell_length_c       14.241
_cell_angle_alpha    85.0483
_cell_angle_beta     72.5666
_cell_angle_gamma    59.5483

_space_group_name_H-M_alt    "P 1"
_space_group_IT_number       1

loop_
  _space_group_symop_operation_xyz
  'x, y, z'

loop_
  _atom_site_type_symbol
  _atom_site_label
  _atom_site_symmetry_multiplicity
  _atom_site_fract_x
  _atom_site_fract_y
  _atom_site_fract_z
  _atom_site_occupancy
  Cd  Cd1       1.0  0.16771  0.72341  0.04301  1.0000
  Cd  Cd2       1.0  0.83229  0.27659  0.95699  1.0000
  Cd  Cd3       1.0  0.50000  1.00000  0.50000  1.0000
  H   H1        1.0  0.43910  0.41672  0.93247  1.0000
  H   H2        1.0  0.56090  0.58328  0.06753  1.0000
  H   H3        1.0  0.28528  0.47837  0.89704  1.0000
  H   H4        1.0  0.71472  0.52162  0.10296  1.0000
  H   H5        1.0  0.84150  0.79469  0.40282  1.0000
  H   H6        1.0  0.15850  0.20531  0.59719  1.0000
  H   H7        1.0  0.76392  0.68927  0.41450  1.0000
  H   H8        1.0  0.23608  0.31073  0.58551  1.0000
  H   H9        1.0  0.86921  0.98475  0.12365  1.0000
  H   H10       1.0  0.13079  0.01524  0.87635  1.0000
  H   H11       1.0  0.98207  0.04709  0.11688  1.0000
  H   H12       1.0  0.01793  0.95291  0.88312  1.0000
  H   H13       1.0  0.30811  0.69447  0.37890  1.0000
  H   H14       1.0  0.69189  0.30553  0.62111  1.0000
  H   H15       1.0  0.05122  0.35839  0.31466  1.0000
  H   H16       1.0  0.94878  0.64161  0.68534  1.0000
  H   H17       1.0  0.30619  0.70680  0.79600  1.0000
  H   H18       1.0  0.69380  0.29320  0.20400  1.0000
  H   H19       1.0  0.89833  0.89620  0.79937  1.0000
  H   H20       1.0  0.10167  0.10380  0.20063  1.0000
  H   H21       1.0  0.23481  0.56934  0.69573  1.0000
  H   H22       1.0  0.76518  0.43065  0.30427  1.0000
  H   H23       1.0  0.41600  0.75869  0.43862  1.0000
  H   H24       1.0  0.58400  0.24130  0.56138  1.0000
  H   H25       1.0  0.15468  0.40991  0.43579  1.0000
  H   H26       1.0  0.84533  0.59009  0.56421  1.0000
  H   H27       1.0  0.05723  0.49283  0.15483  1.0000
  H   H28       1.0  0.94278  0.50717  0.84517  1.0000
  H   H29       1.0  0.41646  0.87604  0.70935  1.0000
  H   H30       1.0  0.58353  0.12396  0.29066  1.0000
  H   H31       1.0  0.28154  0.70130  0.22870  1.0000
  H   H32       1.0  0.71847  0.29870  0.77130  1.0000
  H   H33       1.0  0.64898  0.74501  0.04344  1.0000
  H   H34       1.0  0.35102  0.25499  0.95656  1.0000
  H   H35       1.0  0.44270  0.96493  0.81014  1.0000
  H   H36       1.0  0.55730  0.03507  0.18985  1.0000
  C   C1        1.0  0.10145  0.43505  0.29759  1.0000
  C   C2        1.0  0.89856  0.56495  0.70240  1.0000
  C   C3        1.0  0.32493  0.71785  0.71709  1.0000
  C   C4        1.0  0.67507  0.28215  0.28291  1.0000
  C   C5        1.0  0.79472  0.88534  0.83750  1.0000
  C   C6        1.0  0.20528  0.11466  0.16250  1.0000
  C   C7        1.0  0.28636  0.64157  0.66180  1.0000
  C   C8        1.0  0.71363  0.35843  0.33820  1.0000
  C   C9        1.0  0.53342  0.84572  0.92967  1.0000
  C   C10       1.0  0.46658  0.15428  0.07033  1.0000
  C   C11       1.0  0.38392  0.74764  0.51785  1.0000
  C   C12       1.0  0.61608  0.25236  0.48215  1.0000
  C   C13       1.0  0.91438  0.76155  0.97519  1.0000
  C   C14       1.0  0.08562  0.23845  0.02481  1.0000
  C   C15       1.0  0.15897  0.46366  0.36617  1.0000
  C   C16       1.0  0.84103  0.53635  0.63382  1.0000
  C   C17       1.0  0.31434  0.65748  0.56001  1.0000
  C   C18       1.0  0.68566  0.34252  0.43999  1.0000
  C   C19       1.0  0.10690  0.50580  0.20895  1.0000
  C   C20       1.0  0.89311  0.49420  0.79105  1.0000
  C   C21       1.0  0.22085  0.56525  0.34386  1.0000
  C   C22       1.0  0.77916  0.43475  0.65614  1.0000
  C   C23       1.0  0.39814  0.81692  0.97370  1.0000
  C   C24       1.0  0.60186  0.18308  0.02630  1.0000
  C   C25       1.0  0.67219  0.93620  0.79519  1.0000
  C   C26       1.0  0.32781  0.06380  0.20481  1.0000
  C   C27       1.0  0.38750  0.81081  0.66954  1.0000
  C   C28       1.0  0.61249  0.18919  0.33046  1.0000
  C   C29       1.0  0.22930  0.62632  0.25055  1.0000
  C   C30       1.0  0.77071  0.37368  0.74944  1.0000
  C   C31       1.0  0.65479  0.79675  0.97293  1.0000
  C   C32       1.0  0.34521  0.20325  0.02706  1.0000
  C   C33       1.0  0.54047  0.92019  0.84161  1.0000
  C   C34       1.0  0.45953  0.07982  0.15839  1.0000
  C   C35       1.0  0.78497  0.81669  0.92763  1.0000
  C   C36       1.0  0.21503  0.18331  0.07237  1.0000
  C   C37       1.0  0.26727  0.57789  0.50286  1.0000
  C   C38       1.0  0.73273  0.42211  0.49714  1.0000
  S   S1        1.0  0.69080  0.01453  0.67758  1.0000
  S   S2        1.0  0.30920  0.98547  0.32242  1.0000
  N   N1        1.0  0.27295  0.61401  0.40774  1.0000
  N   N2        1.0  0.72705  0.38600  0.59226  1.0000
  N   N3        1.0  0.17320  0.59706  0.18582  1.0000
  N   N4        1.0  0.82681  0.40294  0.81418  1.0000
  N   N5        1.0  0.41728  0.82485  0.57163  1.0000
  N   N6        1.0  0.58272  0.17515  0.42837  1.0000
  O   O1        1.0  0.34605  0.51371  0.91819  1.0000
  O   O2        1.0  0.65395  0.48629  0.08181  1.0000
  O   O3        1.0  0.74744  0.79554  0.39917  1.0000
  O   O4        1.0  0.25256  0.20445  0.60083  1.0000
  O   O5        1.0  0.59529  0.97910  0.63399  1.0000
  O   O6        1.0  0.40470  0.02091  0.36601  1.0000
  O   O7        1.0  0.96678  0.95602  0.14015  1.0000
  O   O8        1.0  0.03321  0.04398  0.85986  1.0000
  O   O9        1.0  0.28147  0.87911  0.93863  1.0000
  O   O10       1.0  0.71853  0.12089  0.06137  1.0000
  O   O11       1.0  0.90842  0.69566  0.05452  1.0000
  O   O12       1.0  0.09158  0.30434  0.94548  1.0000
  O   O13       1.0  0.85961  0.93463  0.62316  1.0000
  O   O14       1.0  0.14039  0.06537  0.37683  1.0000
  O   O15       1.0  0.61796  0.18610  0.69887  1.0000
  O   O16       1.0  0.38204  0.81390  0.30113  1.0000
  O   O17       1.0  0.40439  0.72595  0.04451  1.0000
  O   O18       1.0  0.59560  0.27406  0.95549  1.0000
  O   O19       1.0  0.22197  0.48579  0.54395  1.0000
  O   O20       1.0  0.77803  0.51420  0.45605  1.0000
  O   O21       1.0  0.03000  0.78638  0.92952  1.0000
  O   O22       1.0  0.97000  0.21362  0.07048  1.0000
