data_image0
_chemical_formula_structural       Cu2H44C40N8O18
_chemical_formula_sum              "Cu2 H44 C40 N8 O18"
_cell_length_a       6.09528
_cell_length_b       6.76915
_cell_length_c       25.024
_cell_angle_alpha    90
_cell_angle_beta     90
_cell_angle_gamma    90

_space_group_name_H-M_alt    "P 1"
_space_group_IT_number       1

loop_
  _space_group_symop_operation_xyz
  'x, y, z'

loop_
  _atom_site_type_symbol
  _atom_site_label
  _atom_site_symmetry_multiplicity
  _atom_site_fract_x
  _atom_site_fract_y
  _atom_site_fract_z
  _atom_site_occupancy
  Cu  Cu1       1.0  0.21692  0.25001  0.75000  1.0000
  Cu  Cu2       1.0  0.78311  0.75000  0.25000  1.0000
  H   H1        1.0  0.50581  0.92521  0.70267  1.0000
  H   H2        1.0  0.49421  0.42521  0.20267  1.0000
  H   H3        1.0  0.50581  0.92521  0.79733  1.0000
  H   H4        1.0  0.50581  0.57480  0.70267  1.0000
  H   H5        1.0  0.49421  0.07479  0.29733  1.0000
  H   H6        1.0  0.50581  0.57481  0.79733  1.0000
  H   H7        1.0  0.49421  0.07479  0.20267  1.0000
  H   H8        1.0  0.49421  0.42520  0.29733  1.0000
  H   H9        1.0  0.25674  0.92095  0.66655  1.0000
  H   H10       1.0  0.74331  0.42093  0.16655  1.0000
  H   H11       1.0  0.25673  0.92095  0.83345  1.0000
  H   H12       1.0  0.25673  0.57907  0.66655  1.0000
  H   H13       1.0  0.74330  0.07906  0.33345  1.0000
  H   H14       1.0  0.25673  0.57907  0.83345  1.0000
  H   H15       1.0  0.74330  0.07905  0.16655  1.0000
  H   H16       1.0  0.74329  0.42094  0.33345  1.0000
  H   H17       1.0  0.41543  0.25001  0.59696  1.0000
  H   H18       1.0  0.58453  0.75000  0.09695  1.0000
  H   H19       1.0  0.41546  0.25001  0.90305  1.0000
  H   H20       1.0  0.58452  0.74999  0.40304  1.0000
  H   H21       1.0  0.73258  0.24999  0.55759  1.0000
  H   H22       1.0  0.26740  0.75000  0.05759  1.0000
  H   H23       1.0  0.73260  0.24999  0.94241  1.0000
  H   H24       1.0  0.26739  0.75000  0.44241  1.0000
  H   H25       1.0  0.91205  0.92267  0.71437  1.0000
  H   H26       1.0  0.08799  0.42265  0.21437  1.0000
  H   H27       1.0  0.91205  0.92267  0.78564  1.0000
  H   H28       1.0  0.91204  0.57735  0.71437  1.0000
  H   H29       1.0  0.08798  0.07734  0.28564  1.0000
  H   H30       1.0  0.91205  0.57735  0.78564  1.0000
  H   H31       1.0  0.08799  0.07734  0.21437  1.0000
  H   H32       1.0  0.08798  0.42265  0.28564  1.0000
  H   H33       1.0  0.82482  0.24998  0.45836  1.0000
  H   H34       1.0  0.17516  0.75000  0.95835  1.0000
  H   H35       1.0  0.82484  0.24998  0.04164  1.0000
  H   H36       1.0  0.17515  0.75002  0.54165  1.0000
  H   H37       1.0  0.50849  0.24999  0.49819  1.0000
  H   H38       1.0  0.49147  0.75000  0.99819  1.0000
  H   H39       1.0  0.50852  0.25001  0.00181  1.0000
  H   H40       1.0  0.49146  0.74999  0.50181  1.0000
  H   H41       1.0  0.68507  0.25000  0.71759  1.0000
  H   H42       1.0  0.31493  0.75000  0.21759  1.0000
  H   H43       1.0  0.68508  0.24999  0.78240  1.0000
  H   H44       1.0  0.31493  0.74999  0.28241  1.0000
  C   C1        1.0  0.33948  0.86435  0.70206  1.0000
  C   C2        1.0  0.66054  0.36434  0.20206  1.0000
  C   C3        1.0  0.33948  0.86435  0.79794  1.0000
  C   C4        1.0  0.33948  0.63567  0.70206  1.0000
  C   C5        1.0  0.66054  0.13565  0.29794  1.0000
  C   C6        1.0  0.33949  0.63567  0.79794  1.0000
  C   C7        1.0  0.66053  0.13565  0.20206  1.0000
  C   C8        1.0  0.66054  0.36434  0.29794  1.0000
  C   C9        1.0  0.06706  0.25000  0.58228  1.0000
  C   C10       1.0  0.93291  0.75001  0.08228  1.0000
  C   C11       1.0  0.06709  0.25000  0.91772  1.0000
  C   C12       1.0  0.93290  0.74999  0.41772  1.0000
  C   C13       1.0  0.28784  0.25000  0.56633  1.0000
  C   C14       1.0  0.71213  0.75000  0.06634  1.0000
  C   C15       1.0  0.28787  0.25001  0.93366  1.0000
  C   C16       1.0  0.71211  0.75000  0.43366  1.0000
  C   C17       1.0  0.00712  0.25000  0.64108  1.0000
  C   C18       1.0  0.99285  0.75000  0.14109  1.0000
  C   C19       1.0  0.00714  0.25000  0.85891  1.0000
  C   C20       1.0  0.99286  0.75000  0.35892  1.0000
  C   C21       1.0  0.90135  0.24999  0.54350  1.0000
  C   C22       1.0  0.09864  0.75000  0.04350  1.0000
  C   C23       1.0  0.90137  0.25000  0.95650  1.0000
  C   C24       1.0  0.09862  0.75000  0.45650  1.0000
  C   C25       1.0  0.99457  0.86472  0.75000  1.0000
  C   C26       1.0  0.00547  0.36470  0.25000  1.0000
  C   C27       1.0  0.99457  0.63531  0.75000  1.0000
  C   C28       1.0  0.00547  0.13530  0.25000  1.0000
  C   C29       1.0  0.95104  0.24999  0.48920  1.0000
  C   C30       1.0  0.04893  0.75000  0.98920  1.0000
  C   C31       1.0  0.95107  0.25000  0.01080  1.0000
  C   C32       1.0  0.04891  0.75001  0.51080  1.0000
  C   C33       1.0  0.17178  0.25000  0.47450  1.0000
  C   C34       1.0  0.82821  0.75000  0.97450  1.0000
  C   C35       1.0  0.17179  0.25000  0.02550  1.0000
  C   C36       1.0  0.82819  0.75000  0.52550  1.0000
  C   C37       1.0  0.34009  0.24999  0.51227  1.0000
  C   C38       1.0  0.65986  0.75000  0.01226  1.0000
  C   C39       1.0  0.34013  0.25001  0.98774  1.0000
  C   C40       1.0  0.65985  0.75000  0.48774  1.0000
  N   N1        1.0  0.22312  0.94004  0.75000  1.0000
  N   N2        1.0  0.77690  0.44002  0.25000  1.0000
  N   N3        1.0  0.22312  0.55998  0.75000  1.0000
  N   N4        1.0  0.77690  0.05997  0.25000  1.0000
  N   N5        1.0  0.23182  0.24999  0.41768  1.0000
  N   N6        1.0  0.76817  0.75000  0.91768  1.0000
  N   N7        1.0  0.23183  0.25001  0.08232  1.0000
  N   N8        1.0  0.76816  0.75000  0.58232  1.0000
  O   O1        1.0  0.17538  0.25001  0.67196  1.0000
  O   O2        1.0  0.82460  0.75000  0.17197  1.0000
  O   O3        1.0  0.17540  0.25001  0.82803  1.0000
  O   O4        1.0  0.82460  0.75000  0.32803  1.0000
  O   O5        1.0  0.59105  0.25001  0.75000  1.0000
  O   O6        1.0  0.40896  0.75000  0.25000  1.0000
  O   O7        1.0  0.80819  0.25000  0.65422  1.0000
  O   O8        1.0  0.19181  0.75000  0.15422  1.0000
  O   O9        1.0  0.80820  0.24997  0.84579  1.0000
  O   O10       1.0  0.19180  0.74999  0.34579  1.0000
  O   O11       1.0  0.43015  0.25000  0.40611  1.0000
  O   O12       1.0  0.56982  0.75000  0.90611  1.0000
  O   O13       1.0  0.43017  0.25000  0.09390  1.0000
  O   O14       1.0  0.56981  0.75000  0.59389  1.0000
  O   O15       1.0  0.08160  0.24997  0.38411  1.0000
  O   O16       1.0  0.91838  0.75000  0.88411  1.0000
  O   O17       1.0  0.08161  0.25001  0.11589  1.0000
  O   O18       1.0  0.91837  0.75001  0.61589  1.0000
