data_image0
_chemical_formula_structural       Zn2Ag4H16C16N12O22
_chemical_formula_sum              "Zn2 Ag4 H16 C16 N12 O22"
_cell_length_a       6.20545
_cell_length_b       8.62012
_cell_length_c       14.6323
_cell_angle_alpha    73.3935
_cell_angle_beta     88.7903
_cell_angle_gamma    89.3999

_space_group_name_H-M_alt    "P 1"
_space_group_IT_number       1

loop_
  _space_group_symop_operation_xyz
  'x, y, z'

loop_
  _atom_site_type_symbol
  _atom_site_label
  _atom_site_symmetry_multiplicity
  _atom_site_fract_x
  _atom_site_fract_y
  _atom_site_fract_z
  _atom_site_occupancy
  Zn  Zn1       1.0  0.46669  0.56536  0.85801  1.0000
  Zn  Zn2       1.0  0.53331  0.43464  0.14199  1.0000
  Ag  Ag1       1.0  0.28661  0.00264  0.23656  1.0000
  Ag  Ag2       1.0  0.71339  0.99736  0.76344  1.0000
  Ag  Ag3       1.0  0.38118  0.43190  0.60838  1.0000
  Ag  Ag4       1.0  0.61883  0.56810  0.39162  1.0000
  H   H1        1.0  0.83664  0.51225  0.76262  1.0000
  H   H2        1.0  0.16336  0.48775  0.23738  1.0000
  H   H3        1.0  0.31949  0.79826  0.71321  1.0000
  H   H4        1.0  0.68052  0.20174  0.28679  1.0000
  H   H5        1.0  0.01068  0.58306  0.87127  1.0000
  H   H6        1.0  0.98932  0.41694  0.12873  1.0000
  H   H7        1.0  0.80728  0.37439  0.86257  1.0000
  H   H8        1.0  0.19273  0.62561  0.13744  1.0000
  H   H9        1.0  0.54825  0.73726  0.67669  1.0000
  H   H10       1.0  0.45175  0.26274  0.32331  1.0000
  H   H11       1.0  0.12652  0.71869  0.91262  1.0000
  H   H12       1.0  0.87348  0.28132  0.08738  1.0000
  H   H13       1.0  0.21386  0.02571  0.85785  1.0000
  H   H14       1.0  0.78614  0.97429  0.14215  1.0000
  H   H15       1.0  0.69201  0.87104  0.50336  1.0000
  H   H16       1.0  0.30799  0.12896  0.49664  1.0000
  C   C1        1.0  0.28786  0.09160  0.01382  1.0000
  C   C2        1.0  0.71214  0.90840  0.98618  1.0000
  C   C3        1.0  0.33047  0.22168  0.93325  1.0000
  C   C4        1.0  0.66953  0.77833  0.06675  1.0000
  C   C5        1.0  0.21070  0.92580  0.02104  1.0000
  C   C6        1.0  0.78930  0.07420  0.97896  1.0000
  C   C7        1.0  0.31386  0.24793  0.83002  1.0000
  C   C8        1.0  0.68614  0.75207  0.16998  1.0000
  C   C9        1.0  0.03812  0.71254  0.50700  1.0000
  C   C10       1.0  0.96188  0.28746  0.49300  1.0000
  C   C11       1.0  0.02919  0.84251  0.42331  1.0000
  C   C12       1.0  0.97081  0.15749  0.57669  1.0000
  C   C13       1.0  0.87199  0.97601  0.38997  1.0000
  C   C14       1.0  0.12801  0.02399  0.61003  1.0000
  C   C15       1.0  0.88888  0.65835  0.59091  1.0000
  C   C16       1.0  0.11112  0.34165  0.40909  1.0000
  N   N1        1.0  0.40812  0.34282  0.96432  1.0000
  N   N2        1.0  0.59188  0.65719  0.03568  1.0000
  N   N3        1.0  0.21139  0.83447  0.37164  1.0000
  N   N4        1.0  0.78862  0.16553  0.62836  1.0000
  N   N5        1.0  0.32679  0.70773  0.41992  1.0000
  N   N6        1.0  0.67321  0.29227  0.58008  1.0000
  N   N7        1.0  0.22520  0.63342  0.50223  1.0000
  N   N8        1.0  0.77480  0.36658  0.49777  1.0000
  N   N9        1.0  0.41024  0.29332  0.05861  1.0000
  N   N10       1.0  0.58976  0.70668  0.94139  1.0000
  N   N11       1.0  0.33776  0.14161  0.09044  1.0000
  N   N12       1.0  0.66224  0.85839  0.90956  1.0000
  O   O1        1.0  0.79265  0.49418  0.83228  1.0000
  O   O2        1.0  0.20735  0.50583  0.16772  1.0000
  O   O3        1.0  0.36300  0.38449  0.77565  1.0000
  O   O4        1.0  0.63701  0.61551  0.22435  1.0000
  O   O5        1.0  0.25235  0.12948  0.79815  1.0000
  O   O6        1.0  0.74765  0.87051  0.20185  1.0000
  O   O7        1.0  0.17230  0.89801  0.94082  1.0000
  O   O8        1.0  0.82770  0.10199  0.05918  1.0000
  O   O9        1.0  0.18826  0.82616  0.10181  1.0000
  O   O10       1.0  0.81174  0.17384  0.89819  1.0000
  O   O11       1.0  0.90763  0.08906  0.31635  1.0000
  O   O12       1.0  0.09237  0.91094  0.68365  1.0000
  O   O13       1.0  0.69500  0.97277  0.44132  1.0000
  O   O14       1.0  0.30500  0.02722  0.55868  1.0000
  O   O15       1.0  0.70824  0.73616  0.58589  1.0000
  O   O16       1.0  0.29175  0.26384  0.41411  1.0000
  O   O17       1.0  0.94533  0.54174  0.65942  1.0000
  O   O18       1.0  0.05468  0.45826  0.34058  1.0000
  O   O19       1.0  0.46216  0.74560  0.73393  1.0000
  O   O20       1.0  0.53784  0.25440  0.26607  1.0000
  O   O21       1.0  0.14752  0.61901  0.89284  1.0000
  O   O22       1.0  0.85248  0.38099  0.10715  1.0000
