data_image0
_chemical_formula_structural       Ni2Ag4H16C16N12O22
_chemical_formula_sum              "Ni2 Ag4 H16 C16 N12 O22"
_cell_length_a       6.26248
_cell_length_b       8.55243
_cell_length_c       14.4451
_cell_angle_alpha    73.7138
_cell_angle_beta     88.315
_cell_angle_gamma    88.3911

_space_group_name_H-M_alt    "P 1"
_space_group_IT_number       1

loop_
  _space_group_symop_operation_xyz
  'x, y, z'

loop_
  _atom_site_type_symbol
  _atom_site_label
  _atom_site_symmetry_multiplicity
  _atom_site_fract_x
  _atom_site_fract_y
  _atom_site_fract_z
  _atom_site_occupancy
  Ni  Ni1       1.0  0.53222  0.93824  0.14038  1.0000
  Ni  Ni2       1.0  0.46780  0.06177  0.85962  1.0000
  Ag  Ag1       1.0  0.61686  0.06656  0.39080  1.0000
  Ag  Ag2       1.0  0.38316  0.93344  0.60920  1.0000
  Ag  Ag3       1.0  0.29398  0.50968  0.23734  1.0000
  Ag  Ag4       1.0  0.70601  0.49032  0.76265  1.0000
  H   H1        1.0  0.68954  0.37142  0.50302  1.0000
  H   H2        1.0  0.31047  0.62858  0.49698  1.0000
  H   H3        1.0  0.21483  0.52486  0.86776  1.0000
  H   H4        1.0  0.78517  0.47515  0.13224  1.0000
  H   H5        1.0  0.32965  0.30035  0.71989  1.0000
  H   H6        1.0  0.67034  0.69965  0.28011  1.0000
  H   H7        1.0  0.55421  0.23367  0.68285  1.0000
  H   H8        1.0  0.44580  0.76632  0.31715  1.0000
  H   H9        1.0  0.81620  0.87272  0.86578  1.0000
  H   H10       1.0  0.18380  0.12728  0.13422  1.0000
  H   H11       1.0  0.84414  0.00433  0.76260  1.0000
  H   H12       1.0  0.15586  0.99567  0.23740  1.0000
  H   H13       1.0  0.01326  0.08270  0.87073  1.0000
  H   H14       1.0  0.98675  0.91730  0.12927  1.0000
  H   H15       1.0  0.12012  0.22968  0.90265  1.0000
  H   H16       1.0  0.87989  0.77032  0.09735  1.0000
  C   C1        1.0  0.03767  0.21441  0.50654  1.0000
  C   C2        1.0  0.96233  0.78559  0.49346  1.0000
  C   C3        1.0  0.02717  0.34464  0.42196  1.0000
  C   C4        1.0  0.97284  0.65535  0.57805  1.0000
  C   C5        1.0  0.88849  0.15679  0.59057  1.0000
  C   C6        1.0  0.11150  0.84320  0.40942  1.0000
  C   C7        1.0  0.86559  0.47590  0.38740  1.0000
  C   C8        1.0  0.13442  0.52409  0.61261  1.0000
  C   C9        1.0  0.29403  0.60940  0.01120  1.0000
  C   C10       1.0  0.70598  0.39061  0.98880  1.0000
  C   C11       1.0  0.33969  0.74033  0.93140  1.0000
  C   C12       1.0  0.66030  0.25969  0.06860  1.0000
  C   C13       1.0  0.21829  0.44610  0.01508  1.0000
  C   C14       1.0  0.78171  0.55391  0.98492  1.0000
  C   C15       1.0  0.32439  0.77046  0.82673  1.0000
  C   C16       1.0  0.67561  0.22955  0.17327  1.0000
  N   N1        1.0  0.32861  0.21178  0.41991  1.0000
  N   N2        1.0  0.67139  0.78821  0.58009  1.0000
  N   N3        1.0  0.22688  0.13659  0.50246  1.0000
  N   N4        1.0  0.77312  0.86340  0.49754  1.0000
  N   N5        1.0  0.21070  0.33770  0.37053  1.0000
  N   N6        1.0  0.78931  0.66229  0.62947  1.0000
  N   N7        1.0  0.34468  0.65526  0.09040  1.0000
  N   N8        1.0  0.65531  0.34473  0.90961  1.0000
  N   N9        1.0  0.42154  0.80570  0.06033  1.0000
  N   N10       1.0  0.57847  0.19430  0.93967  1.0000
  N   N11       1.0  0.42055  0.85823  0.96461  1.0000
  N   N12       1.0  0.57947  0.14179  0.03538  1.0000
  O   O1        1.0  0.94469  0.03539  0.65740  1.0000
  O   O2        1.0  0.05531  0.96461  0.34260  1.0000
  O   O3        1.0  0.70881  0.23604  0.58772  1.0000
  O   O4        1.0  0.29117  0.76395  0.41227  1.0000
  O   O5        1.0  0.89635  0.58815  0.31206  1.0000
  O   O6        1.0  0.10365  0.41184  0.68794  1.0000
  O   O7        1.0  0.68938  0.47160  0.43964  1.0000
  O   O8        1.0  0.31064  0.52841  0.56037  1.0000
  O   O9        1.0  0.19262  0.33989  0.09257  1.0000
  O   O10       1.0  0.80739  0.66012  0.90743  1.0000
  O   O11       1.0  0.18019  0.42143  0.93073  1.0000
  O   O12       1.0  0.81981  0.57857  0.06926  1.0000
  O   O13       1.0  0.37656  0.91358  0.77669  1.0000
  O   O14       1.0  0.62344  0.08642  0.22331  1.0000
  O   O15       1.0  0.47426  0.25062  0.74086  1.0000
  O   O16       1.0  0.52575  0.74938  0.25914  1.0000
  O   O17       1.0  0.80536  0.99122  0.83321  1.0000
  O   O18       1.0  0.19464  0.00878  0.16678  1.0000
  O   O19       1.0  0.14305  0.11918  0.89667  1.0000
  O   O20       1.0  0.85696  0.88082  0.10333  1.0000
  O   O21       1.0  0.26620  0.65837  0.79166  1.0000
  O   O22       1.0  0.73379  0.34163  0.20834  1.0000
