data_image0
_chemical_formula_structural       Co2H40C38N4O18
_chemical_formula_sum              "Co2 H40 C38 N4 O18"
_cell_length_a       7.28471
_cell_length_b       10.7042
_cell_length_c       13.144
_cell_angle_alpha    71.8472
_cell_angle_beta     80.4712
_cell_angle_gamma    84.2496

_space_group_name_H-M_alt    "P 1"
_space_group_IT_number       1

loop_
  _space_group_symop_operation_xyz
  'x, y, z'

loop_
  _atom_site_type_symbol
  _atom_site_label
  _atom_site_symmetry_multiplicity
  _atom_site_fract_x
  _atom_site_fract_y
  _atom_site_fract_z
  _atom_site_occupancy
  Co  Co1       1.0  0.55368  0.12209  0.29895  1.0000
  Co  Co2       1.0  0.44631  0.87792  0.70106  1.0000
  H   H1        1.0  0.33191  0.08516  0.49106  1.0000
  H   H2        1.0  0.66809  0.91486  0.50895  1.0000
  H   H3        1.0  0.19881  0.10421  0.39665  1.0000
  H   H4        1.0  0.80118  0.89580  0.60335  1.0000
  H   H5        1.0  0.81489  0.04674  0.18675  1.0000
  H   H6        1.0  0.18511  0.95327  0.81324  1.0000
  H   H7        1.0  0.89614  0.13796  0.23883  1.0000
  H   H8        1.0  0.10385  0.86204  0.76117  1.0000
  H   H9        1.0  0.36113  0.87656  0.31586  1.0000
  H   H10       1.0  0.63886  0.12342  0.68414  1.0000
  H   H11       1.0  0.18596  0.79507  0.20459  1.0000
  H   H12       1.0  0.81409  0.20490  0.79540  1.0000
  H   H13       1.0  0.14281  0.93772  0.01640  1.0000
  H   H14       1.0  0.85723  0.06227  0.98359  1.0000
  H   H15       1.0  0.46172  0.22481  0.06824  1.0000
  H   H16       1.0  0.53827  0.77519  0.93178  1.0000
  H   H17       1.0  0.72600  0.38075  0.21574  1.0000
  H   H18       1.0  0.27397  0.61927  0.78425  1.0000
  H   H19       1.0  0.64656  0.61568  0.11517  1.0000
  H   H20       1.0  0.35342  0.38433  0.88480  1.0000
  H   H21       1.0  0.32805  0.67705  0.06205  1.0000
  H   H22       1.0  0.67192  0.32294  0.93791  1.0000
  H   H23       1.0  0.18782  0.27458  0.22645  1.0000
  H   H24       1.0  0.81216  0.72542  0.77356  1.0000
  H   H25       1.0  0.93362  0.12504  0.57053  1.0000
  H   H26       1.0  0.06637  0.87496  0.42948  1.0000
  H   H27       1.0  0.05748  0.25782  0.47619  1.0000
  H   H28       1.0  0.94253  0.74218  0.52381  1.0000
  H   H29       1.0  0.60897  0.47723  0.62260  1.0000
  H   H30       1.0  0.39103  0.52279  0.37739  1.0000
  H   H31       1.0  0.57244  0.71555  0.52606  1.0000
  H   H32       1.0  0.42758  0.28446  0.47394  1.0000
  H   H33       1.0  0.92351  0.65517  0.24586  1.0000
  H   H34       1.0  0.07653  0.34484  0.75414  1.0000
  H   H35       1.0  0.95733  0.41858  0.33998  1.0000
  H   H36       1.0  0.04271  0.58143  0.66003  1.0000
  H   H37       1.0  0.23815  0.15188  0.87615  1.0000
  H   H38       1.0  0.76186  0.84810  0.12386  1.0000
  H   H39       1.0  0.04464  0.58857  0.06149  1.0000
  H   H40       1.0  0.95530  0.41141  0.93852  1.0000
  C   C1        1.0  0.34199  0.93606  0.23421  1.0000
  C   C2        1.0  0.65802  0.06392  0.76581  1.0000
  C   C3        1.0  0.24493  0.89141  0.17078  1.0000
  C   C4        1.0  0.75509  0.10858  0.82922  1.0000
  C   C5        1.0  0.21989  0.97067  0.06696  1.0000
  C   C6        1.0  0.78015  0.02931  0.93304  1.0000
  C   C7        1.0  0.29443  0.09536  0.02941  1.0000
  C   C8        1.0  0.70559  0.90463  0.97060  1.0000
  C   C9        1.0  0.39693  0.13056  0.09684  1.0000
  C   C10       1.0  0.60307  0.86942  0.90318  1.0000
  C   C11       1.0  0.58727  0.41177  0.19400  1.0000
  C   C12       1.0  0.41269  0.58824  0.80599  1.0000
  C   C13       1.0  0.54346  0.54145  0.13686  1.0000
  C   C14       1.0  0.45651  0.45856  0.86312  1.0000
  C   C15       1.0  0.36564  0.57629  0.10785  1.0000
  C   C16       1.0  0.63431  0.42372  0.89212  1.0000
  C   C17       1.0  0.23604  0.47891  0.13833  1.0000
  C   C18       1.0  0.76393  0.52109  0.86166  1.0000
  C   C19       1.0  0.28779  0.35161  0.19937  1.0000
  C   C20       1.0  0.71218  0.64840  0.80063  1.0000
  C   C21       1.0  0.85882  0.17808  0.41160  1.0000
  C   C22       1.0  0.14116  0.82193  0.58840  1.0000
  C   C23       1.0  0.91978  0.21596  0.50347  1.0000
  C   C24       1.0  0.08022  0.78404  0.49653  1.0000
  C   C25       1.0  0.78574  0.43248  0.48864  1.0000
  C   C26       1.0  0.21428  0.56753  0.51136  1.0000
  C   C27       1.0  0.67973  0.51804  0.54045  1.0000
  C   C28       1.0  0.32028  0.48197  0.45955  1.0000
  C   C29       1.0  0.66110  0.65134  0.48630  1.0000
  C   C30       1.0  0.33892  0.34866  0.51370  1.0000
  C   C31       1.0  0.74933  0.70318  0.37931  1.0000
  C   C32       1.0  0.25070  0.29682  0.62069  1.0000
  C   C33       1.0  0.85469  0.61654  0.32862  1.0000
  C   C34       1.0  0.14534  0.38346  0.67138  1.0000
  C   C35       1.0  0.87377  0.48247  0.38195  1.0000
  C   C36       1.0  0.12626  0.51753  0.61806  1.0000
  C   C37       1.0  0.73651  0.84646  0.32200  1.0000
  C   C38       1.0  0.26352  0.15356  0.67800  1.0000
  N   N1        1.0  0.41801  0.05459  0.19714  1.0000
  N   N2        1.0  0.58197  0.94541  0.80287  1.0000
  N   N3        1.0  0.46111  0.31846  0.22492  1.0000
  N   N4        1.0  0.53888  0.68152  0.77509  1.0000
  O   O1        1.0  0.27212  0.18667  0.93420  1.0000
  O   O2        1.0  0.72792  0.81331  0.06581  1.0000
  O   O3        1.0  0.05926  0.50032  0.11173  1.0000
  O   O4        1.0  0.94069  0.49965  0.88827  1.0000
  O   O5        1.0  0.68957  0.19476  0.39817  1.0000
  O   O6        1.0  0.31043  0.80525  0.60183  1.0000
  O   O7        1.0  0.99003  0.12980  0.35482  1.0000
  O   O8        1.0  0.00996  0.87020  0.64518  1.0000
  O   O9        1.0  0.79341  0.30268  0.54771  1.0000
  O   O10       1.0  0.20661  0.69732  0.45229  1.0000
  O   O11       1.0  0.80033  0.88805  0.22082  1.0000
  O   O12       1.0  0.19967  0.11195  0.77917  1.0000
  O   O13       1.0  0.66495  0.92589  0.37546  1.0000
  O   O14       1.0  0.33508  0.07412  0.62454  1.0000
  O   O15       1.0  0.32895  0.08554  0.41538  1.0000
  O   O16       1.0  0.67105  0.91447  0.58462  1.0000
  O   O17       1.0  0.80953  0.14168  0.18618  1.0000
  O   O18       1.0  0.19046  0.85833  0.81382  1.0000
