data_image0
_chemical_formula_structural       Cu4H32C24S8N16
_chemical_formula_sum              "Cu4 H32 C24 S8 N16"
_cell_length_a       9.33447
_cell_length_b       9.59988
_cell_length_c       11.8585
_cell_angle_alpha    96.7899
_cell_angle_beta     96.1841
_cell_angle_gamma    107.356

_space_group_name_H-M_alt    "P 1"
_space_group_IT_number       1

loop_
  _space_group_symop_operation_xyz
  'x, y, z'

loop_
  _atom_site_type_symbol
  _atom_site_label
  _atom_site_symmetry_multiplicity
  _atom_site_fract_x
  _atom_site_fract_y
  _atom_site_fract_z
  _atom_site_occupancy
  Cu  Cu1       1.0  0.22898  0.87067  0.87149  1.0000
  Cu  Cu2       1.0  0.77103  0.12932  0.12851  1.0000
  Cu  Cu3       1.0  1.00000  1.00000  0.50000  1.0000
  Cu  Cu4       1.0  0.50000  0.50000  0.00000  1.0000
  H   H1        1.0  0.18381  0.84778  0.48703  1.0000
  H   H2        1.0  0.81618  0.15222  0.51297  1.0000
  H   H3        1.0  0.15620  0.88123  0.62236  1.0000
  H   H4        1.0  0.84380  0.11877  0.37764  1.0000
  H   H5        1.0  0.77484  0.83262  0.34651  1.0000
  H   H6        1.0  0.22516  0.16737  0.65349  1.0000
  H   H7        1.0  0.73862  0.80312  0.47704  1.0000
  H   H8        1.0  0.26137  0.19688  0.52296  1.0000
  H   H9        1.0  0.48872  0.75596  0.07282  1.0000
  H   H10       1.0  0.51128  0.24404  0.92718  1.0000
  H   H11       1.0  0.34454  0.67851  0.96790  1.0000
  H   H12       1.0  0.65545  0.32149  0.03210  1.0000
  H   H13       1.0  0.51082  0.39885  0.18910  1.0000
  H   H14       1.0  0.48918  0.60115  0.81091  1.0000
  H   H15       1.0  0.33458  0.32975  0.12121  1.0000
  H   H16       1.0  0.66542  0.67025  0.87880  1.0000
  H   H17       1.0  0.03687  0.61503  0.52042  1.0000
  H   H18       1.0  0.96312  0.38496  0.47959  1.0000
  H   H19       1.0  0.92655  0.70106  0.60016  1.0000
  H   H20       1.0  0.07344  0.29894  0.39985  1.0000
  H   H21       1.0  0.93067  0.68473  0.33991  1.0000
  H   H22       1.0  0.06933  0.31526  0.66010  1.0000
  H   H23       1.0  0.77904  0.58477  0.40622  1.0000
  H   H24       1.0  0.22095  0.41523  0.59379  1.0000
  H   H25       1.0  0.19566  0.53803  0.08402  1.0000
  H   H26       1.0  0.80434  0.46197  0.91599  1.0000
  H   H27       1.0  0.28266  0.71252  0.17223  1.0000
  H   H28       1.0  0.71733  0.28748  0.82777  1.0000
  H   H29       1.0  0.30966  0.49968  0.27364  1.0000
  H   H30       1.0  0.69033  0.50032  0.72636  1.0000
  H   H31       1.0  0.48793  0.62381  0.25840  1.0000
  H   H32       1.0  0.51206  0.37619  0.74161  1.0000
  C   C1        1.0  0.56583  0.06192  0.64762  1.0000
  C   C2        1.0  0.43418  0.93808  0.35238  1.0000
  C   C3        1.0  0.45519  0.96991  0.70169  1.0000
  C   C4        1.0  0.54481  0.03009  0.29831  1.0000
  C   C5        1.0  0.42681  0.81805  0.68671  1.0000
  C   C6        1.0  0.57320  0.18196  0.31328  1.0000
  C   C7        1.0  0.50918  0.75099  0.61685  1.0000
  C   C8        1.0  0.49082  0.24901  0.38315  1.0000
  C   C9        1.0  0.87152  0.72333  0.08887  1.0000
  C   C10       1.0  0.12850  0.27668  0.91113  1.0000
  C   C11       1.0  0.00072  0.79509  0.04096  1.0000
  C   C12       1.0  0.99930  0.20492  0.95903  1.0000
  C   C13       1.0  0.11313  0.91968  0.10226  1.0000
  C   C14       1.0  0.88688  0.08033  0.89773  1.0000
  C   C15       1.0  0.09750  0.97981  0.21306  1.0000
  C   C16       1.0  0.90251  0.02020  0.78693  1.0000
  C   C17       1.0  0.98547  0.70439  0.52467  1.0000
  C   C18       1.0  0.01452  0.29560  0.47533  1.0000
  C   C19       1.0  0.87453  0.68786  0.41651  1.0000
  C   C20       1.0  0.12546  0.31214  0.58349  1.0000
  C   C21       1.0  0.30486  0.61613  0.12713  1.0000
  C   C22       1.0  0.69513  0.38387  0.87287  1.0000
  C   C23       1.0  0.38268  0.54319  0.21076  1.0000
  C   C24       1.0  0.61732  0.45681  0.78924  1.0000
  S   S1        1.0  0.35562  0.05632  0.78558  1.0000
  S   S2        1.0  0.64439  0.94368  0.21442  1.0000
  S   S3        1.0  0.29271  0.70159  0.75219  1.0000
  S   S4        1.0  0.70730  0.29840  0.24780  1.0000
  S   S5        1.0  0.00798  0.71991  0.90281  1.0000
  S   S6        1.0  0.99203  0.28009  0.09718  1.0000
  S   S7        1.0  0.27615  0.00586  0.04875  1.0000
  S   S8        1.0  0.72386  0.99414  0.95124  1.0000
  N   N1        1.0  0.65708  0.14317  0.60540  1.0000
  N   N2        1.0  0.34292  0.85684  0.39459  1.0000
  N   N3        1.0  0.57788  0.69288  0.56134  1.0000
  N   N4        1.0  0.42212  0.30711  0.43866  1.0000
  N   N5        1.0  0.76126  0.65911  0.12351  1.0000
  N   N6        1.0  0.23875  0.34091  0.87649  1.0000
  N   N7        1.0  0.08739  0.03113  0.30542  1.0000
  N   N8        1.0  0.91261  0.96887  0.69457  1.0000
  N   N9        1.0  0.10247  0.85049  0.53902  1.0000
  N   N10       1.0  0.89752  0.14951  0.46099  1.0000
  N   N11       1.0  0.82194  0.81894  0.42521  1.0000
  N   N12       1.0  0.17805  0.18105  0.57479  1.0000
  N   N13       1.0  0.40364  0.65850  0.03903  1.0000
  N   N14       1.0  0.59635  0.34150  0.96097  1.0000
  N   N15       1.0  0.42488  0.42517  0.14352  1.0000
  N   N16       1.0  0.57513  0.57484  0.85649  1.0000
