data_image0
_chemical_formula_structural       Ag6H60C30S12N6
_chemical_formula_sum              "Ag6 H60 C30 S12 N6"
_cell_length_a       9.46064
_cell_length_b       10.189
_cell_length_c       14.245
_cell_angle_alpha    103.584
_cell_angle_beta     90
_cell_angle_gamma    117.662

_space_group_name_H-M_alt    "P 1"
_space_group_IT_number       1

loop_
  _space_group_symop_operation_xyz
  'x, y, z'

loop_
  _atom_site_type_symbol
  _atom_site_label
  _atom_site_symmetry_multiplicity
  _atom_site_fract_x
  _atom_site_fract_y
  _atom_site_fract_z
  _atom_site_occupancy
  Ag  Ag1       1.0  0.84879  0.96528  0.95199  1.0000
  Ag  Ag2       1.0  0.88362  0.03494  0.54812  1.0000
  Ag  Ag3       1.0  0.15121  0.03472  0.04801  1.0000
  Ag  Ag4       1.0  0.11638  0.96506  0.45188  1.0000
  Ag  Ag5       1.0  0.93058  0.99986  0.24995  1.0000
  Ag  Ag6       1.0  0.06943  0.00014  0.75005  1.0000
  H   H1        1.0  0.93337  0.53637  0.06204  1.0000
  H   H2        1.0  0.39682  0.46347  0.43803  1.0000
  H   H3        1.0  0.06663  0.46363  0.93796  1.0000
  H   H4        1.0  0.60317  0.53653  0.56197  1.0000
  H   H5        1.0  0.77657  0.41124  0.11663  1.0000
  H   H6        1.0  0.36515  0.58857  0.38340  1.0000
  H   H7        1.0  0.22343  0.58876  0.88337  1.0000
  H   H8        1.0  0.63485  0.41143  0.61660  1.0000
  H   H9        1.0  0.77530  0.27449  0.94512  1.0000
  H   H10       1.0  0.50059  0.72531  0.55494  1.0000
  H   H11       1.0  0.22470  0.72551  0.05488  1.0000
  H   H12       1.0  0.49941  0.27469  0.44506  1.0000
  H   H13       1.0  0.59591  0.29135  0.95522  1.0000
  H   H14       1.0  0.30438  0.70853  0.54478  1.0000
  H   H15       1.0  0.40409  0.70865  0.04478  1.0000
  H   H16       1.0  0.69561  0.29147  0.45522  1.0000
  H   H17       1.0  0.75736  0.41741  0.90236  1.0000
  H   H18       1.0  0.33963  0.58242  0.59766  1.0000
  H   H19       1.0  0.24264  0.58258  0.09763  1.0000
  H   H20       1.0  0.66037  0.41758  0.40234  1.0000
  H   H21       1.0  0.52553  0.58453  0.11175  1.0000
  H   H22       1.0  0.94086  0.41541  0.38840  1.0000
  H   H23       1.0  0.47447  0.41548  0.88824  1.0000
  H   H24       1.0  0.05914  0.58458  0.61161  1.0000
  H   H25       1.0  0.52008  0.40473  0.10004  1.0000
  H   H26       1.0  0.11529  0.59512  0.40003  1.0000
  H   H27       1.0  0.47993  0.59528  0.89996  1.0000
  H   H28       1.0  0.88471  0.40487  0.59997  1.0000
  H   H29       1.0  0.52085  0.52137  0.27375  1.0000
  H   H30       1.0  0.99921  0.47847  0.22637  1.0000
  H   H31       1.0  0.47915  0.47864  0.72625  1.0000
  H   H32       1.0  0.00080  0.52153  0.77363  1.0000
  H   H33       1.0  0.70728  0.52193  0.26103  1.0000
  H   H34       1.0  0.18500  0.47778  0.23899  1.0000
  H   H35       1.0  0.29272  0.47807  0.73897  1.0000
  H   H36       1.0  0.81499  0.52222  0.76101  1.0000
  H   H37       1.0  0.69804  0.69447  0.27187  1.0000
  H   H38       1.0  0.00317  0.30530  0.22822  1.0000
  H   H39       1.0  0.30196  0.30553  0.72813  1.0000
  H   H40       1.0  0.99683  0.69470  0.77178  1.0000
  H   H41       1.0  0.51822  0.86456  0.22781  1.0000
  H   H42       1.0  0.65361  0.13492  0.27203  1.0000
  H   H43       1.0  0.48178  0.13545  0.77219  1.0000
  H   H44       1.0  0.34639  0.86508  0.72797  1.0000
  H   H45       1.0  0.31224  0.76840  0.24617  1.0000
  H   H46       1.0  0.54405  0.23143  0.25399  1.0000
  H   H47       1.0  0.68776  0.23159  0.75383  1.0000
  H   H48       1.0  0.45594  0.76856  0.74601  1.0000
  H   H49       1.0  0.50552  0.82089  0.39237  1.0000
  H   H50       1.0  0.68429  0.17897  0.10757  1.0000
  H   H51       1.0  0.49449  0.17912  0.60763  1.0000
  H   H52       1.0  0.31570  0.82103  0.89242  1.0000
  H   H53       1.0  0.37849  0.90659  0.42137  1.0000
  H   H54       1.0  0.47153  0.09341  0.07871  1.0000
  H   H55       1.0  0.62152  0.09341  0.57863  1.0000
  H   H56       1.0  0.52846  0.90659  0.92129  1.0000
  H   H57       1.0  0.58305  0.02000  0.40622  1.0000
  H   H58       1.0  0.56268  0.97987  0.09364  1.0000
  H   H59       1.0  0.41695  0.98000  0.59378  1.0000
  H   H60       1.0  0.43731  0.02013  0.90636  1.0000
  C   C1        1.0  0.80967  0.71332  0.05753  1.0000
  C   C2        1.0  0.09618  0.28641  0.44240  1.0000
  C   C3        1.0  0.19034  0.28668  0.94247  1.0000
  C   C4        1.0  0.90382  0.71359  0.55760  1.0000
  C   C5        1.0  0.26325  0.99995  0.24999  1.0000
  C   C6        1.0  0.73675  0.00005  0.75001  1.0000
  C   C7        1.0  0.80230  0.47026  0.05848  1.0000
  C   C8        1.0  0.33185  0.52955  0.44156  1.0000
  C   C9        1.0  0.19770  0.52974  0.94152  1.0000
  C   C10       1.0  0.66815  0.47045  0.55844  1.0000
  C   C11       1.0  0.72749  0.35605  0.95934  1.0000
  C   C12       1.0  0.37120  0.64379  0.54070  1.0000
  C   C13       1.0  0.27251  0.64394  0.04066  1.0000
  C   C14       1.0  0.62879  0.35621  0.45930  1.0000
  C   C15       1.0  0.59340  0.52967  0.13067  1.0000
  C   C16       1.0  0.06356  0.47017  0.36942  1.0000
  C   C17       1.0  0.40661  0.47033  0.86933  1.0000
  C   C18       1.0  0.93644  0.52983  0.63058  1.0000
  C   C19       1.0  0.63233  0.56949  0.24059  1.0000
  C   C20       1.0  0.06254  0.43030  0.25948  1.0000
  C   C21       1.0  0.36767  0.43052  0.75941  1.0000
  C   C22       1.0  0.93746  0.56970  0.74052  1.0000
  C   C23       1.0  0.42610  0.87519  0.27122  1.0000
  C   C24       1.0  0.55085  0.12454  0.22878  1.0000
  C   C25       1.0  0.57389  0.12481  0.72878  1.0000
  C   C26       1.0  0.44914  0.87546  0.77121  1.0000
  C   C27       1.0  0.47594  0.90767  0.37910  1.0000
  C   C28       1.0  0.56796  0.09219  0.12085  1.0000
  C   C29       1.0  0.52406  0.09233  0.62090  1.0000
  C   C30       1.0  0.43203  0.90781  0.87914  1.0000
  S   S1        1.0  0.73869  0.84567  0.09514  1.0000
  S   S2        1.0  0.89287  0.15406  0.40472  1.0000
  S   S3        1.0  0.26132  0.15433  0.90486  1.0000
  S   S4        1.0  0.10713  0.84594  0.59528  1.0000
  S   S5        1.0  0.09497  0.84860  0.27522  1.0000
  S   S6        1.0  0.24641  0.15129  0.22469  1.0000
  S   S7        1.0  0.90503  0.15139  0.72478  1.0000
  S   S8        1.0  0.75358  0.84870  0.77531  1.0000
  S   S9        1.0  0.96266  0.75034  0.98642  1.0000
  S   S10       1.0  0.21215  0.24938  0.51352  1.0000
  S   S11       1.0  0.03735  0.24967  0.01358  1.0000
  S   S12       1.0  0.78786  0.75063  0.48648  1.0000
  N   N1        1.0  0.73894  0.57955  0.08161  1.0000
  N   N2        1.0  0.15922  0.42023  0.41842  1.0000
  N   N3        1.0  0.26106  0.42045  0.91839  1.0000
  N   N4        1.0  0.84078  0.57977  0.58158  1.0000
  N   N5        1.0  0.40480  0.99991  0.25001  1.0000
  N   N6        1.0  0.59520  0.00009  0.74999  1.0000
