data_image0
_chemical_formula_structural       Cu2H24C22N6O6F6
_chemical_formula_sum              "Cu2 H24 C22 N6 O6 F6"
_cell_length_a       6.24382
_cell_length_b       7.67812
_cell_length_c       14.4667
_cell_angle_alpha    101.99
_cell_angle_beta     94.2643
_cell_angle_gamma    92.0025

_space_group_name_H-M_alt    "P 1"
_space_group_IT_number       1

loop_
  _space_group_symop_operation_xyz
  'x, y, z'

loop_
  _atom_site_type_symbol
  _atom_site_label
  _atom_site_symmetry_multiplicity
  _atom_site_fract_x
  _atom_site_fract_y
  _atom_site_fract_z
  _atom_site_occupancy
  Cu  Cu1       1.0  0.49999  0.00001  0.50001  1.0000
  Cu  Cu2       1.0  0.99999  0.99999  0.50000  1.0000
  H   H1        1.0  0.26648  0.33667  0.56279  1.0000
  H   H2        1.0  0.73353  0.66334  0.43719  1.0000
  H   H3        1.0  0.22050  0.16408  0.71680  1.0000
  H   H4        1.0  0.77950  0.83589  0.28318  1.0000
  H   H5        1.0  0.06482  0.34015  0.69169  1.0000
  H   H6        1.0  0.93519  0.65983  0.30829  1.0000
  H   H7        1.0  0.33335  0.47657  0.81467  1.0000
  H   H8        1.0  0.66662  0.52339  0.18532  1.0000
  H   H9        1.0  0.40762  0.53570  0.70961  1.0000
  H   H10       1.0  0.59236  0.46431  0.29040  1.0000
  H   H11       1.0  0.73177  0.45310  0.79924  1.0000
  H   H12       1.0  0.26821  0.54693  0.20076  1.0000
  H   H13       1.0  0.67664  0.28896  0.69291  1.0000
  H   H14       1.0  0.32337  0.71105  0.30708  1.0000
  H   H15       1.0  0.60562  0.24510  0.80272  1.0000
  H   H16       1.0  0.39440  0.75492  0.19728  1.0000
  H   H17       1.0  0.53072  0.07111  0.22454  1.0000
  H   H18       1.0  0.46928  0.92889  0.77547  1.0000
  H   H19       1.0  0.50209  0.12933  0.06083  1.0000
  H   H20       1.0  0.49791  0.87067  0.93919  1.0000
  H   H21       1.0  0.85980  0.30323  0.09946  1.0000
  H   H22       1.0  0.14020  0.69679  0.90055  1.0000
  H   H23       1.0  0.88932  0.24027  0.26269  1.0000
  H   H24       1.0  0.11068  0.75974  0.73731  1.0000
  C   C1        1.0  0.22628  0.28654  0.68898  1.0000
  C   C2        1.0  0.77372  0.71344  0.31100  1.0000
  C   C3        1.0  0.39451  0.42303  0.74558  1.0000
  C   C4        1.0  0.60548  0.57696  0.25441  1.0000
  C   C5        1.0  0.61465  0.34863  0.76075  1.0000
  C   C6        1.0  0.38535  0.65138  0.23925  1.0000
  C   C7        1.0  0.22704  0.10750  0.34923  1.0000
  C   C8        1.0  0.77294  0.89250  0.65077  1.0000
  C   C9        1.0  0.21120  0.15096  0.25262  1.0000
  C   C10       1.0  0.78881  0.84904  0.74738  1.0000
  C   C11       1.0  0.38467  0.12162  0.19627  1.0000
  C   C12       1.0  0.61532  0.87839  0.80374  1.0000
  C   C13       1.0  0.36819  0.15421  0.10507  1.0000
  C   C14       1.0  0.63180  0.84579  0.89494  1.0000
  C   C15       1.0  0.17807  0.21795  0.07018  1.0000
  C   C16       1.0  0.82194  0.78206  0.92983  1.0000
  C   C17       1.0  0.00535  0.25031  0.12657  1.0000
  C   C18       1.0  0.99464  0.74971  0.87343  1.0000
  C   C19       1.0  0.02182  0.21595  0.21759  1.0000
  C   C20       1.0  0.97818  0.78407  0.78242  1.0000
  C   C21       1.0  0.16644  0.26017  0.97327  1.0000
  C   C22       1.0  0.83358  0.73984  0.02674  1.0000
  N   N1        1.0  0.23972  0.83198  0.47517  1.0000
  N   N2        1.0  0.76028  0.16800  0.52483  1.0000
  N   N3        1.0  0.24170  0.69553  0.50466  1.0000
  N   N4        1.0  0.75831  0.30448  0.49533  1.0000
  N   N5        1.0  0.24331  0.56190  0.52992  1.0000
  N   N6        1.0  0.75670  0.43806  0.47006  1.0000
  O   O1        1.0  0.41551  0.09089  0.38545  1.0000
  O   O2        1.0  0.58447  0.90911  0.61456  1.0000
  O   O3        1.0  0.04961  0.09045  0.38539  1.0000
  O   O4        1.0  0.95037  0.90953  0.61461  1.0000
  O   O5        1.0  0.27067  0.23023  0.59064  1.0000
  O   O6        1.0  0.72935  0.76977  0.40934  1.0000
  F   F1        1.0  0.27187  0.14093  0.91043  1.0000
  F   F2        1.0  0.72820  0.85910  0.08959  1.0000
  F   F3        1.0  0.26248  0.42491  0.97509  1.0000
  F   F4        1.0  0.73748  0.57512  0.02492  1.0000
  F   F5        1.0  0.96123  0.26092  0.93427  1.0000
  F   F6        1.0  0.03879  0.73905  0.06574  1.0000
