data_image0
_chemical_formula_structural       Cu2H24C32S2N4O8
_chemical_formula_sum              "Cu2 H24 C32 S2 N4 O8"
_cell_length_a       9.21613
_cell_length_b       9.40489
_cell_length_c       9.86971
_cell_angle_alpha    75.0056
_cell_angle_beta     66.8921
_cell_angle_gamma    82.9215

_space_group_name_H-M_alt    "P 1"
_space_group_IT_number       1

loop_
  _space_group_symop_operation_xyz
  'x, y, z'

loop_
  _atom_site_type_symbol
  _atom_site_label
  _atom_site_symmetry_multiplicity
  _atom_site_fract_x
  _atom_site_fract_y
  _atom_site_fract_z
  _atom_site_occupancy
  Cu  Cu1       1.0  0.83926  0.20352  0.55949  1.0000
  Cu  Cu2       1.0  0.16074  0.79648  0.44051  1.0000
  H   H1        1.0  0.86809  0.97036  0.40337  1.0000
  H   H2        1.0  0.13190  0.02964  0.59664  1.0000
  H   H3        1.0  0.72137  0.89198  0.26813  1.0000
  H   H4        1.0  0.27862  0.10801  0.73188  1.0000
  H   H5        1.0  0.49304  0.04859  0.23170  1.0000
  H   H6        1.0  0.50695  0.95141  0.76830  1.0000
  H   H7        1.0  0.42525  0.28409  0.32815  1.0000
  H   H8        1.0  0.57475  0.71590  0.67185  1.0000
  H   H9        1.0  0.58074  0.34288  0.46100  1.0000
  H   H10       1.0  0.41926  0.65712  0.53900  1.0000
  H   H11       1.0  0.79540  0.11947  0.87845  1.0000
  H   H12       1.0  0.20460  0.88053  0.12155  1.0000
  H   H13       1.0  0.90641  0.18256  0.05025  1.0000
  H   H14       1.0  0.09360  0.81743  0.94974  1.0000
  H   H15       1.0  0.12265  0.36730  0.93771  1.0000
  H   H16       1.0  0.87735  0.63271  0.06229  1.0000
  H   H17       1.0  0.22572  0.47207  0.65455  1.0000
  H   H18       1.0  0.77427  0.52794  0.34545  1.0000
  H   H19       1.0  0.10454  0.39444  0.50158  1.0000
  H   H20       1.0  0.89547  0.60556  0.49842  1.0000
  H   H21       1.0  0.40464  0.57063  0.88852  1.0000
  H   H22       1.0  0.59535  0.42938  0.11149  1.0000
  H   H23       1.0  0.18725  0.49284  0.16636  1.0000
  H   H24       1.0  0.81275  0.50715  0.83365  1.0000
  C   C1        1.0  0.76885  0.03477  0.38358  1.0000
  C   C2        1.0  0.23115  0.96522  0.61642  1.0000
  C   C3        1.0  0.68714  0.99332  0.30804  1.0000
  C   C4        1.0  0.31286  0.00667  0.69196  1.0000
  C   C5        1.0  0.56082  0.08133  0.28718  1.0000
  C   C6        1.0  0.43918  0.91867  0.71283  1.0000
  C   C7        1.0  0.52191  0.20978  0.34111  1.0000
  C   C8        1.0  0.47808  0.79022  0.65889  1.0000
  C   C9        1.0  0.60880  0.24457  0.41544  1.0000
  C   C10       1.0  0.39121  0.75543  0.58456  1.0000
  C   C11       1.0  0.89056  0.19682  0.83570  1.0000
  C   C12       1.0  0.10944  0.80318  0.16430  1.0000
  C   C13       1.0  0.95323  0.23297  0.92944  1.0000
  C   C14       1.0  0.04677  0.76703  0.07056  1.0000
  C   C15       1.0  0.07404  0.33449  0.86639  1.0000
  C   C16       1.0  0.92596  0.66552  0.13361  1.0000
  C   C17       1.0  0.13065  0.39378  0.71074  1.0000
  C   C18       1.0  0.86934  0.60623  0.28926  1.0000
  C   C19       1.0  0.06299  0.35194  0.62370  1.0000
  C   C20       1.0  0.93701  0.64807  0.37631  1.0000
  C   C21       1.0  0.57502  0.33657  0.74269  1.0000
  C   C22       1.0  0.42498  0.66343  0.25731  1.0000
  C   C23       1.0  0.44263  0.33792  0.88942  1.0000
  C   C24       1.0  0.55738  0.66208  0.11058  1.0000
  C   C25       1.0  0.37163  0.45821  0.94954  1.0000
  C   C26       1.0  0.62838  0.54179  0.05046  1.0000
  C   C27       1.0  0.25623  0.41720  0.09692  1.0000
  C   C28       1.0  0.74377  0.58280  0.90308  1.0000
  C   C29       1.0  0.23877  0.26611  0.14685  1.0000
  C   C30       1.0  0.76123  0.73389  0.85315  1.0000
  C   C31       1.0  0.12532  0.18215  0.29135  1.0000
  C   C32       1.0  0.87468  0.81785  0.70865  1.0000
  S   S1        1.0  0.36646  0.17469  0.01397  1.0000
  S   S2        1.0  0.63355  0.82531  0.98603  1.0000
  N   N1        1.0  0.72949  0.15809  0.43679  1.0000
  N   N2        1.0  0.27051  0.84191  0.56320  1.0000
  N   N3        1.0  0.94399  0.25652  0.68540  1.0000
  N   N4        1.0  0.05601  0.74348  0.31460  1.0000
  O   O1        1.0  0.63173  0.20509  0.72859  1.0000
  O   O2        1.0  0.36827  0.79492  0.27140  1.0000
  O   O3        1.0  0.62455  0.45411  0.64697  1.0000
  O   O4        1.0  0.37545  0.54590  0.35302  1.0000
  O   O5        1.0  0.12875  0.04409  0.31712  1.0000
  O   O6        1.0  0.87126  0.95591  0.68288  1.0000
  O   O7        1.0  0.03027  0.26368  0.37754  1.0000
  O   O8        1.0  0.96973  0.73631  0.62246  1.0000
