data_image0
_chemical_formula_structural       Cu8H40C32I8N8
_chemical_formula_sum              "Cu8 H40 C32 I8 N8"
_cell_length_a       4.14136
_cell_length_b       15.8395
_cell_length_c       16.807
_cell_angle_alpha    89.9997
_cell_angle_beta     89.9997
_cell_angle_gamma    89.9998

_space_group_name_H-M_alt    "P 1"
_space_group_IT_number       1

loop_
  _space_group_symop_operation_xyz
  'x, y, z'

loop_
  _atom_site_type_symbol
  _atom_site_label
  _atom_site_symmetry_multiplicity
  _atom_site_fract_x
  _atom_site_fract_y
  _atom_site_fract_z
  _atom_site_occupancy
  Cu  Cu1       1.0  0.95567  0.70464  0.45297  1.0000
  Cu  Cu2       1.0  0.54432  0.79535  0.95297  1.0000
  Cu  Cu3       1.0  0.45569  0.79535  0.54703  1.0000
  Cu  Cu4       1.0  0.04431  0.70465  0.04703  1.0000
  Cu  Cu5       1.0  0.04432  0.29536  0.54703  1.0000
  Cu  Cu6       1.0  0.45568  0.20465  0.04703  1.0000
  Cu  Cu7       1.0  0.54432  0.20465  0.45297  1.0000
  Cu  Cu8       1.0  0.95567  0.29535  0.95297  1.0000
  H   H1        1.0  0.97928  0.82411  0.32465  1.0000
  H   H2        1.0  0.52075  0.67589  0.82465  1.0000
  H   H3        1.0  0.47929  0.67589  0.67535  1.0000
  H   H4        1.0  0.02073  0.82411  0.17535  1.0000
  H   H5        1.0  0.02071  0.17590  0.67535  1.0000
  H   H6        1.0  0.47928  0.32410  0.17535  1.0000
  H   H7        1.0  0.52074  0.32411  0.32465  1.0000
  H   H8        1.0  0.97925  0.17589  0.82465  1.0000
  H   H9        1.0  0.70325  0.53247  0.35753  1.0000
  H   H10       1.0  0.79675  0.96753  0.85752  1.0000
  H   H11       1.0  0.20325  0.96753  0.64247  1.0000
  H   H12       1.0  0.29675  0.53247  0.14248  1.0000
  H   H13       1.0  0.29676  0.46753  0.64248  1.0000
  H   H14       1.0  0.20324  0.03247  0.14248  1.0000
  H   H15       1.0  0.79674  0.03247  0.35753  1.0000
  H   H16       1.0  0.70325  0.46753  0.85752  1.0000
  H   H17       1.0  0.09319  0.54606  0.39402  1.0000
  H   H18       1.0  0.40681  0.95394  0.89402  1.0000
  H   H19       1.0  0.59320  0.95394  0.60598  1.0000
  H   H20       1.0  0.90681  0.54606  0.10598  1.0000
  H   H21       1.0  0.90682  0.45394  0.60598  1.0000
  H   H22       1.0  0.59319  0.04606  0.10598  1.0000
  H   H23       1.0  0.40680  0.04606  0.39402  1.0000
  H   H24       1.0  0.09319  0.45394  0.89402  1.0000
  H   H25       1.0  0.98869  0.40425  0.32530  1.0000
  H   H26       1.0  0.51130  0.09575  0.82530  1.0000
  H   H27       1.0  0.48869  0.09575  0.67470  1.0000
  H   H28       1.0  0.01131  0.40425  0.17470  1.0000
  H   H29       1.0  0.01131  0.59575  0.67470  1.0000
  H   H30       1.0  0.48869  0.90425  0.17470  1.0000
  H   H31       1.0  0.51130  0.90425  0.32530  1.0000
  H   H32       1.0  0.98869  0.59575  0.82530  1.0000
  H   H33       1.0  0.33005  0.45905  0.29127  1.0000
  H   H34       1.0  0.16995  0.04095  0.79127  1.0000
  H   H35       1.0  0.83005  0.04095  0.70872  1.0000
  H   H36       1.0  0.66995  0.45905  0.20873  1.0000
  H   H37       1.0  0.66996  0.54095  0.70872  1.0000
  H   H38       1.0  0.83004  0.95905  0.20873  1.0000
  H   H39       1.0  0.16994  0.95905  0.29128  1.0000
  H   H40       1.0  0.33005  0.54095  0.79127  1.0000
  C   C1        1.0  0.98729  0.76543  0.29087  1.0000
  C   C2        1.0  0.51273  0.73457  0.79088  1.0000
  C   C3        1.0  0.48731  0.73457  0.70913  1.0000
  C   C4        1.0  0.01271  0.76543  0.20912  1.0000
  C   C5        1.0  0.01269  0.23457  0.70913  1.0000
  C   C6        1.0  0.48730  0.26543  0.20913  1.0000
  C   C7        1.0  0.51272  0.26542  0.29088  1.0000
  C   C8        1.0  0.98727  0.23457  0.79088  1.0000
  C   C9        1.0  0.98411  0.61976  0.29187  1.0000
  C   C10       1.0  0.51591  0.88024  0.79187  1.0000
  C   C11       1.0  0.48411  0.88023  0.70812  1.0000
  C   C12       1.0  0.01590  0.61977  0.20812  1.0000
  C   C13       1.0  0.01590  0.38023  0.70813  1.0000
  C   C14       1.0  0.48410  0.11977  0.20813  1.0000
  C   C15       1.0  0.51589  0.11976  0.29188  1.0000
  C   C16       1.0  0.98410  0.38024  0.79188  1.0000
  C   C17       1.0  0.95676  0.53916  0.33815  1.0000
  C   C18       1.0  0.54324  0.96084  0.83815  1.0000
  C   C19       1.0  0.45677  0.96084  0.66185  1.0000
  C   C20       1.0  0.04324  0.53916  0.16185  1.0000
  C   C21       1.0  0.04325  0.46084  0.66185  1.0000
  C   C22       1.0  0.45675  0.03916  0.16185  1.0000
  C   C23       1.0  0.54323  0.03916  0.33815  1.0000
  C   C24       1.0  0.95676  0.46084  0.83815  1.0000
  C   C25       1.0  0.06467  0.46087  0.29246  1.0000
  C   C26       1.0  0.43532  0.03913  0.79246  1.0000
  C   C27       1.0  0.56467  0.03913  0.70754  1.0000
  C   C28       1.0  0.93532  0.46087  0.20754  1.0000
  C   C29       1.0  0.93533  0.53913  0.70754  1.0000
  C   C30       1.0  0.56467  0.96087  0.20754  1.0000
  C   C31       1.0  0.43532  0.96087  0.29247  1.0000
  C   C32       1.0  0.06468  0.53913  0.79246  1.0000
  I   I1        1.0  0.95860  0.87111  0.48163  1.0000
  I   I2        1.0  0.54140  0.62889  0.98163  1.0000
  I   I3        1.0  0.45859  0.62889  0.51837  1.0000
  I   I4        1.0  0.04140  0.87111  0.01837  1.0000
  I   I5        1.0  0.04140  0.12889  0.51837  1.0000
  I   I6        1.0  0.45859  0.37111  0.01837  1.0000
  I   I7        1.0  0.54141  0.37111  0.48163  1.0000
  I   I8        1.0  0.95860  0.12889  0.98164  1.0000
  N   N1        1.0  0.97234  0.69332  0.33337  1.0000
  N   N2        1.0  0.52767  0.80668  0.83337  1.0000
  N   N3        1.0  0.47235  0.80669  0.66663  1.0000
  N   N4        1.0  0.02766  0.69332  0.16663  1.0000
  N   N5        1.0  0.02766  0.30669  0.66663  1.0000
  N   N6        1.0  0.47234  0.19331  0.16664  1.0000
  N   N7        1.0  0.52766  0.19332  0.33337  1.0000
  N   N8        1.0  0.97233  0.30668  0.83337  1.0000
