data_image0
_chemical_formula_structural       Ba4H8C24N8O16
_chemical_formula_sum              "Ba4 H8 C24 N8 O16"
_cell_length_a       7.01723
_cell_length_b       9.19776
_cell_length_c       11.7317
_cell_angle_alpha    89.9999
_cell_angle_beta     103.211
_cell_angle_gamma    90.0005

_space_group_name_H-M_alt    "P 1"
_space_group_IT_number       1

loop_
  _space_group_symop_operation_xyz
  'x, y, z'

loop_
  _atom_site_type_symbol
  _atom_site_label
  _atom_site_symmetry_multiplicity
  _atom_site_fract_x
  _atom_site_fract_y
  _atom_site_fract_z
  _atom_site_occupancy
  Ba  Ba1       1.0  0.47372  0.89084  0.13946  1.0000
  Ba  Ba2       1.0  0.02628  0.39085  0.86054  1.0000
  Ba  Ba3       1.0  0.52628  0.10916  0.86054  1.0000
  Ba  Ba4       1.0  0.97372  0.60916  0.13946  1.0000
  H   H1        1.0  0.65846  0.04092  0.43661  1.0000
  H   H2        1.0  0.84154  0.54092  0.56339  1.0000
  H   H3        1.0  0.34154  0.95908  0.56339  1.0000
  H   H4        1.0  0.15846  0.45908  0.43661  1.0000
  H   H5        1.0  0.75229  0.26872  0.55205  1.0000
  H   H6        1.0  0.74771  0.76872  0.44795  1.0000
  H   H7        1.0  0.24771  0.73128  0.44795  1.0000
  H   H8        1.0  0.25229  0.23128  0.55205  1.0000
  C   C1        1.0  0.61574  0.14674  0.39680  1.0000
  C   C2        1.0  0.88426  0.64674  0.60320  1.0000
  C   C3        1.0  0.38426  0.85326  0.60320  1.0000
  C   C4        1.0  0.11574  0.35326  0.39680  1.0000
  C   C5        1.0  0.67267  0.27366  0.46065  1.0000
  C   C6        1.0  0.82733  0.77366  0.53935  1.0000
  C   C7        1.0  0.32733  0.72634  0.53935  1.0000
  C   C8        1.0  0.17267  0.22634  0.46065  1.0000
  C   C9        1.0  0.52890  0.41108  0.30176  1.0000
  C   C10       1.0  0.97110  0.91108  0.69823  1.0000
  C   C11       1.0  0.47110  0.58892  0.69824  1.0000
  C   C12       1.0  0.02890  0.08892  0.30177  1.0000
  C   C13       1.0  0.46485  0.28339  0.23772  1.0000
  C   C14       1.0  0.03515  0.78340  0.76228  1.0000
  C   C15       1.0  0.53515  0.71661  0.76228  1.0000
  C   C16       1.0  0.96485  0.21660  0.23772  1.0000
  C   C17       1.0  0.49701  0.56137  0.24824  1.0000
  C   C18       1.0  0.00299  0.06137  0.75175  1.0000
  C   C19       1.0  0.50299  0.43863  0.75176  1.0000
  C   C20       1.0  0.99701  0.93863  0.24825  1.0000
  C   C21       1.0  0.34219  0.29171  0.11361  1.0000
  C   C22       1.0  0.15781  0.79171  0.88638  1.0000
  C   C23       1.0  0.65781  0.70829  0.88639  1.0000
  C   C24       1.0  0.84219  0.20828  0.11362  1.0000
  N   N1        1.0  0.51252  0.15190  0.28549  1.0000
  N   N2        1.0  0.98748  0.65191  0.71451  1.0000
  N   N3        1.0  0.48748  0.84810  0.71451  1.0000
  N   N4        1.0  0.01252  0.34809  0.28549  1.0000
  N   N5        1.0  0.63272  0.40565  0.41305  1.0000
  N   N6        1.0  0.86728  0.90564  0.58695  1.0000
  N   N7        1.0  0.36728  0.59435  0.58695  1.0000
  N   N8        1.0  0.13272  0.09436  0.41305  1.0000
  O   O1        1.0  0.36364  0.64153  0.27167  1.0000
  O   O2        1.0  0.13635  0.14153  0.72833  1.0000
  O   O3        1.0  0.63636  0.35847  0.72833  1.0000
  O   O4        1.0  0.86364  0.85847  0.27167  1.0000
  O   O5        1.0  0.61588  0.60014  0.18730  1.0000
  O   O6        1.0  0.88412  0.10014  0.81270  1.0000
  O   O7        1.0  0.38412  0.39985  0.81270  1.0000
  O   O8        1.0  0.11587  0.89986  0.18730  1.0000
  O   O9        1.0  0.33717  0.18347  0.04596  1.0000
  O   O10       1.0  0.16283  0.68348  0.95404  1.0000
  O   O11       1.0  0.66283  0.81653  0.95404  1.0000
  O   O12       1.0  0.83717  0.31652  0.04596  1.0000
  O   O13       1.0  0.24988  0.41004  0.08627  1.0000
  O   O14       1.0  0.25012  0.91004  0.91372  1.0000
  O   O15       1.0  0.75012  0.58996  0.91373  1.0000
  O   O16       1.0  0.74987  0.08996  0.08628  1.0000
