data_image0
_chemical_formula_structural       Ag2H4C24Br4N8
_chemical_formula_sum              "Ag2 H4 C24 Br4 N8"
_cell_length_a       7.54449
_cell_length_b       7.75091
_cell_length_c       11.8424
_cell_angle_alpha    82.7554
_cell_angle_beta     70.4896
_cell_angle_gamma    65.1851

_space_group_name_H-M_alt    "P 1"
_space_group_IT_number       1

loop_
  _space_group_symop_operation_xyz
  'x, y, z'

loop_
  _atom_site_type_symbol
  _atom_site_label
  _atom_site_symmetry_multiplicity
  _atom_site_fract_x
  _atom_site_fract_y
  _atom_site_fract_z
  _atom_site_occupancy
  Ag  Ag1       1.0  0.30136  0.98420  0.48196  1.0000
  Ag  Ag2       1.0  0.69867  0.01578  0.51803  1.0000
  H   H1        1.0  0.21994  0.81376  0.12175  1.0000
  H   H2        1.0  0.78003  0.18627  0.87824  1.0000
  H   H3        1.0  0.27818  0.25060  0.93402  1.0000
  H   H4        1.0  0.72182  0.74939  0.06598  1.0000
  C   C1        1.0  0.22507  0.53070  0.15481  1.0000
  C   C2        1.0  0.77491  0.46931  0.84519  1.0000
  C   C3        1.0  0.20615  0.54089  0.27882  1.0000
  C   C4        1.0  0.79386  0.45911  0.72118  1.0000
  C   C5        1.0  0.23691  0.37443  0.09567  1.0000
  C   C6        1.0  0.76308  0.62557  0.90433  1.0000
  C   C7        1.0  0.23359  0.68861  0.08101  1.0000
  C   C8        1.0  0.76638  0.31141  0.91900  1.0000
  C   C9        1.0  0.26823  0.37435  0.97440  1.0000
  C   C10       1.0  0.73177  0.62565  0.02560  1.0000
  C   C11       1.0  0.28416  0.52969  0.89990  1.0000
  C   C12       1.0  0.71583  0.47031  0.10010  1.0000
  C   C13       1.0  0.25929  0.69033  0.96014  1.0000
  C   C14       1.0  0.74067  0.30968  0.03987  1.0000
  C   C15       1.0  0.32107  0.51307  0.77414  1.0000
  C   C16       1.0  0.67892  0.48693  0.22586  1.0000
  C   C17       1.0  0.32022  0.65487  0.68721  1.0000
  C   C18       1.0  0.67979  0.34511  0.31278  1.0000
  C   C19       1.0  0.17584  0.71151  0.32770  1.0000
  C   C20       1.0  0.82419  0.28849  0.67228  1.0000
  C   C21       1.0  0.35058  0.34192  0.72667  1.0000
  C   C22       1.0  0.64942  0.65807  0.27333  1.0000
  C   C23       1.0  0.21585  0.39209  0.36078  1.0000
  C   C24       1.0  0.78415  0.60792  0.63924  1.0000
  Br  Br1       1.0  0.20161  0.16135  0.18113  1.0000
  Br  Br2       1.0  0.79838  0.83866  0.81888  1.0000
  Br  Br3       1.0  0.26252  0.91330  0.87497  1.0000
  Br  Br4       1.0  0.73743  0.08671  0.12503  1.0000
  N   N1        1.0  0.14669  0.85471  0.36903  1.0000
  N   N2        1.0  0.85333  0.14528  0.63097  1.0000
  N   N3        1.0  0.37900  0.19904  0.68521  1.0000
  N   N4        1.0  0.62103  0.80095  0.31478  1.0000
  N   N5        1.0  0.32282  0.75668  0.60538  1.0000
  N   N6        1.0  0.67721  0.24331  0.39461  1.0000
  N   N7        1.0  0.22808  0.27398  0.43372  1.0000
  N   N8        1.0  0.77197  0.72600  0.56628  1.0000
