data_image0
_chemical_formula_structural       Cu2H16C24N4O8
_chemical_formula_sum              "Cu2 H16 C24 N4 O8"
_cell_length_a       8.9885
_cell_length_b       8.25534
_cell_length_c       9.73973
_cell_angle_alpha    115.221
_cell_angle_beta     97.5809
_cell_angle_gamma    103.013

_space_group_name_H-M_alt    "P 1"
_space_group_IT_number       1

loop_
  _space_group_symop_operation_xyz
  'x, y, z'

loop_
  _atom_site_type_symbol
  _atom_site_label
  _atom_site_symmetry_multiplicity
  _atom_site_fract_x
  _atom_site_fract_y
  _atom_site_fract_z
  _atom_site_occupancy
  Cu  Cu1       1.0  0.28046  0.02171  0.18346  1.0000
  Cu  Cu2       1.0  0.71954  0.97828  0.81654  1.0000
  H   H1        1.0  0.59019  0.33879  0.29505  1.0000
  H   H2        1.0  0.40981  0.66121  0.70495  1.0000
  H   H3        1.0  0.79081  0.55420  0.55801  1.0000
  H   H4        1.0  0.20919  0.44581  0.44199  1.0000
  H   H5        1.0  0.74196  0.52399  0.79123  1.0000
  H   H6        1.0  0.25803  0.47602  0.20877  1.0000
  H   H7        1.0  0.50374  0.27284  0.76018  1.0000
  H   H8        1.0  0.49625  0.72716  0.23981  1.0000
  H   H9        1.0  0.29094  0.06230  0.71148  1.0000
  H   H10       1.0  0.70906  0.93770  0.28852  1.0000
  H   H11       1.0  0.04304  0.79764  0.62926  1.0000
  H   H12       1.0  0.95697  0.20235  0.37074  1.0000
  H   H13       1.0  0.89742  0.60937  0.34056  1.0000
  H   H14       1.0  0.10259  0.39062  0.65945  1.0000
  H   H15       1.0  0.00251  0.70717  0.15185  1.0000
  H   H16       1.0  0.99749  0.29282  0.84815  1.0000
  C   C1        1.0  0.57687  0.32921  0.40115  1.0000
  C   C2        1.0  0.42313  0.67079  0.59885  1.0000
  C   C3        1.0  0.68631  0.44733  0.54561  1.0000
  C   C4        1.0  0.31368  0.55268  0.45440  1.0000
  C   C5        1.0  0.65867  0.42989  0.67693  1.0000
  C   C6        1.0  0.34132  0.57012  0.32307  1.0000
  C   C7        1.0  0.52416  0.29285  0.65975  1.0000
  C   C8        1.0  0.47582  0.70715  0.34025  1.0000
  C   C9        1.0  0.41945  0.17775  0.51064  1.0000
  C   C10       1.0  0.58054  0.82224  0.48935  1.0000
  C   C11       1.0  0.27509  0.02496  0.47592  1.0000
  C   C12       1.0  0.72491  0.97503  0.52407  1.0000
  C   C13       1.0  0.22334  0.98140  0.58885  1.0000
  C   C14       1.0  0.77666  0.01859  0.41114  1.0000
  C   C15       1.0  0.08587  0.83172  0.54188  1.0000
  C   C16       1.0  0.91413  0.16828  0.45812  1.0000
  C   C17       1.0  0.00404  0.72927  0.38335  1.0000
  C   C18       1.0  0.99596  0.27073  0.61665  1.0000
  C   C19       1.0  0.06139  0.78096  0.27693  1.0000
  C   C20       1.0  0.93861  0.21904  0.72307  1.0000
  C   C21       1.0  0.47582  0.08076  0.99019  1.0000
  C   C22       1.0  0.52419  0.91923  0.00981  1.0000
  C   C23       1.0  0.00555  0.90237  0.94118  1.0000
  C   C24       1.0  0.99445  0.09765  0.05882  1.0000
  N   N1        1.0  0.44637  0.19866  0.38457  1.0000
  N   N2        1.0  0.55363  0.80134  0.61543  1.0000
  N   N3        1.0  0.19301  0.92536  0.32249  1.0000
  N   N4        1.0  0.80699  0.07463  0.67751  1.0000
  O   O1        1.0  0.37521  0.14245  0.06224  1.0000
  O   O2        1.0  0.62480  0.85755  0.93776  1.0000
  O   O3        1.0  0.10840  0.84049  0.98980  1.0000
  O   O4        1.0  0.89160  0.15953  0.01020  1.0000
  O   O5        1.0  0.53787  0.14140  0.90630  1.0000
  O   O6        1.0  0.46214  0.85860  0.09370  1.0000
  O   O7        1.0  0.08688  0.18390  0.19373  1.0000
  O   O8        1.0  0.91313  0.81612  0.80628  1.0000
