data_image0
_chemical_formula_structural       Ag2H4C24N8Cl4
_chemical_formula_sum              "Ag2 H4 C24 N8 Cl4"
_cell_length_a       3.53104
_cell_length_b       6.78099
_cell_length_c       22.6446
_cell_angle_alpha    90.6402
_cell_angle_beta     89.9996
_cell_angle_gamma    89.9988

_space_group_name_H-M_alt    "P 1"
_space_group_IT_number       1

loop_
  _space_group_symop_operation_xyz
  'x, y, z'

loop_
  _atom_site_type_symbol
  _atom_site_label
  _atom_site_symmetry_multiplicity
  _atom_site_fract_x
  _atom_site_fract_y
  _atom_site_fract_z
  _atom_site_occupancy
  Ag  Ag1       1.0  0.59303  0.99999  0.75000  1.0000
  Ag  Ag2       1.0  0.40697  0.00001  0.24999  1.0000
  H   H1        1.0  0.76864  0.20002  0.04937  1.0000
  H   H2        1.0  0.76865  0.79996  0.45063  1.0000
  H   H3        1.0  0.23135  0.79997  0.95064  1.0000
  H   H4        1.0  0.23137  0.20004  0.54937  1.0000
  C   C1        1.0  0.01326  0.50453  0.93610  1.0000
  C   C2        1.0  0.01326  0.49548  0.56389  1.0000
  C   C3        1.0  0.98673  0.49546  0.06390  1.0000
  C   C4        1.0  0.98677  0.50453  0.43610  1.0000
  C   C5        1.0  0.03599  0.52096  0.87323  1.0000
  C   C6        1.0  0.03596  0.47906  0.62677  1.0000
  C   C7        1.0  0.96401  0.47903  0.12677  1.0000
  C   C8        1.0  0.96404  0.52095  0.37323  1.0000
  C   C9        1.0  0.87951  0.33598  0.96731  1.0000
  C   C10       1.0  0.87950  0.66401  0.53270  1.0000
  C   C11       1.0  0.12048  0.66401  0.03269  1.0000
  C   C12       1.0  0.12052  0.33600  0.46730  1.0000
  C   C13       1.0  0.92694  0.37772  0.83108  1.0000
  C   C14       1.0  0.92706  0.62233  0.66891  1.0000
  C   C15       1.0  0.07305  0.62228  0.16892  1.0000
  C   C16       1.0  0.07296  0.37768  0.33109  1.0000
  C   C17       1.0  0.86881  0.33325  0.02802  1.0000
  C   C18       1.0  0.86881  0.66675  0.47196  1.0000
  C   C19       1.0  0.13116  0.66673  0.97198  1.0000
  C   C20       1.0  0.13119  0.33325  0.52803  1.0000
  C   C21       1.0  0.17455  0.69618  0.84822  1.0000
  C   C22       1.0  0.17447  0.30382  0.65179  1.0000
  C   C23       1.0  0.82544  0.30381  0.15178  1.0000
  C   C24       1.0  0.82553  0.69619  0.34821  1.0000
  N   N1        1.0  0.84572  0.26960  0.79240  1.0000
  N   N2        1.0  0.84591  0.73048  0.70760  1.0000
  N   N3        1.0  0.15428  0.73039  0.20760  1.0000
  N   N4        1.0  0.15409  0.26953  0.29240  1.0000
  N   N5        1.0  0.28377  0.84241  0.82691  1.0000
  N   N6        1.0  0.28373  0.15761  0.67309  1.0000
  N   N7        1.0  0.71623  0.15759  0.17309  1.0000
  N   N8        1.0  0.71627  0.84240  0.32691  1.0000
  Cl  Cl1       1.0  0.73187  0.12802  0.92953  1.0000
  Cl  Cl2       1.0  0.73187  0.87199  0.57046  1.0000
  Cl  Cl3       1.0  0.26813  0.87197  0.07047  1.0000
  Cl  Cl4       1.0  0.26815  0.12801  0.42954  1.0000
