data_image0
_chemical_formula_structural       Cu2H32C16S4Cl4O4
_chemical_formula_sum              "Cu2 H32 C16 S4 Cl4 O4"
_cell_length_a       7.86228
_cell_length_b       7.86225
_cell_length_c       10.6804
_cell_angle_alpha    89.9999
_cell_angle_beta     89.9999
_cell_angle_gamma    104.725

_space_group_name_H-M_alt    "P 1"
_space_group_IT_number       1

loop_
  _space_group_symop_operation_xyz
  'x, y, z'

loop_
  _atom_site_type_symbol
  _atom_site_label
  _atom_site_symmetry_multiplicity
  _atom_site_fract_x
  _atom_site_fract_y
  _atom_site_fract_z
  _atom_site_occupancy
  Cu  Cu1       1.0  1.00000  1.00000  1.00000  1.0000
  Cu  Cu2       1.0  0.50000  0.50000  0.50000  1.0000
  H   H1        1.0  0.10364  0.32278  0.22173  1.0000
  H   H2        1.0  0.67722  0.89636  0.77827  1.0000
  H   H3        1.0  0.39635  0.17721  0.72173  1.0000
  H   H4        1.0  0.82279  0.60365  0.27827  1.0000
  H   H5        1.0  0.89636  0.67722  0.77827  1.0000
  H   H6        1.0  0.32278  0.10364  0.22173  1.0000
  H   H7        1.0  0.60365  0.82279  0.27827  1.0000
  H   H8        1.0  0.17722  0.39635  0.72173  1.0000
  H   H9        1.0  0.09316  0.45977  0.08983  1.0000
  H   H10       1.0  0.54023  0.90684  0.91017  1.0000
  H   H11       1.0  0.40684  0.04023  0.58983  1.0000
  H   H12       1.0  0.95978  0.59316  0.41017  1.0000
  H   H13       1.0  0.90683  0.54023  0.91017  1.0000
  H   H14       1.0  0.45977  0.09316  0.08983  1.0000
  H   H15       1.0  0.59317  0.95977  0.41017  1.0000
  H   H16       1.0  0.04023  0.40684  0.58983  1.0000
  H   H17       1.0  0.29991  0.62331  0.25386  1.0000
  H   H18       1.0  0.37668  0.70009  0.74613  1.0000
  H   H19       1.0  0.20008  0.87668  0.75386  1.0000
  H   H20       1.0  0.12332  0.79992  0.24614  1.0000
  H   H21       1.0  0.70008  0.37668  0.74614  1.0000
  H   H22       1.0  0.62332  0.29991  0.25387  1.0000
  H   H23       1.0  0.79992  0.12332  0.24614  1.0000
  H   H24       1.0  0.87668  0.20008  0.75386  1.0000
  H   H25       1.0  0.41229  0.60707  0.11013  1.0000
  H   H26       1.0  0.39293  0.58771  0.88987  1.0000
  H   H27       1.0  0.08770  0.89292  0.61012  1.0000
  H   H28       1.0  0.10708  0.91230  0.38988  1.0000
  H   H29       1.0  0.58770  0.39293  0.88987  1.0000
  H   H30       1.0  0.60707  0.41229  0.11013  1.0000
  H   H31       1.0  0.91230  0.10708  0.38988  1.0000
  H   H32       1.0  0.89292  0.08770  0.61012  1.0000
  C   C1        1.0  0.17849  0.39612  0.14354  1.0000
  C   C2        1.0  0.60388  0.82151  0.85646  1.0000
  C   C3        1.0  0.32150  0.10388  0.64354  1.0000
  C   C4        1.0  0.89612  0.67850  0.35646  1.0000
  C   C5        1.0  0.82151  0.60388  0.85646  1.0000
  C   C6        1.0  0.39612  0.17849  0.14354  1.0000
  C   C7        1.0  0.67850  0.89612  0.35646  1.0000
  C   C8        1.0  0.10388  0.32150  0.64354  1.0000
  C   C9        1.0  0.34041  0.53197  0.18959  1.0000
  C   C10       1.0  0.46803  0.65959  0.81041  1.0000
  C   C11       1.0  0.15959  0.96804  0.68959  1.0000
  C   C12       1.0  0.03197  0.84041  0.31041  1.0000
  C   C13       1.0  0.65959  0.46803  0.81041  1.0000
  C   C14       1.0  0.53197  0.34041  0.18959  1.0000
  C   C15       1.0  0.84041  0.03197  0.31041  1.0000
  C   C16       1.0  0.96804  0.15959  0.68959  1.0000
  S   S1        1.0  0.24199  0.24200  0.03830  1.0000
  S   S2        1.0  0.75800  0.75800  0.96170  1.0000
  S   S3        1.0  0.25800  0.25800  0.53830  1.0000
  S   S4        1.0  0.74200  0.74200  0.46170  1.0000
  Cl  Cl1       1.0  0.18221  0.81779  1.00000  1.0000
  Cl  Cl2       1.0  0.31779  0.68222  0.50000  1.0000
  Cl  Cl3       1.0  0.81779  0.18221  0.00000  1.0000
  Cl  Cl4       1.0  0.68221  0.31779  0.50000  1.0000
  O   O1        1.0  0.95630  0.95630  0.23864  1.0000
  O   O2        1.0  0.04371  0.04370  0.76136  1.0000
  O   O3        1.0  0.54370  0.54371  0.73863  1.0000
  O   O4        1.0  0.45629  0.45629  0.26137  1.0000
