data_image0
_chemical_formula_structural       Cu2H20C24N20
_chemical_formula_sum              "Cu2 H20 C24 N20"
_cell_length_a       7.29665
_cell_length_b       9.29909
_cell_length_c       9.95949
_cell_angle_alpha    90.0007
_cell_angle_beta     91.9096
_cell_angle_gamma    89.9998

_space_group_name_H-M_alt    "P 1"
_space_group_IT_number       1

loop_
  _space_group_symop_operation_xyz
  'x, y, z'

loop_
  _atom_site_type_symbol
  _atom_site_label
  _atom_site_symmetry_multiplicity
  _atom_site_fract_x
  _atom_site_fract_y
  _atom_site_fract_z
  _atom_site_occupancy
  Cu  Cu1       1.0  0.73431  0.55578  0.39043  1.0000
  Cu  Cu2       1.0  0.26569  0.05578  0.60957  1.0000
  H   H1        1.0  0.36104  0.40666  0.32962  1.0000
  H   H2        1.0  0.63896  0.90666  0.67038  1.0000
  H   H3        1.0  0.17501  0.35488  0.12603  1.0000
  H   H4        1.0  0.82499  0.85489  0.87397  1.0000
  H   H5        1.0  0.30732  0.41187  0.89663  1.0000
  H   H6        1.0  0.69269  0.91188  0.10337  1.0000
  H   H7        1.0  0.61030  0.52662  0.89099  1.0000
  H   H8        1.0  0.38970  0.02664  0.10901  1.0000
  H   H9        1.0  0.88806  0.59371  0.90285  1.0000
  H   H10       1.0  0.11194  0.09372  0.09716  1.0000
  H   H11       1.0  0.17956  0.72485  0.93294  1.0000
  H   H12       1.0  0.82044  0.22487  0.06706  1.0000
  H   H13       1.0  0.29234  0.78896  0.16980  1.0000
  H   H14       1.0  0.70766  0.28896  0.83020  1.0000
  H   H15       1.0  0.10191  0.71587  0.36156  1.0000
  H   H16       1.0  0.89808  0.21587  0.63844  1.0000
  H   H17       1.0  0.59554  0.21106  0.40687  1.0000
  H   H18       1.0  0.40447  0.71107  0.59313  1.0000
  H   H19       1.0  0.09017  0.44550  0.57753  1.0000
  H   H20       1.0  0.90984  0.94550  0.42247  1.0000
  C   C1        1.0  0.41589  0.42903  0.23142  1.0000
  C   C2        1.0  0.58410  0.92903  0.76858  1.0000
  C   C3        1.0  0.31175  0.39917  0.11526  1.0000
  C   C4        1.0  0.68825  0.89918  0.88474  1.0000
  C   C5        1.0  0.38299  0.43199  0.99090  1.0000
  C   C6        1.0  0.61701  0.93200  0.00910  1.0000
  C   C7        1.0  0.55564  0.49542  0.98721  1.0000
  C   C8        1.0  0.44436  0.99544  0.01279  1.0000
  C   C9        1.0  0.65465  0.52050  0.10761  1.0000
  C   C10       1.0  0.34535  0.02051  0.89238  1.0000
  C   C11       1.0  0.83515  0.59029  0.11554  1.0000
  C   C12       1.0  0.16485  0.09030  0.88446  1.0000
  C   C13       1.0  0.93644  0.62438  0.00335  1.0000
  C   C14       1.0  0.06356  0.12440  0.99664  1.0000
  C   C15       1.0  0.10117  0.69859  0.02086  1.0000
  C   C16       1.0  0.89883  0.19860  0.97914  1.0000
  C   C17       1.0  0.16246  0.73422  0.15052  1.0000
  C   C18       1.0  0.83754  0.23423  0.84949  1.0000
  C   C19       1.0  0.05755  0.69325  0.25835  1.0000
  C   C20       1.0  0.94245  0.19325  0.74165  1.0000
  C   C21       1.0  0.56264  0.27725  0.49257  1.0000
  C   C22       1.0  0.43736  0.77725  0.50743  1.0000
  C   C23       1.0  0.04461  0.55298  0.60282  1.0000
  C   C24       1.0  0.95539  0.05298  0.39717  1.0000
  N   N1        1.0  0.58435  0.48601  0.22773  1.0000
  N   N2        1.0  0.41565  0.98602  0.77227  1.0000
  N   N3        1.0  0.89776  0.62348  0.24152  1.0000
  N   N4        1.0  0.10223  0.12348  0.75848  1.0000
  N   N5        1.0  0.62104  0.41262  0.51418  1.0000
  N   N6        1.0  0.37896  0.91262  0.48582  1.0000
  N   N7        1.0  0.54924  0.45554  0.63154  1.0000
  N   N8        1.0  0.45076  0.95554  0.36846  1.0000
  N   N9        1.0  0.45095  0.34958  0.67792  1.0000
  N   N10       1.0  0.54905  0.84958  0.32208  1.0000
  N   N11       1.0  0.45706  0.23616  0.59254  1.0000
  N   N12       1.0  0.54293  0.73616  0.40745  1.0000
  N   N13       1.0  0.90764  0.62256  0.53620  1.0000
  N   N14       1.0  0.09236  0.12256  0.46380  1.0000
  N   N15       1.0  0.89649  0.75424  0.59277  1.0000
  N   N16       1.0  0.10351  0.25424  0.40724  1.0000
  N   N17       1.0  0.02276  0.76220  0.69030  1.0000
  N   N18       1.0  0.97724  0.26220  0.30970  1.0000
  N   N19       1.0  0.11834  0.63703  0.69927  1.0000
  N   N20       1.0  0.88166  0.13702  0.30073  1.0000
