data_image0
_chemical_formula_structural       Er2H40C42N8O18
_chemical_formula_sum              "Er2 H40 C42 N8 O18"
_cell_length_a       9.83293
_cell_length_b       11.6712
_cell_length_c       13.404
_cell_angle_alpha    66.8643
_cell_angle_beta     86.9711
_cell_angle_gamma    76.6977

_space_group_name_H-M_alt    "P 1"
_space_group_IT_number       1

loop_
  _space_group_symop_operation_xyz
  'x, y, z'

loop_
  _atom_site_type_symbol
  _atom_site_label
  _atom_site_symmetry_multiplicity
  _atom_site_fract_x
  _atom_site_fract_y
  _atom_site_fract_z
  _atom_site_occupancy
  Er  Er1       1.0  0.76344  0.47232  0.49673  1.0000
  Er  Er2       1.0  0.23654  0.52768  0.50330  1.0000
  H   H1        1.0  0.70588  0.16866  0.83134  1.0000
  H   H2        1.0  0.29411  0.83133  0.16865  1.0000
  H   H3        1.0  0.55157  0.99383  0.18494  1.0000
  H   H4        1.0  0.44844  0.00615  0.81505  1.0000
  H   H5        1.0  0.94679  0.22524  0.54431  1.0000
  H   H6        1.0  0.05319  0.77477  0.45568  1.0000
  H   H7        1.0  0.03662  0.29738  0.58644  1.0000
  H   H8        1.0  0.96333  0.70263  0.41356  1.0000
  H   H9        1.0  0.00394  0.87048  0.03833  1.0000
  H   H10       1.0  0.99604  0.12949  0.96164  1.0000
  H   H11       1.0  0.96320  0.74573  0.23189  1.0000
  H   H12       1.0  0.03680  0.25427  0.76809  1.0000
  H   H13       1.0  0.51150  0.60749  0.55896  1.0000
  H   H14       1.0  0.48848  0.39255  0.44103  1.0000
  H   H15       1.0  0.59701  0.71096  0.49025  1.0000
  H   H16       1.0  0.40297  0.28906  0.50974  1.0000
  H   H17       1.0  0.26942  0.30618  0.99161  1.0000
  H   H18       1.0  0.73058  0.69379  0.00841  1.0000
  H   H19       1.0  0.29570  0.41786  0.79145  1.0000
  H   H20       1.0  0.70430  0.58215  0.20857  1.0000
  H   H21       1.0  0.25851  0.56282  0.23989  1.0000
  H   H22       1.0  0.74148  0.43717  0.76016  1.0000
  H   H23       1.0  0.32908  0.60236  0.04863  1.0000
  H   H24       1.0  0.67093  0.39762  0.95141  1.0000
  H   H25       1.0  0.89850  0.45265  0.16729  1.0000
  H   H26       1.0  0.10151  0.54735  0.83272  1.0000
  H   H27       1.0  0.75740  0.36589  0.29319  1.0000
  H   H28       1.0  0.24259  0.63414  0.70681  1.0000
  H   H29       1.0  0.58347  0.20959  0.20175  1.0000
  H   H30       1.0  0.41658  0.79042  0.79821  1.0000
  H   H31       1.0  0.71972  0.29567  0.17469  1.0000
  H   H32       1.0  0.28030  0.70436  0.82528  1.0000
  H   H33       1.0  0.76200  0.12498  0.22423  1.0000
  H   H34       1.0  0.23805  0.87505  0.77573  1.0000
  H   H35       1.0  0.65602  0.01405  0.40249  1.0000
  H   H36       1.0  0.34398  0.98598  0.59746  1.0000
  H   H37       1.0  0.68798  0.07412  0.50228  1.0000
  H   H38       1.0  0.31209  0.92586  0.49769  1.0000
  H   H39       1.0  0.52225  0.12678  0.43248  1.0000
  H   H40       1.0  0.47778  0.87323  0.56752  1.0000
  C   C1        1.0  0.71831  0.78628  0.33841  1.0000
  C   C2        1.0  0.28170  0.21371  0.66158  1.0000
  C   C3        1.0  0.75312  0.86042  0.22374  1.0000
  C   C4        1.0  0.24689  0.13956  0.77625  1.0000
  C   C5        1.0  0.60768  0.20180  0.86362  1.0000
  C   C6        1.0  0.39231  0.79820  0.13637  1.0000
  C   C7        1.0  0.65343  0.96433  0.15558  1.0000
  C   C8        1.0  0.34657  0.03566  0.84441  1.0000
  C   C9        1.0  0.68555  0.02963  0.04790  1.0000
  C   C10       1.0  0.31445  0.97035  0.95209  1.0000
  C   C11       1.0  0.90397  0.89506  0.07307  1.0000
  C   C12       1.0  0.09602  0.10492  0.92691  1.0000
  C   C13       1.0  0.88171  0.82513  0.18155  1.0000
  C   C14       1.0  0.11830  0.17485  0.81844  1.0000
  C   C15       1.0  0.58174  0.14122  0.97377  1.0000
  C   C16       1.0  0.41826  0.85876  0.02623  1.0000
  C   C17       1.0  0.36479  0.27759  0.95331  1.0000
  C   C18       1.0  0.63521  0.72239  0.04670  1.0000
  C   C19       1.0  0.37964  0.34145  0.84239  1.0000
  C   C20       1.0  0.62036  0.65855  0.15762  1.0000
  C   C21       1.0  0.50472  0.30384  0.79700  1.0000
  C   C22       1.0  0.49528  0.69617  0.20300  1.0000
  C   C23       1.0  0.02048  0.48481  0.32996  1.0000
  C   C24       1.0  0.97951  0.51518  0.67007  1.0000
  C   C25       1.0  0.07242  0.50447  0.21836  1.0000
  C   C26       1.0  0.92757  0.49552  0.78167  1.0000
  C   C27       1.0  0.19569  0.54641  0.18452  1.0000
  C   C28       1.0  0.80430  0.45359  0.81551  1.0000
  C   C29       1.0  0.23381  0.56851  0.07787  1.0000
  C   C30       1.0  0.76619  0.43148  0.92218  1.0000
  C   C31       1.0  0.04113  0.50966  0.03968  1.0000
  C   C32       1.0  0.95888  0.49033  0.96036  1.0000
  C   C33       1.0  0.99478  0.48539  0.14476  1.0000
  C   C34       1.0  0.00522  0.51461  0.85527  1.0000
  C   C35       1.0  0.72370  0.29103  0.36324  1.0000
  C   C36       1.0  0.27629  0.70899  0.63673  1.0000
  C   C37       1.0  0.68745  0.20860  0.22897  1.0000
  C   C38       1.0  0.31259  0.79142  0.77100  1.0000
  C   C39       1.0  0.63545  0.09748  0.42433  1.0000
  C   C40       1.0  0.36457  0.90252  0.57564  1.0000
  C   C41       1.0  0.52688  0.37487  0.67904  1.0000
  C   C42       1.0  0.47309  0.62514  0.32096  1.0000
  N   N1        1.0  0.80917  0.99521  0.00693  1.0000
  N   N2        1.0  0.19082  0.00476  0.99305  1.0000
  N   N3        1.0  0.15937  0.55144  0.00604  1.0000
  N   N4        1.0  0.84065  0.44855  0.99400  1.0000
  N   N5        1.0  0.68523  0.20173  0.34003  1.0000
  N   N6        1.0  0.31479  0.79828  0.65994  1.0000
  N   N7        1.0  0.46283  0.18011  0.01831  1.0000
  N   N8        1.0  0.53717  0.81987  0.98169  1.0000
  O   O1        1.0  0.60773  0.83015  0.37590  1.0000
  O   O2        1.0  0.39228  0.16986  0.62408  1.0000
  O   O3        1.0  0.80504  0.67917  0.39167  1.0000
  O   O4        1.0  0.19496  0.32083  0.60834  1.0000
  O   O5        1.0  0.90084  0.45935  0.35128  1.0000
  O   O6        1.0  0.09912  0.54066  0.64872  1.0000
  O   O7        1.0  0.72412  0.29227  0.45680  1.0000
  O   O8        1.0  0.27586  0.70773  0.54320  1.0000
  O   O9        1.0  0.94126  0.28290  0.58123  1.0000
  O   O10       1.0  0.05870  0.71710  0.41877  1.0000
  O   O11       1.0  0.64853  0.35623  0.64396  1.0000
  O   O12       1.0  0.35145  0.64379  0.35604  1.0000
  O   O13       1.0  0.09749  0.49709  0.39599  1.0000
  O   O14       1.0  0.90251  0.50287  0.60404  1.0000
  O   O15       1.0  0.60504  0.62503  0.55269  1.0000
  O   O16       1.0  0.39495  0.37499  0.44730  1.0000
  O   O17       1.0  0.42082  0.45576  0.62145  1.0000
  O   O18       1.0  0.57917  0.54425  0.37856  1.0000
