data_image0
_chemical_formula_structural       Cu2H30C54I2N6
_chemical_formula_sum              "Cu2 H30 C54 I2 N6"
_cell_length_a       9.71559
_cell_length_b       9.94526
_cell_length_c       15.1514
_cell_angle_alpha    107.041
_cell_angle_beta     98.1423
_cell_angle_gamma    98.1391

_space_group_name_H-M_alt    "P 1"
_space_group_IT_number       1

loop_
  _space_group_symop_operation_xyz
  'x, y, z'

loop_
  _atom_site_type_symbol
  _atom_site_label
  _atom_site_symmetry_multiplicity
  _atom_site_fract_x
  _atom_site_fract_y
  _atom_site_fract_z
  _atom_site_occupancy
  Cu  Cu1       1.0  0.08551  0.61674  0.00753  1.0000
  Cu  Cu2       1.0  0.91449  0.38326  0.99247  1.0000
  H   H1        1.0  0.14230  0.79176  0.20564  1.0000
  H   H2        1.0  0.85770  0.20825  0.79436  1.0000
  H   H3        1.0  0.34974  0.94438  0.32886  1.0000
  H   H4        1.0  0.65027  0.05563  0.67114  1.0000
  H   H5        1.0  0.61763  0.80353  0.12804  1.0000
  H   H6        1.0  0.38237  0.19647  0.87196  1.0000
  H   H7        1.0  0.39862  0.65735  0.01411  1.0000
  H   H8        1.0  0.60138  0.34265  0.98589  1.0000
  H   H9        1.0  0.75731  0.95053  0.52488  1.0000
  H   H10       1.0  0.24269  0.04946  0.47511  1.0000
  H   H11       1.0  0.13018  0.27182  0.67708  1.0000
  H   H12       1.0  0.86983  0.72817  0.32291  1.0000
  H   H13       1.0  0.91896  0.27176  0.40590  1.0000
  H   H14       1.0  0.08104  0.72824  0.59410  1.0000
  H   H15       1.0  0.47224  0.61275  0.67715  1.0000
  H   H16       1.0  0.52777  0.38727  0.32286  1.0000
  H   H17       1.0  0.67413  0.79126  0.66765  1.0000
  H   H18       1.0  0.32587  0.20875  0.33235  1.0000
  H   H19       1.0  0.48135  0.78325  0.40432  1.0000
  H   H20       1.0  0.51863  0.21674  0.59568  1.0000
  H   H21       1.0  0.27045  0.60549  0.40186  1.0000
  H   H22       1.0  0.72953  0.39450  0.59816  1.0000
  H   H23       1.0  0.89133  0.67576  0.69193  1.0000
  H   H24       1.0  0.10866  0.32423  0.30808  1.0000
  H   H25       1.0  0.94531  0.54337  0.80641  1.0000
  H   H26       1.0  0.05468  0.45662  0.19359  1.0000
  H   H27       1.0  0.15523  0.91730  0.01531  1.0000
  H   H28       1.0  0.84477  0.08270  0.98469  1.0000
  H   H29       1.0  0.11333  0.06622  0.91012  1.0000
  H   H30       1.0  0.88667  0.93378  0.08988  1.0000
  C   C1        1.0  0.24981  0.79817  0.19186  1.0000
  C   C2        1.0  0.75020  0.20183  0.80814  1.0000
  C   C3        1.0  0.36496  0.88272  0.25981  1.0000
  C   C4        1.0  0.63505  0.11729  0.74019  1.0000
  C   C5        1.0  0.50215  0.88807  0.23878  1.0000
  C   C6        1.0  0.49785  0.11193  0.76122  1.0000
  C   C7        1.0  0.51422  0.80611  0.14793  1.0000
  C   C8        1.0  0.48578  0.19389  0.85207  1.0000
  C   C9        1.0  0.39274  0.72416  0.08440  1.0000
  C   C10       1.0  0.60726  0.27584  0.91560  1.0000
  C   C11       1.0  0.62064  0.96949  0.30937  1.0000
  C   C12       1.0  0.37936  0.03051  0.69063  1.0000
  C   C13       1.0  0.71551  0.03773  0.37604  1.0000
  C   C14       1.0  0.28449  0.96227  0.62396  1.0000
  C   C15       1.0  0.82460  0.10541  0.45652  1.0000
  C   C16       1.0  0.17541  0.89459  0.54348  1.0000
  C   C17       1.0  0.83443  0.04511  0.52964  1.0000
  C   C18       1.0  0.16557  0.95489  0.47036  1.0000
  C   C19       1.0  0.94503  0.10444  0.60864  1.0000
  C   C20       1.0  0.05497  0.89555  0.39136  1.0000
  C   C21       1.0  0.04449  0.22647  0.61585  1.0000
  C   C22       1.0  0.95551  0.77353  0.38415  1.0000
  C   C23       1.0  0.03537  0.28603  0.54206  1.0000
  C   C24       1.0  0.96463  0.71397  0.45793  1.0000
  C   C25       1.0  0.92504  0.22561  0.46280  1.0000
  C   C26       1.0  0.07496  0.77439  0.53720  1.0000
  C   C27       1.0  0.14194  0.40047  0.54402  1.0000
  C   C28       1.0  0.85806  0.59953  0.45599  1.0000
  C   C29       1.0  0.23826  0.49196  0.54197  1.0000
  C   C30       1.0  0.76174  0.50804  0.45804  1.0000
  C   C31       1.0  0.35407  0.59362  0.53975  1.0000
  C   C32       1.0  0.64593  0.40638  0.46027  1.0000
  C   C33       1.0  0.47065  0.64801  0.61546  1.0000
  C   C34       1.0  0.52935  0.35201  0.38455  1.0000
  C   C35       1.0  0.58263  0.74695  0.60978  1.0000
  C   C36       1.0  0.41738  0.25306  0.39022  1.0000
  C   C37       1.0  0.47575  0.74260  0.46361  1.0000
  C   C38       1.0  0.52424  0.25740  0.53640  1.0000
  C   C39       1.0  0.35848  0.64314  0.46185  1.0000
  C   C40       1.0  0.64151  0.35686  0.53816  1.0000
  C   C41       1.0  0.95997  0.03254  0.67639  1.0000
  C   C42       1.0  0.04003  0.96745  0.32361  1.0000
  C   C43       1.0  0.97427  0.96275  0.73000  1.0000
  C   C44       1.0  0.02573  0.03724  0.27000  1.0000
  C   C45       1.0  0.99826  0.88301  0.79191  1.0000
  C   C46       1.0  0.00173  0.11698  0.20809  1.0000
  C   C47       1.0  0.94975  0.73320  0.76324  1.0000
  C   C48       1.0  0.05024  0.26679  0.23677  1.0000
  C   C49       1.0  0.97897  0.65950  0.82633  1.0000
  C   C50       1.0  0.02103  0.34050  0.17367  1.0000
  C   C51       1.0  0.09769  0.86795  0.94290  1.0000
  C   C52       1.0  0.90231  0.13205  0.05710  1.0000
  C   C53       1.0  0.07461  0.95045  0.88476  1.0000
  C   C54       1.0  0.92538  0.04955  0.11524  1.0000
  I   I1        1.0  0.86242  0.62951  0.09265  1.0000
  I   I2        1.0  0.13758  0.37049  0.90735  1.0000
  N   N1        1.0  0.26136  0.71910  0.10492  1.0000
  N   N2        1.0  0.73865  0.28090  0.89508  1.0000
  N   N3        1.0  0.05136  0.72460  0.91537  1.0000
  N   N4        1.0  0.94864  0.27539  0.08464  1.0000
  N   N5        1.0  0.58654  0.79485  0.53591  1.0000
  N   N6        1.0  0.41345  0.20515  0.46409  1.0000
