data_image0
_chemical_formula_structural       Cu4H30C54I4N6
_chemical_formula_sum              "Cu4 H30 C54 I4 N6"
_cell_length_a       10.0108
_cell_length_b       10.6348
_cell_length_c       16.3457
_cell_angle_alpha    100.31
_cell_angle_beta     97.7724
_cell_angle_gamma    117.089

_space_group_name_H-M_alt    "P 1"
_space_group_IT_number       1

loop_
  _space_group_symop_operation_xyz
  'x, y, z'

loop_
  _atom_site_type_symbol
  _atom_site_label
  _atom_site_symmetry_multiplicity
  _atom_site_fract_x
  _atom_site_fract_y
  _atom_site_fract_z
  _atom_site_occupancy
  Cu  Cu1       1.0  0.94842  0.58885  0.02538  1.0000
  Cu  Cu2       1.0  0.05158  0.41115  0.97462  1.0000
  Cu  Cu3       1.0  0.80667  0.93978  0.01672  1.0000
  Cu  Cu4       1.0  0.19333  0.06022  0.98328  1.0000
  H   H1        1.0  0.00214  0.57900  0.20711  1.0000
  H   H2        1.0  0.99785  0.42100  0.79288  1.0000
  H   H3        1.0  0.84198  0.51016  0.31366  1.0000
  H   H4        1.0  0.15801  0.48984  0.68634  1.0000
  H   H5        1.0  0.45929  0.46518  0.12869  1.0000
  H   H6        1.0  0.54072  0.53482  0.87131  1.0000
  H   H7        1.0  0.63746  0.53892  0.03107  1.0000
  H   H8        1.0  0.36254  0.46108  0.96894  1.0000
  H   H9        1.0  0.43585  0.32439  0.47973  1.0000
  H   H10       1.0  0.56415  0.67560  0.52027  1.0000
  H   H11       1.0  0.44290  0.20852  0.73867  1.0000
  H   H12       1.0  0.55710  0.79147  0.26133  1.0000
  H   H13       1.0  0.43327  0.15779  0.87865  1.0000
  H   H14       1.0  0.56673  0.84221  0.12135  1.0000
  H   H15       1.0  0.96872  0.03816  0.84183  1.0000
  H   H16       1.0  0.03128  0.96185  0.15817  1.0000
  H   H17       1.0  0.95667  0.08074  0.69626  1.0000
  H   H18       1.0  0.04334  0.91926  0.30374  1.0000
  H   H19       1.0  0.94843  0.17526  0.45491  1.0000
  H   H20       1.0  0.05158  0.82475  0.54510  1.0000
  H   H21       1.0  0.16218  0.33648  0.25570  1.0000
  H   H22       1.0  0.83781  0.66352  0.74430  1.0000
  H   H23       1.0  0.76143  0.23284  0.09350  1.0000
  H   H24       1.0  0.23857  0.76716  0.90650  1.0000
  H   H25       1.0  0.52721  0.18051  0.99210  1.0000
  H   H26       1.0  0.47278  0.81948  0.00790  1.0000
  H   H27       1.0  0.24838  0.00810  0.15433  1.0000
  H   H28       1.0  0.75162  0.99189  0.84567  1.0000
  H   H29       1.0  0.47589  0.06443  0.26722  1.0000
  H   H30       1.0  0.52411  0.93557  0.73278  1.0000
  C   C1        1.0  0.88132  0.55354  0.19302  1.0000
  C   C2        1.0  0.11868  0.44647  0.80698  1.0000
  C   C3        1.0  0.79226  0.51536  0.25171  1.0000
  C   C4        1.0  0.20774  0.48465  0.74828  1.0000
  C   C5        1.0  0.63632  0.48101  0.22974  1.0000
  C   C6        1.0  0.36369  0.51899  0.77026  1.0000
  C   C7        1.0  0.57909  0.49000  0.14848  1.0000
  C   C8        1.0  0.42091  0.51001  0.85152  1.0000
  C   C9        1.0  0.67715  0.53042  0.09432  1.0000
  C   C10       1.0  0.32285  0.46958  0.90568  1.0000
  C   C11       1.0  0.53703  0.43722  0.28484  1.0000
  C   C12       1.0  0.46297  0.56279  0.71516  1.0000
  C   C13       1.0  0.44154  0.39435  0.32689  1.0000
  C   C14       1.0  0.55846  0.60564  0.67311  1.0000
  C   C15       1.0  0.31445  0.33884  0.36444  1.0000
  C   C16       1.0  0.68555  0.66115  0.63556  1.0000
  C   C17       1.0  0.32542  0.30535  0.44373  1.0000
  C   C18       1.0  0.67458  0.69464  0.55627  1.0000
  C   C19       1.0  0.19324  0.24660  0.47648  1.0000
  C   C20       1.0  0.80676  0.75339  0.52352  1.0000
  C   C21       1.0  0.20009  0.21002  0.55551  1.0000
  C   C22       1.0  0.79991  0.78998  0.44449  1.0000
  C   C23       1.0  0.19929  0.17830  0.62366  1.0000
  C   C24       1.0  0.80071  0.82170  0.37635  1.0000
  C   C25       1.0  0.19907  0.14768  0.70412  1.0000
  C   C26       1.0  0.80094  0.85232  0.29588  1.0000
  C   C27       1.0  0.33392  0.16866  0.75781  1.0000
  C   C28       1.0  0.66608  0.83134  0.24219  1.0000
  C   C29       1.0  0.32859  0.14114  0.83728  1.0000
  C   C30       1.0  0.67141  0.85886  0.16272  1.0000
  C   C31       1.0  0.07027  0.07471  0.81563  1.0000
  C   C32       1.0  0.92973  0.92529  0.18437  1.0000
  C   C33       1.0  0.06431  0.09877  0.73516  1.0000
  C   C34       1.0  0.93569  0.90124  0.26484  1.0000
  C   C35       1.0  0.05081  0.22281  0.43002  1.0000
  C   C36       1.0  0.94920  0.77719  0.56998  1.0000
  C   C37       1.0  0.03943  0.25611  0.35082  1.0000
  C   C38       1.0  0.96056  0.74389  0.64918  1.0000
  C   C39       1.0  0.17140  0.31406  0.31817  1.0000
  C   C40       1.0  0.82860  0.68594  0.68182  1.0000
  C   C41       1.0  0.89601  0.22584  0.30087  1.0000
  C   C42       1.0  0.10399  0.77415  0.69913  1.0000
  C   C43       1.0  0.77483  0.19414  0.25236  1.0000
  C   C44       1.0  0.22516  0.80585  0.74765  1.0000
  C   C45       1.0  0.63992  0.15694  0.19118  1.0000
  C   C46       1.0  0.36008  0.84305  0.80882  1.0000
  C   C47       1.0  0.65063  0.18531  0.11059  1.0000
  C   C48       1.0  0.34936  0.81469  0.88941  1.0000
  C   C49       1.0  0.51777  0.15409  0.05309  1.0000
  C   C50       1.0  0.48223  0.84591  0.94691  1.0000
  C   C51       1.0  0.36437  0.06093  0.14424  1.0000
  C   C52       1.0  0.63563  0.93907  0.85576  1.0000
  C   C53       1.0  0.49150  0.09150  0.20678  1.0000
  C   C54       1.0  0.50850  0.90849  0.79322  1.0000
  I   I1        1.0  0.22912  0.65744  0.10237  1.0000
  I   I2        1.0  0.77087  0.34257  0.89762  1.0000
  I   I3        1.0  0.94263  0.78877  0.94835  1.0000
  I   I4        1.0  0.05737  0.21123  0.05165  1.0000
  N   N1        1.0  0.82612  0.56103  0.11498  1.0000
  N   N2        1.0  0.17388  0.43897  0.88502  1.0000
  N   N3        1.0  0.19997  0.09517  0.86735  1.0000
  N   N4        1.0  0.80003  0.90483  0.13265  1.0000
  N   N5        1.0  0.37478  0.09347  0.06833  1.0000
  N   N6        1.0  0.62522  0.90652  0.93167  1.0000
