data_image0
_chemical_formula_structural       Cd4H40C28Se8S4N16
_chemical_formula_sum              "Cd4 H40 C28 Se8 S4 N16"
_cell_length_a       7.28099
_cell_length_b       11.8945
_cell_length_c       14.4661
_cell_angle_alpha    89.9991
_cell_angle_beta     90.0004
_cell_angle_gamma    90.0015

_space_group_name_H-M_alt    "P 1"
_space_group_IT_number       1

loop_
  _space_group_symop_operation_xyz
  'x, y, z'

loop_
  _atom_site_type_symbol
  _atom_site_label
  _atom_site_symmetry_multiplicity
  _atom_site_fract_x
  _atom_site_fract_y
  _atom_site_fract_z
  _atom_site_occupancy
  Cd  Cd1       1.0  0.17744  0.80004  0.28113  1.0000
  Cd  Cd2       1.0  0.82256  0.30002  0.71887  1.0000
  Cd  Cd3       1.0  0.82257  0.80002  0.78114  1.0000
  Cd  Cd4       1.0  0.17741  0.30005  0.21886  1.0000
  H   H1        1.0  0.69596  0.90514  0.45797  1.0000
  H   H2        1.0  0.30404  0.40514  0.54202  1.0000
  H   H3        1.0  0.30403  0.90514  0.95797  1.0000
  H   H4        1.0  0.69595  0.40514  0.04202  1.0000
  H   H5        1.0  0.65341  0.94558  0.34080  1.0000
  H   H6        1.0  0.34658  0.44558  0.65919  1.0000
  H   H7        1.0  0.34658  0.94558  0.84080  1.0000
  H   H8        1.0  0.65342  0.44558  0.15919  1.0000
  H   H9        1.0  0.53997  0.82596  0.38796  1.0000
  H   H10       1.0  0.46002  0.32596  0.61204  1.0000
  H   H11       1.0  0.46002  0.82596  0.88796  1.0000
  H   H12       1.0  0.53996  0.32596  0.11204  1.0000
  H   H13       1.0  0.90784  0.07104  0.48980  1.0000
  H   H14       1.0  0.09216  0.57105  0.51019  1.0000
  H   H15       1.0  0.09216  0.07105  0.98981  1.0000
  H   H16       1.0  0.90784  0.57105  0.01019  1.0000
  H   H17       1.0  0.98860  0.06385  0.60655  1.0000
  H   H18       1.0  0.01141  0.56386  0.39345  1.0000
  H   H19       1.0  0.01141  0.06386  0.10655  1.0000
  H   H20       1.0  0.98859  0.56386  0.89345  1.0000
  H   H21       1.0  0.95257  0.93724  0.54300  1.0000
  H   H22       1.0  0.04743  0.43724  0.45700  1.0000
  H   H23       1.0  0.04742  0.93724  0.04300  1.0000
  H   H24       1.0  0.95257  0.43724  0.95700  1.0000
  H   H25       1.0  0.51228  0.14633  0.39678  1.0000
  H   H26       1.0  0.48773  0.64633  0.60322  1.0000
  H   H27       1.0  0.48773  0.14633  0.89678  1.0000
  H   H28       1.0  0.51227  0.64633  0.10322  1.0000
  H   H29       1.0  0.58073  0.10393  0.50962  1.0000
  H   H30       1.0  0.41928  0.60393  0.49038  1.0000
  H   H31       1.0  0.41927  0.10393  0.00962  1.0000
  H   H32       1.0  0.58073  0.60393  0.99038  1.0000
  H   H33       1.0  0.29449  0.17501  0.56542  1.0000
  H   H34       1.0  0.70553  0.67502  0.43458  1.0000
  H   H35       1.0  0.70552  0.17502  0.06542  1.0000
  H   H36       1.0  0.29449  0.67502  0.93458  1.0000
  H   H37       1.0  0.20711  0.19085  0.45079  1.0000
  H   H38       1.0  0.79290  0.69085  0.54921  1.0000
  H   H39       1.0  0.79290  0.19085  0.95079  1.0000
  H   H40       1.0  0.20711  0.69086  0.04920  1.0000
  C   C1        1.0  0.27705  0.94287  0.46564  1.0000
  C   C2        1.0  0.72295  0.44287  0.53437  1.0000
  C   C3        1.0  0.72294  0.94287  0.96563  1.0000
  C   C4        1.0  0.27705  0.44288  0.03436  1.0000
  C   C5        1.0  0.59106  0.91046  0.40334  1.0000
  C   C6        1.0  0.40893  0.41046  0.59666  1.0000
  C   C7        1.0  0.40893  0.91046  0.90334  1.0000
  C   C8        1.0  0.59106  0.41046  0.09666  1.0000
  C   C9        1.0  0.99738  0.02484  0.53800  1.0000
  C   C10       1.0  0.00263  0.52484  0.46199  1.0000
  C   C11       1.0  0.00262  0.02484  0.03801  1.0000
  C   C12       1.0  0.99737  0.52485  0.96199  1.0000
  C   C13       1.0  0.47031  0.09800  0.45793  1.0000
  C   C14       1.0  0.52970  0.59800  0.54207  1.0000
  C   C15       1.0  0.52970  0.09800  0.95793  1.0000
  C   C16       1.0  0.47030  0.59800  0.04207  1.0000
  C   C17       1.0  0.28355  0.13439  0.49748  1.0000
  C   C18       1.0  0.71646  0.63439  0.50253  1.0000
  C   C19       1.0  0.71645  0.13439  0.99748  1.0000
  C   C20       1.0  0.28355  0.63440  0.00252  1.0000
  C   C21       1.0  0.94833  0.56298  0.21673  1.0000
  C   C22       1.0  0.05168  0.06296  0.78326  1.0000
  C   C23       1.0  0.05167  0.56296  0.71674  1.0000
  C   C24       1.0  0.94833  0.06298  0.28327  1.0000
  C   C25       1.0  0.38320  0.03659  0.19945  1.0000
  C   C26       1.0  0.61680  0.53653  0.80058  1.0000
  C   C27       1.0  0.61679  0.03653  0.69943  1.0000
  C   C28       1.0  0.38322  0.53657  0.30056  1.0000
  Se  Se1       1.0  0.86546  0.70619  0.21614  1.0000
  Se  Se2       1.0  0.13454  0.20617  0.78386  1.0000
  Se  Se3       1.0  0.13454  0.70618  0.71614  1.0000
  Se  Se4       1.0  0.86545  0.20619  0.28387  1.0000
  Se  Se5       1.0  0.43158  0.89305  0.16626  1.0000
  Se  Se6       1.0  0.56842  0.39300  0.83374  1.0000
  Se  Se7       1.0  0.56841  0.89300  0.66627  1.0000
  Se  Se8       1.0  0.43159  0.39304  0.33373  1.0000
  S   S1        1.0  0.19867  0.80763  0.45901  1.0000
  S   S2        1.0  0.80132  0.30763  0.54099  1.0000
  S   S3        1.0  0.80132  0.80763  0.95902  1.0000
  S   S4        1.0  0.19866  0.30763  0.04099  1.0000
  N   N1        1.0  0.43963  0.97996  0.43299  1.0000
  N   N2        1.0  0.56037  0.47996  0.56701  1.0000
  N   N3        1.0  0.56037  0.97996  0.93300  1.0000
  N   N4        1.0  0.43963  0.47996  0.06701  1.0000
  N   N5        1.0  0.18494  0.02753  0.50622  1.0000
  N   N6        1.0  0.81507  0.52753  0.49378  1.0000
  N   N7        1.0  0.81506  0.02754  0.00623  1.0000
  N   N8        1.0  0.18494  0.52754  0.99377  1.0000
  N   N9        1.0  0.99733  0.46861  0.21683  1.0000
  N   N10       1.0  0.00267  0.96859  0.78315  1.0000
  N   N11       1.0  0.00266  0.46860  0.71684  1.0000
  N   N12       1.0  0.99733  0.96862  0.28316  1.0000
  N   N13       1.0  0.35660  0.13073  0.22117  1.0000
  N   N14       1.0  0.64340  0.63066  0.77886  1.0000
  N   N15       1.0  0.64339  0.13067  0.72115  1.0000
  N   N16       1.0  0.35662  0.63071  0.27884  1.0000
