data_image0
_chemical_formula_structural       Tb2H20C36N6Cl12O16
_chemical_formula_sum              "Tb2 H20 C36 N6 Cl12 O16"
_cell_length_a       9.77586
_cell_length_b       11.7522
_cell_length_c       12.9957
_cell_angle_alpha    116.863
_cell_angle_beta     111.495
_cell_angle_gamma    90.0069

_space_group_name_H-M_alt    "P 1"
_space_group_IT_number       1

loop_
  _space_group_symop_operation_xyz
  'x, y, z'

loop_
  _atom_site_type_symbol
  _atom_site_label
  _atom_site_symmetry_multiplicity
  _atom_site_fract_x
  _atom_site_fract_y
  _atom_site_fract_z
  _atom_site_occupancy
  Tb  Tb1       1.0  0.25002  0.97005  0.00001  1.0000
  Tb  Tb2       1.0  0.74997  0.02995  0.99999  1.0000
  H   H1        1.0  0.12785  0.70569  0.95828  1.0000
  H   H2        1.0  0.37208  0.74748  0.04179  1.0000
  H   H3        1.0  0.87215  0.29431  0.04172  1.0000
  H   H4        1.0  0.62792  0.25252  0.95821  1.0000
  H   H5        1.0  0.98586  0.77442  0.93167  1.0000
  H   H6        1.0  0.51415  0.84273  0.06840  1.0000
  H   H7        1.0  0.01414  0.22558  0.06833  1.0000
  H   H8        1.0  0.48584  0.15727  0.93160  1.0000
  H   H9        1.0  0.07370  0.84875  0.66400  1.0000
  H   H10       1.0  0.42640  0.18488  0.33607  1.0000
  H   H11       1.0  0.92630  0.15125  0.33600  1.0000
  H   H12       1.0  0.57360  0.81512  0.66393  1.0000
  H   H13       1.0  0.67363  0.01277  0.62115  1.0000
  H   H14       1.0  0.82647  0.39178  0.37890  1.0000
  H   H15       1.0  0.32637  0.98723  0.37885  1.0000
  H   H16       1.0  0.17352  0.60822  0.62109  1.0000
  H   H17       1.0  0.28400  0.27232  0.82664  1.0000
  H   H18       1.0  0.21628  0.44581  0.17379  1.0000
  H   H19       1.0  0.71600  0.72768  0.17336  1.0000
  H   H20       1.0  0.78372  0.55419  0.82621  1.0000
  C   C1        1.0  0.89317  0.95930  0.78719  1.0000
  C   C2        1.0  0.60682  0.17233  0.21287  1.0000
  C   C3        1.0  0.10683  0.04070  0.21281  1.0000
  C   C4        1.0  0.39317  0.82767  0.78712  1.0000
  C   C5        1.0  0.87570  0.93410  0.65812  1.0000
  C   C6        1.0  0.62435  0.27618  0.34191  1.0000
  C   C7        1.0  0.12431  0.06590  0.34189  1.0000
  C   C8        1.0  0.37565  0.72382  0.65809  1.0000
  C   C9        1.0  0.97684  0.87308  0.60847  1.0000
  C   C10       1.0  0.52324  0.26475  0.39157  1.0000
  C   C11       1.0  0.02317  0.12692  0.39153  1.0000
  C   C12       1.0  0.47675  0.73525  0.60843  1.0000
  C   C13       1.0  0.94499  0.84202  0.48409  1.0000
  C   C14       1.0  0.55502  0.35802  0.51594  1.0000
  C   C15       1.0  0.05502  0.15798  0.51592  1.0000
  C   C16       1.0  0.44498  0.64198  0.48407  1.0000
  C   C17       1.0  0.73865  0.93278  0.46338  1.0000
  C   C18       1.0  0.76132  0.46949  0.53659  1.0000
  C   C19       1.0  0.26136  0.06722  0.53662  1.0000
  C   C20       1.0  0.23869  0.53051  0.46341  1.0000
  C   C21       1.0  0.75430  0.96624  0.58514  1.0000
  C   C22       1.0  0.74575  0.38125  0.41486  1.0000
  C   C23       1.0  0.24571  0.03376  0.41486  1.0000
  C   C24       1.0  0.25425  0.61875  0.58514  1.0000
  C   C25       1.0  0.25010  0.21583  0.00007  1.0000
  C   C26       1.0  0.74990  0.78417  0.99993  1.0000
  C   C27       1.0  0.25017  0.34385  0.00019  1.0000
  C   C28       1.0  0.74983  0.65615  0.99981  1.0000
  C   C29       1.0  0.27190  0.35550  0.90456  1.0000
  C   C30       1.0  0.22835  0.45105  0.09582  1.0000
  C   C31       1.0  0.72810  0.64450  0.09544  1.0000
  C   C32       1.0  0.77165  0.54895  0.90418  1.0000
  C   C33       1.0  0.27231  0.47692  0.91061  1.0000
  C   C34       1.0  0.22776  0.56636  0.08962  1.0000
  C   C35       1.0  0.72770  0.52308  0.08939  1.0000
  C   C36       1.0  0.77225  0.43364  0.91038  1.0000
  N   N1        1.0  0.82945  0.87026  0.41198  1.0000
  N   N2        1.0  0.67052  0.45838  0.58802  1.0000
  N   N3        1.0  0.17055  0.12974  0.58802  1.0000
  N   N4        1.0  0.32948  0.54161  0.41198  1.0000
  N   N5        1.0  0.25000  0.58096  0.00009  1.0000
  N   N6        1.0  0.75000  0.41905  0.99991  1.0000
  Cl  Cl1       1.0  0.05870  0.75839  0.41231  1.0000
  Cl  Cl2       1.0  0.44131  0.34613  0.58774  1.0000
  Cl  Cl3       1.0  0.94131  0.24161  0.58770  1.0000
  Cl  Cl4       1.0  0.55869  0.65388  0.41226  1.0000
  Cl  Cl5       1.0  0.59028  0.96799  0.36651  1.0000
  Cl  Cl6       1.0  0.90971  0.60155  0.63352  1.0000
  Cl  Cl7       1.0  0.40973  0.03202  0.63349  1.0000
  Cl  Cl8       1.0  0.09029  0.39844  0.36648  1.0000
  Cl  Cl9       1.0  0.30503  0.50078  0.79952  1.0000
  Cl  Cl10      1.0  0.19491  0.70123  0.20056  1.0000
  Cl  Cl11      1.0  0.69498  0.49922  0.20048  1.0000
  Cl  Cl12      1.0  0.80509  0.29877  0.79944  1.0000
  O   O1        1.0  0.01858  0.95531  0.86078  1.0000
  O   O2        1.0  0.48137  0.09479  0.13936  1.0000
  O   O3        1.0  0.98140  0.04468  0.13921  1.0000
  O   O4        1.0  0.51861  0.90521  0.86064  1.0000
  O   O5        1.0  0.09095  0.77497  0.93995  1.0000
  O   O6        1.0  0.40907  0.83508  0.06015  1.0000
  O   O7        1.0  0.90905  0.22503  0.06005  1.0000
  O   O8        1.0  0.59093  0.16493  0.93985  1.0000
  O   O9        1.0  0.77968  0.98096  0.81339  1.0000
  O   O10       1.0  0.72028  0.16764  0.18662  1.0000
  O   O11       1.0  0.22031  0.01903  0.18661  1.0000
  O   O12       1.0  0.27972  0.83236  0.81338  1.0000
  O   O13       1.0  0.30726  0.13040  0.93438  1.0000
  O   O14       1.0  0.19287  0.19590  0.06565  1.0000
  O   O15       1.0  0.69274  0.86960  0.06562  1.0000
  O   O16       1.0  0.80712  0.80410  0.93435  1.0000
