data_image0
_chemical_formula_structural       Zn2H24C32S6N8O8
_chemical_formula_sum              "Zn2 H24 C32 S6 N8 O8"
_cell_length_a       8.78421
_cell_length_b       10.2013
_cell_length_c       11.352
_cell_angle_alpha    64.939
_cell_angle_beta     77.7463
_cell_angle_gamma    74.1437

_space_group_name_H-M_alt    "P 1"
_space_group_IT_number       1

loop_
  _space_group_symop_operation_xyz
  'x, y, z'

loop_
  _atom_site_type_symbol
  _atom_site_label
  _atom_site_symmetry_multiplicity
  _atom_site_fract_x
  _atom_site_fract_y
  _atom_site_fract_z
  _atom_site_occupancy
  Zn  Zn1       1.0  0.14211  0.80601  0.58877  1.0000
  Zn  Zn2       1.0  0.85788  0.19399  0.41123  1.0000
  H   H1        1.0  0.47512  0.13012  0.39454  1.0000
  H   H2        1.0  0.52488  0.86988  0.60546  1.0000
  H   H3        1.0  0.35031  0.24152  0.47421  1.0000
  H   H4        1.0  0.64969  0.75848  0.52579  1.0000
  H   H5        1.0  0.55490  0.40800  0.70398  1.0000
  H   H6        1.0  0.44510  0.59200  0.29601  1.0000
  H   H7        1.0  0.48457  0.37531  0.58669  1.0000
  H   H8        1.0  0.51543  0.62469  0.41331  1.0000
  H   H9        1.0  0.26430  0.95036  0.30941  1.0000
  H   H10       1.0  0.73570  0.04963  0.69059  1.0000
  H   H11       1.0  0.26559  0.95036  0.09736  1.0000
  H   H12       1.0  0.73441  0.04963  0.90264  1.0000
  H   H13       1.0  0.97005  0.61978  0.28148  1.0000
  H   H14       1.0  0.02995  0.38022  0.71852  1.0000
  H   H15       1.0  0.97966  0.63913  0.49076  1.0000
  H   H16       1.0  0.02034  0.36087  0.50924  1.0000
  H   H17       1.0  0.95153  0.64053  0.08896  1.0000
  H   H18       1.0  0.04848  0.35947  0.91104  1.0000
  H   H19       1.0  0.96935  0.65504  0.86116  1.0000
  H   H20       1.0  0.03065  0.34495  0.13885  1.0000
  H   H21       1.0  0.29775  0.92378  0.72295  1.0000
  H   H22       1.0  0.70225  0.07622  0.27705  1.0000
  H   H23       1.0  0.29938  0.92007  0.94028  1.0000
  H   H24       1.0  0.70063  0.07992  0.05972  1.0000
  C   C1        1.0  0.22505  0.11670  0.42851  1.0000
  C   C2        1.0  0.77495  0.88331  0.57149  1.0000
  C   C3        1.0  0.35728  0.20227  0.39628  1.0000
  C   C4        1.0  0.64272  0.79773  0.60372  1.0000
  C   C5        1.0  0.36806  0.29464  0.13420  1.0000
  C   C6        1.0  0.63194  0.70536  0.86580  1.0000
  C   C7        1.0  0.39087  0.24174  0.94326  1.0000
  C   C8        1.0  0.60914  0.75827  0.05673  1.0000
  C   C9        1.0  0.44791  0.39454  0.67837  1.0000
  C   C10       1.0  0.55209  0.60547  0.32163  1.0000
  C   C11       1.0  0.31950  0.53574  0.65443  1.0000
  C   C12       1.0  0.68051  0.46427  0.34557  1.0000
  C   C13       1.0  0.19836  0.87960  0.30043  1.0000
  C   C14       1.0  0.80164  0.12040  0.69957  1.0000
  C   C15       1.0  0.19855  0.87766  0.17910  1.0000
  C   C16       1.0  0.80146  0.12234  0.82091  1.0000
  C   C17       1.0  0.11779  0.78414  0.16663  1.0000
  C   C18       1.0  0.88221  0.21586  0.83337  1.0000
  C   C19       1.0  0.03652  0.69581  0.28171  1.0000
  C   C20       1.0  0.96348  0.30419  0.71829  1.0000
  C   C21       1.0  0.04071  0.70586  0.39951  1.0000
  C   C22       1.0  0.95929  0.29414  0.60049  1.0000
  C   C23       1.0  0.12219  0.78202  0.03621  1.0000
  C   C24       1.0  0.87781  0.21798  0.96379  1.0000
  C   C25       1.0  0.03039  0.70508  0.01120  1.0000
  C   C26       1.0  0.96961  0.29492  0.98880  1.0000
  C   C27       1.0  0.03944  0.71214  0.88463  1.0000
  C   C28       1.0  0.96056  0.28786  0.11537  1.0000
  C   C29       1.0  0.22340  0.86186  0.80683  1.0000
  C   C30       1.0  0.77660  0.13814  0.19317  1.0000
  C   C31       1.0  0.22134  0.86037  0.92967  1.0000
  C   C32       1.0  0.77866  0.13963  0.07033  1.0000
  S   S1        1.0  0.34461  0.36965  0.24958  1.0000
  S   S2        1.0  0.65539  0.63035  0.75042  1.0000
  S   S3        1.0  0.36568  0.40586  0.96771  1.0000
  S   S4        1.0  0.63433  0.59414  0.03229  1.0000
  S   S5        1.0  0.39123  0.22618  0.79693  1.0000
  S   S6        1.0  0.60877  0.77382  0.20307  1.0000
  N   N1        1.0  0.38611  0.15263  0.16138  1.0000
  N   N2        1.0  0.61389  0.84737  0.83862  1.0000
  N   N3        1.0  0.39990  0.12343  0.05273  1.0000
  N   N4        1.0  0.60010  0.87658  0.94726  1.0000
  N   N5        1.0  0.12038  0.79589  0.40974  1.0000
  N   N6        1.0  0.87962  0.20411  0.59027  1.0000
  N   N7        1.0  0.13347  0.78990  0.78327  1.0000
  N   N8        1.0  0.86653  0.21009  0.21673  1.0000
  O   O1        1.0  0.25354  0.98570  0.51522  1.0000
  O   O2        1.0  0.74645  0.01430  0.48478  1.0000
  O   O3        1.0  0.10198  0.18013  0.37032  1.0000
  O   O4        1.0  0.89802  0.81987  0.62968  1.0000
  O   O5        1.0  0.17511  0.53141  0.69534  1.0000
  O   O6        1.0  0.82489  0.46860  0.30466  1.0000
  O   O7        1.0  0.37020  0.65603  0.58926  1.0000
  O   O8        1.0  0.62980  0.34398  0.41074  1.0000
