data_image0
_chemical_formula_structural       Er4H28C24O32
_chemical_formula_sum              "Er4 H28 C24 O32"
_cell_length_a       6.05162
_cell_length_b       10.0205
_cell_length_c       15.2973
_cell_angle_alpha    102.274
_cell_angle_beta     90.023
_cell_angle_gamma    107.59

_space_group_name_H-M_alt    "P 1"
_space_group_IT_number       1

loop_
  _space_group_symop_operation_xyz
  'x, y, z'

loop_
  _atom_site_type_symbol
  _atom_site_label
  _atom_site_symmetry_multiplicity
  _atom_site_fract_x
  _atom_site_fract_y
  _atom_site_fract_z
  _atom_site_occupancy
  Er  Er1       1.0  0.34791  0.81580  0.29367  1.0000
  Er  Er2       1.0  0.53214  0.18448  0.20633  1.0000
  Er  Er3       1.0  0.65209  0.18421  0.70633  1.0000
  Er  Er4       1.0  0.46785  0.81552  0.79367  1.0000
  H   H1        1.0  0.71023  0.95027  0.45146  1.0000
  H   H2        1.0  0.75994  0.04999  0.04859  1.0000
  H   H3        1.0  0.28977  0.04974  0.54854  1.0000
  H   H4        1.0  0.24005  0.95001  0.95141  1.0000
  H   H5        1.0  0.81107  0.87562  0.36007  1.0000
  H   H6        1.0  0.93556  0.12488  0.13997  1.0000
  H   H7        1.0  0.18894  0.12439  0.63994  1.0000
  H   H8        1.0  0.06444  0.87512  0.86003  1.0000
  H   H9        1.0  0.03541  0.54703  0.18514  1.0000
  H   H10       1.0  0.48890  0.45324  0.31487  1.0000
  H   H11       1.0  0.96458  0.45297  0.81486  1.0000
  H   H12       1.0  0.51112  0.54675  0.68513  1.0000
  H   H13       1.0  0.58737  0.57713  0.06701  1.0000
  H   H14       1.0  0.01113  0.42311  0.43303  1.0000
  H   H15       1.0  0.41263  0.42287  0.93300  1.0000
  H   H16       1.0  0.98888  0.57689  0.56697  1.0000
  H   H17       1.0  0.88450  0.80116  0.03459  1.0000
  H   H18       1.0  0.08409  0.19913  0.46541  1.0000
  H   H19       1.0  0.11549  0.19885  0.96542  1.0000
  H   H20       1.0  0.91591  0.80087  0.53459  1.0000
  H   H21       1.0  0.09202  0.71203  0.00699  1.0000
  H   H22       1.0  0.38087  0.28821  0.49306  1.0000
  H   H23       1.0  0.90796  0.28798  0.99301  1.0000
  H   H24       1.0  0.61912  0.71179  0.50694  1.0000
  H   H25       1.0  0.79517  0.50175  0.01473  1.0000
  H   H26       1.0  0.29439  0.49850  0.48529  1.0000
  H   H27       1.0  0.20482  0.49825  0.98527  1.0000
  H   H28       1.0  0.70562  0.50150  0.51470  1.0000
  C   C1        1.0  0.02722  0.77414  0.06365  1.0000
  C   C2        1.0  0.25385  0.22610  0.43639  1.0000
  C   C3        1.0  0.97277  0.22586  0.93635  1.0000
  C   C4        1.0  0.74615  0.77390  0.56362  1.0000
  C   C5        1.0  0.93252  0.67836  0.12999  1.0000
  C   C6        1.0  0.25481  0.32190  0.37007  1.0000
  C   C7        1.0  0.06748  0.32164  0.87002  1.0000
  C   C8        1.0  0.74519  0.67810  0.62994  1.0000
  C   C9        1.0  0.83454  0.76269  0.20961  1.0000
  C   C10       1.0  0.07210  0.23762  0.29045  1.0000
  C   C11       1.0  0.16547  0.23732  0.79039  1.0000
  C   C12       1.0  0.92790  0.76238  0.70956  1.0000
  C   C13       1.0  0.73936  0.54497  0.08046  1.0000
  C   C14       1.0  0.19530  0.45530  0.41956  1.0000
  C   C15       1.0  0.26064  0.45504  0.91954  1.0000
  C   C16       1.0  0.80471  0.54469  0.58043  1.0000
  C   C17       1.0  0.66495  0.42397  0.12944  1.0000
  C   C18       1.0  0.24170  0.57633  0.37061  1.0000
  C   C19       1.0  0.33505  0.57602  0.87056  1.0000
  C   C20       1.0  0.75831  0.42366  0.62938  1.0000
  C   C21       1.0  0.22281  0.91090  0.10021  1.0000
  C   C22       1.0  0.31229  0.08929  0.39980  1.0000
  C   C23       1.0  0.77719  0.08910  0.89979  1.0000
  C   C24       1.0  0.68770  0.91071  0.60021  1.0000
  O   O1        1.0  0.47455  0.32476  0.10579  1.0000
  O   O2        1.0  0.15060  0.67551  0.39431  1.0000
  O   O3        1.0  0.52545  0.67524  0.89421  1.0000
  O   O4        1.0  0.84940  0.32448  0.60567  1.0000
  O   O5        1.0  0.96851  0.81851  0.28126  1.0000
  O   O6        1.0  0.14991  0.18168  0.21879  1.0000
  O   O7        1.0  0.03150  0.18149  0.71874  1.0000
  O   O8        1.0  0.85008  0.81832  0.78121  1.0000
  O   O9        1.0  0.27259  0.01294  0.05969  1.0000
  O   O10       1.0  0.25997  0.98723  0.44030  1.0000
  O   O11       1.0  0.72741  0.98706  0.94031  1.0000
  O   O12       1.0  0.74003  0.01277  0.55970  1.0000
  O   O13       1.0  0.67170  0.89636  0.38747  1.0000
  O   O14       1.0  0.77553  0.10436  0.11247  1.0000
  O   O15       1.0  0.32830  0.10365  0.61253  1.0000
  O   O16       1.0  0.22447  0.89563  0.88753  1.0000
  O   O17       1.0  0.11939  0.63826  0.16502  1.0000
  O   O18       1.0  0.48166  0.36202  0.33500  1.0000
  O   O19       1.0  0.88061  0.36174  0.83498  1.0000
  O   O20       1.0  0.51834  0.63797  0.66500  1.0000
  O   O21       1.0  0.63447  0.77295  0.19972  1.0000
  O   O22       1.0  0.86183  0.22742  0.30034  1.0000
  O   O23       1.0  0.36554  0.22706  0.80028  1.0000
  O   O24       1.0  0.13817  0.77257  0.69967  1.0000
  O   O25       1.0  0.33905  0.92607  0.17359  1.0000
  O   O26       1.0  0.41303  0.07413  0.32637  1.0000
  O   O27       1.0  0.66094  0.07394  0.82641  1.0000
  O   O28       1.0  0.58696  0.92587  0.67363  1.0000
  O   O29       1.0  0.80001  0.41978  0.19352  1.0000
  O   O30       1.0  0.38071  0.58059  0.30650  1.0000
  O   O31       1.0  0.20000  0.58022  0.80648  1.0000
  O   O32       1.0  0.61932  0.41941  0.69350  1.0000
