data_image0
_chemical_formula_structural       Cd4H40C44S12N12O20
_chemical_formula_sum              "Cd4 H40 C44 S12 N12 O20"
_cell_length_a       8.3925
_cell_length_b       12.5505
_cell_length_c       15.7
_cell_angle_alpha    113.357
_cell_angle_beta     90
_cell_angle_gamma    90

_space_group_name_H-M_alt    "P 1"
_space_group_IT_number       1

loop_
  _space_group_symop_operation_xyz
  'x, y, z'

loop_
  _atom_site_type_symbol
  _atom_site_label
  _atom_site_symmetry_multiplicity
  _atom_site_fract_x
  _atom_site_fract_y
  _atom_site_fract_z
  _atom_site_occupancy
  Cd  Cd1       1.0  0.46078  0.33059  0.79664  1.0000
  Cd  Cd2       1.0  0.96078  0.16941  0.70336  1.0000
  Cd  Cd3       1.0  0.53921  0.66941  0.20336  1.0000
  Cd  Cd4       1.0  0.03922  0.83059  0.29664  1.0000
  H   H1        1.0  0.19447  0.24722  0.03117  1.0000
  H   H2        1.0  0.69447  0.25278  0.46883  1.0000
  H   H3        1.0  0.80553  0.75278  0.96883  1.0000
  H   H4        1.0  0.30553  0.74722  0.53117  1.0000
  H   H5        1.0  0.34425  0.34001  0.10134  1.0000
  H   H6        1.0  0.84425  0.15999  0.39866  1.0000
  H   H7        1.0  0.65575  0.65999  0.89866  1.0000
  H   H8        1.0  0.15575  0.84001  0.60134  1.0000
  H   H9        1.0  0.50181  0.07443  0.38899  1.0000
  H   H10       1.0  0.00181  0.42557  0.11101  1.0000
  H   H11       1.0  0.49819  0.92557  0.61101  1.0000
  H   H12       1.0  0.99819  0.57443  0.88899  1.0000
  H   H13       1.0  0.38947  0.02799  0.46346  1.0000
  H   H14       1.0  0.88947  0.47201  0.03654  1.0000
  H   H15       1.0  0.61053  0.97201  0.53655  1.0000
  H   H16       1.0  0.11053  0.52799  0.96346  1.0000
  H   H17       1.0  0.30604  0.28279  0.60274  1.0000
  H   H18       1.0  0.80604  0.21721  0.89726  1.0000
  H   H19       1.0  0.69396  0.71721  0.39726  1.0000
  H   H20       1.0  0.19396  0.78279  0.10274  1.0000
  H   H21       1.0  0.30623  0.35164  0.47609  1.0000
  H   H22       1.0  0.80623  0.14836  0.02391  1.0000
  H   H23       1.0  0.69377  0.64836  0.52391  1.0000
  H   H24       1.0  0.19377  0.85164  0.97609  1.0000
  H   H25       1.0  0.69070  0.58556  0.62090  1.0000
  H   H26       1.0  0.19070  0.91444  0.87910  1.0000
  H   H27       1.0  0.30930  0.41444  0.37910  1.0000
  H   H28       1.0  0.80930  0.08556  0.12090  1.0000
  H   H29       1.0  0.67395  0.50381  0.73987  1.0000
  H   H30       1.0  0.17395  0.99619  0.76013  1.0000
  H   H31       1.0  0.32605  0.49619  0.26013  1.0000
  H   H32       1.0  0.82605  0.00381  0.23987  1.0000
  H   H33       1.0  0.77071  0.41956  0.85826  1.0000
  H   H34       1.0  0.27071  0.08044  0.64174  1.0000
  H   H35       1.0  0.22929  0.58044  0.14174  1.0000
  H   H36       1.0  0.72929  0.91956  0.35826  1.0000
  H   H37       1.0  0.65231  0.50679  0.93660  1.0000
  H   H38       1.0  0.15231  0.99321  0.56340  1.0000
  H   H39       1.0  0.34769  0.49321  0.06340  1.0000
  H   H40       1.0  0.84769  0.00679  0.43660  1.0000
  C   C1        1.0  0.37578  0.29024  0.95404  1.0000
  C   C2        1.0  0.87578  0.20976  0.54596  1.0000
  C   C3        1.0  0.62422  0.70976  0.04596  1.0000
  C   C4        1.0  0.12422  0.79024  0.45404  1.0000
  C   C5        1.0  0.32345  0.26467  0.03632  1.0000
  C   C6        1.0  0.82345  0.23532  0.46368  1.0000
  C   C7        1.0  0.67655  0.73532  0.96368  1.0000
  C   C8        1.0  0.17655  0.76468  0.53632  1.0000
  C   C9        1.0  0.34686  0.14877  0.14460  1.0000
  C   C10       1.0  0.84686  0.35122  0.35540  1.0000
  C   C11       1.0  0.65314  0.85122  0.85540  1.0000
  C   C12       1.0  0.15314  0.64878  0.64460  1.0000
  C   C13       1.0  0.26904  0.12840  0.28355  1.0000
  C   C14       1.0  0.76904  0.37160  0.21645  1.0000
  C   C15       1.0  0.73096  0.87160  0.71645  1.0000
  C   C16       1.0  0.23096  0.62840  0.78355  1.0000
  C   C17       1.0  0.39737  0.02335  0.39219  1.0000
  C   C18       1.0  0.89737  0.47665  0.10781  1.0000
  C   C19       1.0  0.60263  0.97665  0.60781  1.0000
  C   C20       1.0  0.10263  0.52335  0.89219  1.0000
  C   C21       1.0  0.42322  0.89622  0.32775  1.0000
  C   C22       1.0  0.92322  0.60378  0.17225  1.0000
  C   C23       1.0  0.57678  0.10378  0.67225  1.0000
  C   C24       1.0  0.07678  0.39622  0.82775  1.0000
  C   C25       1.0  0.39088  0.34857  0.60295  1.0000
  C   C26       1.0  0.89088  0.15143  0.89705  1.0000
  C   C27       1.0  0.60912  0.65143  0.39704  1.0000
  C   C28       1.0  0.10912  0.84857  0.10295  1.0000
  C   C29       1.0  0.39203  0.38838  0.53218  1.0000
  C   C30       1.0  0.89203  0.11162  0.96782  1.0000
  C   C31       1.0  0.60797  0.61162  0.46782  1.0000
  C   C32       1.0  0.10797  0.88838  0.03218  1.0000
  C   C33       1.0  0.49916  0.47628  0.53616  1.0000
  C   C34       1.0  0.99916  0.02372  0.96384  1.0000
  C   C35       1.0  0.50084  0.52371  0.46384  1.0000
  C   C36       1.0  0.00084  0.97629  0.03616  1.0000
  C   C37       1.0  0.60379  0.51764  0.61209  1.0000
  C   C38       1.0  0.10379  0.98236  0.88791  1.0000
  C   C39       1.0  0.39621  0.48236  0.38791  1.0000
  C   C40       1.0  0.89621  0.01764  0.11209  1.0000
  C   C41       1.0  0.59579  0.47265  0.67964  1.0000
  C   C42       1.0  0.09579  0.02735  0.82036  1.0000
  C   C43       1.0  0.40420  0.52734  0.32036  1.0000
  C   C44       1.0  0.90421  0.97265  0.17964  1.0000
  S   S1        1.0  0.42695  0.13992  0.04003  1.0000
  S   S2        1.0  0.92695  0.36007  0.45997  1.0000
  S   S3        1.0  0.57305  0.86008  0.95997  1.0000
  S   S4        1.0  0.07305  0.63993  0.54003  1.0000
  S   S5        1.0  0.40882  0.05716  0.19717  1.0000
  S   S6        1.0  0.90883  0.44284  0.30284  1.0000
  S   S7        1.0  0.59118  0.94284  0.80284  1.0000
  S   S8        1.0  0.09118  0.55716  0.69716  1.0000
  S   S9        1.0  0.21815  0.09246  0.37646  1.0000
  S   S10       1.0  0.71815  0.40754  0.12355  1.0000
  S   S11       1.0  0.78185  0.90754  0.62355  1.0000
  S   S12       1.0  0.28185  0.59246  0.87645  1.0000
  N   N1        1.0  0.23365  0.22249  0.19045  1.0000
  N   N2        1.0  0.73365  0.27751  0.30955  1.0000
  N   N3        1.0  0.76635  0.77751  0.80955  1.0000
  N   N4        1.0  0.26635  0.72249  0.69045  1.0000
  N   N5        1.0  0.19098  0.21138  0.27022  1.0000
  N   N6        1.0  0.69098  0.28862  0.22978  1.0000
  N   N7        1.0  0.80902  0.78862  0.72978  1.0000
  N   N8        1.0  0.30902  0.71138  0.77022  1.0000
  N   N9        1.0  0.49073  0.38999  0.67579  1.0000
  N   N10       1.0  0.99073  0.11001  0.82421  1.0000
  N   N11       1.0  0.50927  0.61001  0.32421  1.0000
  N   N12       1.0  0.00927  0.88999  0.17579  1.0000
  O   O1        1.0  0.35169  0.39364  0.95961  1.0000
  O   O2        1.0  0.85169  0.10635  0.54039  1.0000
  O   O3        1.0  0.64831  0.60636  0.04038  1.0000
  O   O4        1.0  0.14831  0.89365  0.45962  1.0000
  O   O5        1.0  0.43608  0.21130  0.88343  1.0000
  O   O6        1.0  0.93607  0.28870  0.61657  1.0000
  O   O7        1.0  0.56393  0.78869  0.11657  1.0000
  O   O8        1.0  0.06393  0.71131  0.38343  1.0000
  O   O9        1.0  0.56130  0.85646  0.33230  1.0000
  O   O10       1.0  0.06130  0.64354  0.16770  1.0000
  O   O11       1.0  0.43870  0.14354  0.66770  1.0000
  O   O12       1.0  0.93870  0.35646  0.83230  1.0000
  O   O13       1.0  0.31681  0.83435  0.27390  1.0000
  O   O14       1.0  0.81681  0.66565  0.22610  1.0000
  O   O15       1.0  0.68319  0.16565  0.72610  1.0000
  O   O16       1.0  0.18319  0.33435  0.77390  1.0000
  O   O17       1.0  0.66094  0.45361  0.86919  1.0000
  O   O18       1.0  0.16094  0.04639  0.63081  1.0000
  O   O19       1.0  0.33906  0.54639  0.13081  1.0000
  O   O20       1.0  0.83905  0.95361  0.36919  1.0000
