data_image0
_chemical_formula_structural       Cu4H24C32S8N16Cl8
_chemical_formula_sum              "Cu4 H24 C32 S8 N16 Cl8"
_cell_length_a       8.62618
_cell_length_b       11.668
_cell_length_c       12.2968
_cell_angle_alpha    89.9744
_cell_angle_beta     90.009
_cell_angle_gamma    107.365

_space_group_name_H-M_alt    "P 1"
_space_group_IT_number       1

loop_
  _space_group_symop_operation_xyz
  'x, y, z'

loop_
  _atom_site_type_symbol
  _atom_site_label
  _atom_site_symmetry_multiplicity
  _atom_site_fract_x
  _atom_site_fract_y
  _atom_site_fract_z
  _atom_site_occupancy
  Cu  Cu1       1.0  0.26235  0.87775  0.75349  1.0000
  Cu  Cu2       1.0  0.73752  0.62207  0.25349  1.0000
  Cu  Cu3       1.0  0.73761  0.12224  0.24652  1.0000
  Cu  Cu4       1.0  0.26249  0.37793  0.74650  1.0000
  H   H1        1.0  0.00443  0.78897  0.59065  1.0000
  H   H2        1.0  0.99555  0.71103  0.09064  1.0000
  H   H3        1.0  0.99548  0.21097  0.40932  1.0000
  H   H4        1.0  0.00454  0.28899  0.90934  1.0000
  H   H5        1.0  0.75270  0.83296  0.52811  1.0000
  H   H6        1.0  0.24729  0.66706  0.02809  1.0000
  H   H7        1.0  0.24734  0.16702  0.47189  1.0000
  H   H8        1.0  0.75271  0.33293  0.97191  1.0000
  H   H9        1.0  0.68816  0.01296  0.61347  1.0000
  H   H10       1.0  0.31196  0.48705  0.11349  1.0000
  H   H11       1.0  0.31190  0.98705  0.38654  1.0000
  H   H12       1.0  0.68808  0.51295  0.88652  1.0000
  H   H13       1.0  0.53452  0.47408  0.59712  1.0000
  H   H14       1.0  0.46556  0.02602  0.09715  1.0000
  H   H15       1.0  0.46546  0.52593  0.40290  1.0000
  H   H16       1.0  0.53445  0.97402  0.90285  1.0000
  H   H17       1.0  0.79856  0.43789  0.54882  1.0000
  H   H18       1.0  0.20141  0.06216  0.04885  1.0000
  H   H19       1.0  0.20141  0.56211  0.45118  1.0000
  H   H20       1.0  0.79857  0.93785  0.95116  1.0000
  H   H21       1.0  0.85202  0.25146  0.62902  1.0000
  H   H22       1.0  0.14796  0.24849  0.12900  1.0000
  H   H23       1.0  0.14795  0.74855  0.37098  1.0000
  H   H24       1.0  0.85198  0.75150  0.87099  1.0000
  C   C1        1.0  0.97212  0.86602  0.62201  1.0000
  C   C2        1.0  0.02794  0.63395  0.12202  1.0000
  C   C3        1.0  0.02788  0.13396  0.37799  1.0000
  C   C4        1.0  0.97209  0.36603  0.87799  1.0000
  C   C5        1.0  0.83239  0.89078  0.58745  1.0000
  C   C6        1.0  0.16761  0.60921  0.08741  1.0000
  C   C7        1.0  0.16763  0.10921  0.41257  1.0000
  C   C8        1.0  0.83240  0.39078  0.91258  1.0000
  C   C9        1.0  0.79907  0.99046  0.63275  1.0000
  C   C10       1.0  0.20103  0.50955  0.13273  1.0000
  C   C11       1.0  0.20098  0.00954  0.36728  1.0000
  C   C12       1.0  0.79899  0.49045  0.86726  1.0000
  C   C13       1.0  0.03554  0.03324  0.72964  1.0000
  C   C14       1.0  0.96452  0.46665  0.22968  1.0000
  C   C15       1.0  0.96445  0.96672  0.27036  1.0000
  C   C16       1.0  0.03546  0.53333  0.77032  1.0000
  C   C17       1.0  0.49402  0.22511  0.73056  1.0000
  C   C18       1.0  0.50599  0.27486  0.23053  1.0000
  C   C19       1.0  0.50600  0.77490  0.26945  1.0000
  C   C20       1.0  0.49403  0.72518  0.76947  1.0000
  C   C21       1.0  0.56542  0.39615  0.62781  1.0000
  C   C22       1.0  0.43462  0.10388  0.12787  1.0000
  C   C23       1.0  0.43456  0.60386  0.37220  1.0000
  C   C24       1.0  0.56537  0.89615  0.87214  1.0000
  C   C25       1.0  0.71104  0.37566  0.60123  1.0000
  C   C26       1.0  0.28895  0.12434  0.10126  1.0000
  C   C27       1.0  0.28893  0.62435  0.39878  1.0000
  C   C28       1.0  0.71104  0.87567  0.89874  1.0000
  C   C29       1.0  0.73939  0.27324  0.64445  1.0000
  C   C30       1.0  0.26060  0.22675  0.14443  1.0000
  C   C31       1.0  0.26059  0.72677  0.35556  1.0000
  C   C32       1.0  0.73936  0.77325  0.85556  1.0000
  S   S1        1.0  0.15171  0.14045  0.82334  1.0000
  S   S2        1.0  0.84831  0.35947  0.32343  1.0000
  S   S3        1.0  0.84830  0.85952  0.17666  1.0000
  S   S4        1.0  0.15165  0.64051  0.67655  1.0000
  S   S5        1.0  0.37559  0.11761  0.82285  1.0000
  S   S6        1.0  0.62447  0.38239  0.32280  1.0000
  S   S7        1.0  0.62444  0.88240  0.17717  1.0000
  S   S8        1.0  0.37554  0.61766  0.67718  1.0000
  N   N1        1.0  0.07319  0.93511  0.69650  1.0000
  N   N2        1.0  0.92690  0.56484  0.19654  1.0000
  N   N3        1.0  0.92679  0.06487  0.30349  1.0000
  N   N4        1.0  0.07311  0.43517  0.80345  1.0000
  N   N5        1.0  0.90355  0.06312  0.70175  1.0000
  N   N6        1.0  0.09653  0.43683  0.20175  1.0000
  N   N7        1.0  0.09647  0.93687  0.29828  1.0000
  N   N8        1.0  0.90347  0.56317  0.79824  1.0000
  N   N9        1.0  0.45573  0.32202  0.69454  1.0000
  N   N10       1.0  0.54433  0.17798  0.19459  1.0000
  N   N11       1.0  0.54427  0.67797  0.30547  1.0000
  N   N12       1.0  0.45569  0.82205  0.80541  1.0000
  N   N13       1.0  0.62964  0.19761  0.70834  1.0000
  N   N14       1.0  0.37038  0.30238  0.20827  1.0000
  N   N15       1.0  0.37037  0.80240  0.29168  1.0000
  N   N16       1.0  0.62959  0.69763  0.79172  1.0000
  Cl  Cl1       1.0  0.37071  0.90355  0.58457  1.0000
  Cl  Cl2       1.0  0.63018  0.59766  0.08438  1.0000
  Cl  Cl3       1.0  0.62930  0.09650  0.41547  1.0000
  Cl  Cl4       1.0  0.36980  0.40235  0.91557  1.0000
  Cl  Cl5       1.0  0.16189  0.85779  0.92683  1.0000
  Cl  Cl6       1.0  0.83806  0.64212  0.42685  1.0000
  Cl  Cl7       1.0  0.83801  0.14209  0.07309  1.0000
  Cl  Cl8       1.0  0.16205  0.35796  0.57318  1.0000
