data_image0
_chemical_formula_structural       Cu2H12C16S4Br2N8
_chemical_formula_sum              "Cu2 H12 C16 S4 Br2 N8"
_cell_length_a       6.73293
_cell_length_b       10.4007
_cell_length_c       10.4009
_cell_angle_alpha    108.88
_cell_angle_beta     105.592
_cell_angle_gamma    105.59

_space_group_name_H-M_alt    "P 1"
_space_group_IT_number       1

loop_
  _space_group_symop_operation_xyz
  'x, y, z'

loop_
  _atom_site_type_symbol
  _atom_site_label
  _atom_site_symmetry_multiplicity
  _atom_site_fract_x
  _atom_site_fract_y
  _atom_site_fract_z
  _atom_site_occupancy
  Cu  Cu1       1.0  0.99999  0.10500  0.89500  1.0000
  Cu  Cu2       1.0  0.00001  0.89499  0.10503  1.0000
  H   H1        1.0  0.72596  0.65293  0.30237  1.0000
  H   H2        1.0  0.27404  0.69761  0.34706  1.0000
  H   H3        1.0  0.27409  0.34714  0.69766  1.0000
  H   H4        1.0  0.72588  0.30233  0.65283  1.0000
  H   H5        1.0  0.81802  0.42227  0.23448  1.0000
  H   H6        1.0  0.18202  0.76554  0.57773  1.0000
  H   H7        1.0  0.18169  0.57773  0.76542  1.0000
  H   H8        1.0  0.81834  0.23458  0.42228  1.0000
  H   H9        1.0  0.50347  0.18256  0.04278  1.0000
  H   H10       1.0  0.49652  0.95722  0.81744  1.0000
  H   H11       1.0  0.49655  0.81733  0.95719  1.0000
  H   H12       1.0  0.50347  0.04282  0.18269  1.0000
  C   C1        1.0  0.24252  0.40869  0.05136  1.0000
  C   C2        1.0  0.75745  0.94863  0.59131  1.0000
  C   C3        1.0  0.75761  0.59133  0.94869  1.0000
  C   C4        1.0  0.24237  0.05131  0.40867  1.0000
  C   C5        1.0  0.60181  0.54450  0.21909  1.0000
  C   C6        1.0  0.39820  0.78090  0.45551  1.0000
  C   C7        1.0  0.39817  0.45561  0.78095  1.0000
  C   C8        1.0  0.60181  0.21904  0.54438  1.0000
  C   C9        1.0  0.65178  0.41906  0.18364  1.0000
  C   C10       1.0  0.34826  0.81635  0.58094  1.0000
  C   C11       1.0  0.34806  0.58099  0.81633  1.0000
  C   C12       1.0  0.65197  0.18368  0.41903  1.0000
  C   C13       1.0  0.47953  0.28624  0.07724  1.0000
  C   C14       1.0  0.52044  0.92274  0.71377  1.0000
  C   C15       1.0  0.52039  0.71370  0.92271  1.0000
  C   C16       1.0  0.47961  0.07729  0.28632  1.0000
  S   S1        1.0  0.96921  0.38295  0.95421  1.0000
  S   S2        1.0  0.03075  0.04578  0.61705  1.0000
  S   S3        1.0  0.03101  0.61707  0.04588  1.0000
  S   S4        1.0  0.96898  0.95411  0.38292  1.0000
  Br  Br1       1.0  0.12959  0.89104  0.89105  1.0000
  Br  Br2       1.0  0.87042  0.10895  0.10897  1.0000
  N   N1        1.0  0.39745  0.54012  0.15236  1.0000
  N   N2        1.0  0.60257  0.84764  0.45987  1.0000
  N   N3        1.0  0.60260  0.45996  0.84769  1.0000
  N   N4        1.0  0.39739  0.15231  0.54004  1.0000
  N   N5        1.0  0.27355  0.27983  0.01222  1.0000
  N   N6        1.0  0.72642  0.98777  0.72016  1.0000
  N   N7        1.0  0.72643  0.72010  0.98776  1.0000
  N   N8        1.0  0.27358  0.01224  0.27990  1.0000
