data_image0
_chemical_formula_structural       Cu4H12C16S4Br4N8
_chemical_formula_sum              "Cu4 H12 C16 S4 Br4 N8"
_cell_length_a       3.95393
_cell_length_b       7.82855
_cell_length_c       21.5754
_cell_angle_alpha    94.6789
_cell_angle_beta     89.9442
_cell_angle_gamma    104.693

_space_group_name_H-M_alt    "P 1"
_space_group_IT_number       1

loop_
  _space_group_symop_operation_xyz
  'x, y, z'

loop_
  _atom_site_type_symbol
  _atom_site_label
  _atom_site_symmetry_multiplicity
  _atom_site_fract_x
  _atom_site_fract_y
  _atom_site_fract_z
  _atom_site_occupancy
  Cu  Cu1       1.0  0.25479  0.98490  0.42935  1.0000
  Cu  Cu2       1.0  0.26889  0.01375  0.07009  1.0000
  Cu  Cu3       1.0  0.74520  0.01510  0.57065  1.0000
  Cu  Cu4       1.0  0.73113  0.98625  0.92991  1.0000
  H   H1        1.0  0.99268  0.54194  0.28531  1.0000
  H   H2        1.0  0.44530  0.45551  0.21358  1.0000
  H   H3        1.0  0.00730  0.45806  0.71469  1.0000
  H   H4        1.0  0.55468  0.54448  0.78642  1.0000
  H   H5        1.0  0.17687  0.55405  0.39785  1.0000
  H   H6        1.0  0.61980  0.44450  0.10106  1.0000
  H   H7        1.0  0.82313  0.44595  0.60215  1.0000
  H   H8        1.0  0.38021  0.55550  0.89894  1.0000
  H   H9        1.0  0.83351  0.31111  0.46169  1.0000
  H   H10       1.0  0.52120  0.68800  0.03746  1.0000
  H   H11       1.0  0.16648  0.68888  0.53831  1.0000
  H   H12       1.0  0.47883  0.31201  0.96255  1.0000
  C   C1        1.0  0.46259  0.17716  0.32429  1.0000
  C   C2        1.0  0.28257  0.82089  0.17495  1.0000
  C   C3        1.0  0.53740  0.82284  0.67571  1.0000
  C   C4        1.0  0.71744  0.17911  0.82505  1.0000
  C   C5        1.0  0.86883  0.43724  0.31480  1.0000
  C   C6        1.0  0.42750  0.56066  0.18421  1.0000
  C   C7        1.0  0.13118  0.56277  0.68520  1.0000
  C   C8        1.0  0.57250  0.43934  0.81579  1.0000
  C   C9        1.0  0.96706  0.44618  0.37718  1.0000
  C   C10       1.0  0.51793  0.55221  0.12185  1.0000
  C   C11       1.0  0.03293  0.55382  0.62283  1.0000
  C   C12       1.0  0.48209  0.44780  0.87815  1.0000
  C   C13       1.0  0.78243  0.31337  0.41219  1.0000
  C   C14       1.0  0.46691  0.68528  0.08695  1.0000
  C   C15       1.0  0.21757  0.68663  0.58781  1.0000
  C   C16       1.0  0.53312  0.31472  0.91305  1.0000
  S   S1        1.0  0.13188  0.98741  0.29819  1.0000
  S   S2        1.0  0.14260  0.01056  0.20125  1.0000
  S   S3        1.0  0.86812  0.01258  0.70181  1.0000
  S   S4        1.0  0.85741  0.98944  0.79875  1.0000
  Br  Br1       1.0  0.69746  0.80987  0.45163  1.0000
  Br  Br2       1.0  0.88644  0.18894  0.04851  1.0000
  Br  Br3       1.0  0.30251  0.19012  0.54836  1.0000
  Br  Br4       1.0  0.11358  0.81105  0.95149  1.0000
  N   N1        1.0  0.52479  0.17926  0.38621  1.0000
  N   N2        1.0  0.34327  0.81914  0.11305  1.0000
  N   N3        1.0  0.47521  0.82075  0.61379  1.0000
  N   N4        1.0  0.65675  0.18087  0.88696  1.0000
  N   N5        1.0  0.61722  0.30196  0.28799  1.0000
  N   N6        1.0  0.31139  0.69580  0.21110  1.0000
  N   N7        1.0  0.38277  0.69804  0.71201  1.0000
  N   N8        1.0  0.68861  0.30421  0.78890  1.0000
