data_image0
_chemical_formula_structural       Cu4H24C32S8Br6N16
_chemical_formula_sum              "Cu4 H24 C32 S8 Br6 N16"
_cell_length_a       10.2631
_cell_length_b       11.0642
_cell_length_c       12.8689
_cell_angle_alpha    115.126
_cell_angle_beta     108.478
_cell_angle_gamma    93.72

_space_group_name_H-M_alt    "P 1"
_space_group_IT_number       1

loop_
  _space_group_symop_operation_xyz
  'x, y, z'

loop_
  _atom_site_type_symbol
  _atom_site_label
  _atom_site_symmetry_multiplicity
  _atom_site_fract_x
  _atom_site_fract_y
  _atom_site_fract_z
  _atom_site_occupancy
  Cu  Cu1       1.0  0.95312  0.06001  0.10898  1.0000
  Cu  Cu2       1.0  0.04688  0.94000  0.89104  1.0000
  Cu  Cu3       1.0  0.35896  0.23645  0.62193  1.0000
  Cu  Cu4       1.0  0.64104  0.76355  0.37808  1.0000
  H   H1        1.0  0.30156  0.94545  0.50143  1.0000
  H   H2        1.0  0.69844  0.05455  0.49857  1.0000
  H   H3        1.0  0.15779  0.74770  0.29096  1.0000
  H   H4        1.0  0.84221  0.25231  0.70905  1.0000
  H   H5        1.0  0.00217  0.80566  0.12736  1.0000
  H   H6        1.0  0.99783  0.19434  0.87264  1.0000
  H   H7        1.0  0.09761  0.62790  0.87680  1.0000
  H   H8        1.0  0.90237  0.37210  0.12319  1.0000
  H   H9        1.0  0.83784  0.50757  0.74855  1.0000
  H   H10       1.0  0.16215  0.49243  0.25143  1.0000
  H   H11       1.0  0.77330  0.33660  0.52473  1.0000
  H   H12       1.0  0.22671  0.66339  0.47527  1.0000
  H   H13       1.0  0.80158  0.59379  0.10294  1.0000
  H   H14       1.0  0.19843  0.40621  0.89706  1.0000
  H   H15       1.0  0.62572  0.69882  0.00101  1.0000
  H   H16       1.0  0.37428  0.30118  0.99898  1.0000
  H   H17       1.0  0.43205  0.53583  0.79381  1.0000
  H   H18       1.0  0.56795  0.46416  0.20618  1.0000
  H   H19       1.0  0.43473  0.20954  0.15806  1.0000
  H   H20       1.0  0.56527  0.79047  0.84194  1.0000
  H   H21       1.0  0.61240  0.18468  0.33147  1.0000
  H   H22       1.0  0.38759  0.81532  0.66853  1.0000
  H   H23       1.0  0.83942  0.12672  0.30636  1.0000
  H   H24       1.0  0.16057  0.87329  0.69364  1.0000
  C   C1        1.0  0.15383  0.11477  0.35813  1.0000
  C   C2        1.0  0.84617  0.88523  0.64187  1.0000
  C   C3        1.0  0.23416  0.96134  0.42608  1.0000
  C   C4        1.0  0.76584  0.03867  0.57393  1.0000
  C   C5        1.0  0.15476  0.85274  0.31002  1.0000
  C   C6        1.0  0.84524  0.14727  0.68998  1.0000
  C   C7        1.0  0.07049  0.88371  0.22086  1.0000
  C   C8        1.0  0.92951  0.11630  0.77915  1.0000
  C   C9        1.0  0.11072  0.43565  0.60860  1.0000
  C   C10       1.0  0.88929  0.56435  0.39140  1.0000
  C   C11       1.0  0.06002  0.55327  0.77858  1.0000
  C   C12       1.0  0.93998  0.44673  0.22142  1.0000
  C   C13       1.0  0.91805  0.48606  0.70868  1.0000
  C   C14       1.0  0.08194  0.51394  0.29131  1.0000
  C   C15       1.0  0.88273  0.39204  0.58434  1.0000
  C   C16       1.0  0.11728  0.60795  0.41566  1.0000
  C   C17       1.0  0.58950  0.31477  0.86114  1.0000
  C   C18       1.0  0.41050  0.68523  0.13885  1.0000
  C   C19       1.0  0.71306  0.52968  0.01494  1.0000
  C   C20       1.0  0.28695  0.47031  0.98506  1.0000
  C   C21       1.0  0.61778  0.58864  0.95854  1.0000
  C   C22       1.0  0.38222  0.41136  0.04145  1.0000
  C   C23       1.0  0.51088  0.49926  0.84537  1.0000
  C   C24       1.0  0.48912  0.50073  0.15463  1.0000
  C   C25       1.0  0.67822  0.13466  0.04567  1.0000
  C   C26       1.0  0.32178  0.86534  0.95433  1.0000
  C   C27       1.0  0.53525  0.18502  0.15415  1.0000
  C   C28       1.0  0.46475  0.81499  0.84584  1.0000
  C   C29       1.0  0.63304  0.17101  0.24958  1.0000
  C   C30       1.0  0.36695  0.82901  0.75042  1.0000
  C   C31       1.0  0.75694  0.13820  0.23557  1.0000
  C   C32       1.0  0.24305  0.86181  0.76443  1.0000
  S   S1        1.0  0.15222  0.27865  0.36894  1.0000
  S   S2        1.0  0.84780  0.72136  0.63107  1.0000
  S   S3        1.0  0.25202  0.41173  0.55439  1.0000
  S   S4        1.0  0.74799  0.58827  0.44561  1.0000
  S   S5        1.0  0.72163  0.10387  0.91486  1.0000
  S   S6        1.0  0.27837  0.89612  0.08514  1.0000
  S   S7        1.0  0.55202  0.13433  0.79978  1.0000
  S   S8        1.0  0.44799  0.86567  0.20022  1.0000
  Br  Br1       1.0  0.13031  0.18169  0.07357  1.0000
  Br  Br2       1.0  0.86969  0.81831  0.92645  1.0000
  Br  Br3       1.0  0.19748  0.16245  0.69982  1.0000
  Br  Br4       1.0  0.80253  0.83754  0.30020  1.0000
  Br  Br5       1.0  0.53960  0.25868  0.53773  1.0000
  Br  Br6       1.0  0.46040  0.74132  0.46227  1.0000
  N   N1        1.0  0.07003  0.01436  0.24413  1.0000
  N   N2        1.0  0.92998  0.98565  0.75587  1.0000
  N   N3        1.0  0.23349  0.09228  0.45009  1.0000
  N   N4        1.0  0.76651  0.90773  0.54992  1.0000
  N   N5        1.0  0.15827  0.52862  0.72849  1.0000
  N   N6        1.0  0.84173  0.47139  0.27151  1.0000
  N   N7        1.0  0.97935  0.36495  0.53267  1.0000
  N   N8        1.0  0.02066  0.63505  0.46733  1.0000
  N   N9        1.0  0.49778  0.36232  0.79439  1.0000
  N   N10       1.0  0.50222  0.63768  0.20560  1.0000
  N   N11       1.0  0.69798  0.39358  0.96746  1.0000
  N   N12       1.0  0.30202  0.60641  0.03253  1.0000
  N   N13       1.0  0.78103  0.11923  0.13303  1.0000
  N   N14       1.0  0.21896  0.88077  0.86697  1.0000
  N   N15       1.0  0.55791  0.16737  0.05188  1.0000
  N   N16       1.0  0.44209  0.83264  0.94811  1.0000
