data_image0
_chemical_formula_structural       Cu4H24C32S8N16Cl6
_chemical_formula_sum              "Cu4 H24 C32 S8 N16 Cl6"
_cell_length_a       9.85612
_cell_length_b       11.1492
_cell_length_c       12.6886
_cell_angle_alpha    64.3396
_cell_angle_beta     69.7697
_cell_angle_gamma    86.2625

_space_group_name_H-M_alt    "P 1"
_space_group_IT_number       1

loop_
  _space_group_symop_operation_xyz
  'x, y, z'

loop_
  _atom_site_type_symbol
  _atom_site_label
  _atom_site_symmetry_multiplicity
  _atom_site_fract_x
  _atom_site_fract_y
  _atom_site_fract_z
  _atom_site_occupancy
  Cu  Cu1       1.0  0.13549  0.11006  0.12126  1.0000
  Cu  Cu2       1.0  0.86453  0.88995  0.87874  1.0000
  Cu  Cu3       1.0  0.54776  0.45267  0.61003  1.0000
  Cu  Cu4       1.0  0.45226  0.54733  0.38997  1.0000
  H   H1        1.0  0.69211  0.98459  0.60870  1.0000
  H   H2        1.0  0.30790  0.01544  0.39128  1.0000
  H   H3        1.0  0.85812  0.19960  0.49944  1.0000
  H   H4        1.0  0.14188  0.80044  0.50054  1.0000
  H   H5        1.0  0.05088  0.24522  0.28983  1.0000
  H   H6        1.0  0.94913  0.75479  0.71015  1.0000
  H   H7        1.0  0.51528  0.18148  0.62491  1.0000
  H   H8        1.0  0.48472  0.81853  0.37509  1.0000
  H   H9        1.0  0.36760  0.95726  0.78659  1.0000
  H   H10       1.0  0.63239  0.04273  0.21338  1.0000
  H   H11       1.0  0.21450  0.94197  0.99832  1.0000
  H   H12       1.0  0.78551  0.05803  0.00166  1.0000
  H   H13       1.0  0.67352  0.31832  0.80949  1.0000
  H   H14       1.0  0.32649  0.68165  0.19051  1.0000
  H   H15       1.0  0.90859  0.35528  0.83724  1.0000
  H   H16       1.0  0.09140  0.64471  0.16278  1.0000
  H   H17       1.0  0.08485  0.55302  0.66359  1.0000
  H   H18       1.0  0.91513  0.44697  0.33645  1.0000
  H   H19       1.0  0.40994  0.25619  0.37998  1.0000
  H   H20       1.0  0.59002  0.74381  0.62003  1.0000
  H   H21       1.0  0.67555  0.26189  0.25249  1.0000
  H   H22       1.0  0.32442  0.73812  0.74753  1.0000
  H   H23       1.0  0.73613  0.31353  0.02686  1.0000
  H   H24       1.0  0.26386  0.68643  0.97318  1.0000
  C   C1        1.0  0.90517  0.95049  0.36375  1.0000
  C   C2        1.0  0.09485  0.04950  0.63624  1.0000
  C   C3        1.0  0.77886  0.01081  0.51854  1.0000
  C   C4        1.0  0.22114  0.98921  0.48145  1.0000
  C   C5        1.0  0.86891  0.12992  0.45859  1.0000
  C   C6        1.0  0.13109  0.87010  0.54139  1.0000
  C   C7        1.0  0.97567  0.15455  0.34407  1.0000
  C   C8        1.0  0.02433  0.84546  0.65591  1.0000
  C   C9        1.0  0.34634  0.25615  0.85693  1.0000
  C   C10       1.0  0.65368  0.74386  0.14305  1.0000
  C   C11       1.0  0.44342  0.16432  0.71856  1.0000
  C   C12       1.0  0.55659  0.83568  0.28143  1.0000
  C   C13       1.0  0.36307  0.04299  0.80672  1.0000
  C   C14       1.0  0.63693  0.95701  0.19327  1.0000
  C   C15       1.0  0.27858  0.03418  0.92318  1.0000
  C   C16       1.0  0.72143  0.96582  0.07681  1.0000
  C   C17       1.0  0.75553  0.40131  0.73963  1.0000
  C   C18       1.0  0.24447  0.59867  0.26038  1.0000
  C   C19       1.0  0.88362  0.42214  0.75481  1.0000
  C   C20       1.0  0.11638  0.57784  0.24521  1.0000
  C   C21       1.0  0.98072  0.53152  0.65921  1.0000
  C   C22       1.0  0.01926  0.46848  0.34081  1.0000
  C   C23       1.0  0.82849  0.58711  0.54954  1.0000
  C   C24       1.0  0.17152  0.41289  0.45047  1.0000
  C   C25       1.0  0.38765  0.32829  0.10990  1.0000
  C   C26       1.0  0.61235  0.67170  0.89010  1.0000
  C   C27       1.0  0.44579  0.27826  0.28133  1.0000
  C   C28       1.0  0.55419  0.72175  0.71867  1.0000
  C   C29       1.0  0.59121  0.28034  0.21163  1.0000
  C   C30       1.0  0.40876  0.71966  0.78838  1.0000
  C   C31       1.0  0.62429  0.30986  0.08631  1.0000
  C   C32       1.0  0.37571  0.69012  0.91371  1.0000
  S   S1        1.0  0.23900  0.35635  0.05475  1.0000
  S   S2        1.0  0.76100  0.64364  0.94525  1.0000
  S   S3        1.0  0.33670  0.40886  0.86810  1.0000
  S   S4        1.0  0.66332  0.59114  0.13189  1.0000
  S   S5        1.0  0.77679  0.68528  0.41882  1.0000
  S   S6        1.0  0.22323  0.31472  0.58119  1.0000
  S   S7        1.0  0.94695  0.83138  0.30282  1.0000
  S   S8        1.0  0.05306  0.16862  0.69719  1.0000
  N   N1        1.0  0.99315  0.06654  0.29501  1.0000
  N   N2        1.0  0.00686  0.93345  0.70498  1.0000
  N   N3        1.0  0.79725  0.92139  0.47180  1.0000
  N   N4        1.0  0.20275  0.07862  0.52819  1.0000
  N   N5        1.0  0.27002  0.14097  0.94793  1.0000
  N   N6        1.0  0.72999  0.85905  0.05205  1.0000
  N   N7        1.0  0.43560  0.27103  0.74322  1.0000
  N   N8        1.0  0.56443  0.72898  0.25677  1.0000
  N   N9        1.0  0.52195  0.33320  0.03398  1.0000
  N   N10       1.0  0.47805  0.66678  0.96604  1.0000
  N   N11       1.0  0.34196  0.30265  0.23049  1.0000
  N   N12       1.0  0.65802  0.69735  0.76951  1.0000
  N   N13       1.0  0.72625  0.48400  0.63660  1.0000
  N   N14       1.0  0.27376  0.51599  0.36341  1.0000
  N   N15       1.0  0.95336  0.61461  0.55608  1.0000
  N   N16       1.0  0.04664  0.38539  0.44395  1.0000
  Cl  Cl1       1.0  0.29149  0.97180  0.20053  1.0000
  Cl  Cl2       1.0  0.70854  0.02821  0.79946  1.0000
  Cl  Cl3       1.0  0.95849  0.20211  0.03997  1.0000
  Cl  Cl4       1.0  0.04151  0.79787  0.96002  1.0000
  Cl  Cl5       1.0  0.37802  0.60164  0.56732  1.0000
  Cl  Cl6       1.0  0.62199  0.39837  0.43267  1.0000
