data_image0
_chemical_formula_structural       Ag2H10C18O12
_chemical_formula_sum              "Ag2 H10 C18 O12"
_cell_length_a       3.81142
_cell_length_b       7.65037
_cell_length_c       15.4463
_cell_angle_alpha    78.5352
_cell_angle_beta     90.884
_cell_angle_gamma    77.1079

_space_group_name_H-M_alt    "P 1"
_space_group_IT_number       1

loop_
  _space_group_symop_operation_xyz
  'x, y, z'

loop_
  _atom_site_type_symbol
  _atom_site_label
  _atom_site_symmetry_multiplicity
  _atom_site_fract_x
  _atom_site_fract_y
  _atom_site_fract_z
  _atom_site_occupancy
  Ag  Ag1       1.0  0.50357  0.13675  0.05005  1.0000
  Ag  Ag2       1.0  0.49644  0.86325  0.94995  1.0000
  H   H1        1.0  0.72288  0.48486  0.43999  1.0000
  H   H2        1.0  0.27712  0.51514  0.56001  1.0000
  H   H3        1.0  0.93600  0.29109  0.33077  1.0000
  H   H4        1.0  0.06400  0.70892  0.66924  1.0000
  H   H5        1.0  0.95382  0.95153  0.26236  1.0000
  H   H6        1.0  0.04618  0.04848  0.73764  1.0000
  H   H7        1.0  0.74149  0.52675  0.09611  1.0000
  H   H8        1.0  0.25851  0.47325  0.90389  1.0000
  H   H9        1.0  0.62046  0.09095  0.44859  1.0000
  H   H10       1.0  0.37953  0.90905  0.55141  1.0000
  C   C1        1.0  0.16712  0.38937  0.17182  1.0000
  C   C2        1.0  0.83288  0.61063  0.82818  1.0000
  C   C3        1.0  0.20447  0.79077  0.13253  1.0000
  C   C4        1.0  0.79553  0.20923  0.86747  1.0000
  C   C5        1.0  0.68972  0.84642  0.42244  1.0000
  C   C6        1.0  0.31028  0.15358  0.57756  1.0000
  C   C7        1.0  0.82762  0.73043  0.35854  1.0000
  C   C8        1.0  0.17238  0.26957  0.64146  1.0000
  C   C9        1.0  0.82389  0.54381  0.37796  1.0000
  C   C10       1.0  0.17610  0.45619  0.62204  1.0000
  C   C11       1.0  0.94271  0.43550  0.31705  1.0000
  C   C12       1.0  0.05728  0.56450  0.68295  1.0000
  C   C13       1.0  0.06152  0.51214  0.23596  1.0000
  C   C14       1.0  0.93848  0.48786  0.76404  1.0000
  C   C15       1.0  0.07018  0.69916  0.21634  1.0000
  C   C16       1.0  0.92981  0.30084  0.78366  1.0000
  C   C17       1.0  0.95226  0.80662  0.27836  1.0000
  C   C18       1.0  0.04774  0.19338  0.72164  1.0000
  O   O1        1.0  0.96246  0.42312  0.09756  1.0000
  O   O2        1.0  0.03754  0.57687  0.90244  1.0000
  O   O3        1.0  0.43080  0.25805  0.18793  1.0000
  O   O4        1.0  0.56920  0.74195  0.81207  1.0000
  O   O5        1.0  0.40082  0.69321  0.08478  1.0000
  O   O6        1.0  0.59919  0.30679  0.91522  1.0000
  O   O7        1.0  0.11567  0.96456  0.11326  1.0000
  O   O8        1.0  0.88433  0.03544  0.88674  1.0000
  O   O9        1.0  0.73709  0.01511  0.40317  1.0000
  O   O10       1.0  0.26290  0.98488  0.59683  1.0000
  O   O11       1.0  0.53688  0.78577  0.48921  1.0000
  O   O12       1.0  0.46312  0.21423  0.51080  1.0000
