data_image0
_chemical_formula_structural       Co4H36C44N12O16
_chemical_formula_sum              "Co4 H36 C44 N12 O16"
_cell_length_a       7.97135
_cell_length_b       12.5522
_cell_length_c       12.8271
_cell_angle_alpha    110.439
_cell_angle_beta     108.694
_cell_angle_gamma    89.7825

_space_group_name_H-M_alt    "P 1"
_space_group_IT_number       1

loop_
  _space_group_symop_operation_xyz
  'x, y, z'

loop_
  _atom_site_type_symbol
  _atom_site_label
  _atom_site_symmetry_multiplicity
  _atom_site_fract_x
  _atom_site_fract_y
  _atom_site_fract_z
  _atom_site_occupancy
  Co  Co1       1.0  0.99953  0.99977  0.00011  1.0000
  Co  Co2       1.0  0.00053  0.49974  0.00015  1.0000
  Co  Co3       1.0  0.81957  0.75037  0.99982  1.0000
  Co  Co4       1.0  0.18108  0.25058  0.00130  1.0000
  H   H1        1.0  0.83645  0.41887  0.69940  1.0000
  H   H2        1.0  0.13786  0.08157  0.29983  1.0000
  H   H3        1.0  0.16477  0.58140  0.30084  1.0000
  H   H4        1.0  0.86115  0.91864  0.70032  1.0000
  H   H5        1.0  0.10907  0.13010  0.71051  1.0000
  H   H6        1.0  0.40083  0.37025  0.29199  1.0000
  H   H7        1.0  0.89050  0.86955  0.28983  1.0000
  H   H8        1.0  0.59987  0.62943  0.70841  1.0000
  H   H9        1.0  0.77279  0.04931  0.54826  1.0000
  H   H10       1.0  0.22423  0.45101  0.45094  1.0000
  H   H11       1.0  0.22714  0.95068  0.45195  1.0000
  H   H12       1.0  0.77602  0.54887  0.54919  1.0000
  H   H13       1.0  0.60757  0.96012  0.32971  1.0000
  H   H14       1.0  0.27615  0.53989  0.66874  1.0000
  H   H15       1.0  0.39211  0.04008  0.67047  1.0000
  H   H16       1.0  0.72423  0.46022  0.33137  1.0000
  H   H17       1.0  0.78551  0.26049  0.28587  1.0000
  H   H18       1.0  0.49959  0.23951  0.71509  1.0000
  H   H19       1.0  0.21453  0.73974  0.71457  1.0000
  H   H20       1.0  0.50081  0.76070  0.28532  1.0000
  H   H21       1.0  0.94578  0.34954  0.50296  1.0000
  H   H22       1.0  0.44462  0.15099  0.49905  1.0000
  H   H23       1.0  0.05458  0.65051  0.49753  1.0000
  H   H24       1.0  0.55557  0.84900  0.50140  1.0000
  H   H25       1.0  0.54049  0.11942  0.12764  1.0000
  H   H26       1.0  0.41213  0.38083  0.87158  1.0000
  H   H27       1.0  0.45941  0.88106  0.87277  1.0000
  H   H28       1.0  0.58825  0.61964  0.12873  1.0000
  H   H29       1.0  0.46391  0.99607  0.14639  1.0000
  H   H30       1.0  0.31426  0.50356  0.85109  1.0000
  H   H31       1.0  0.53558  0.00449  0.85394  1.0000
  H   H32       1.0  0.68647  0.49697  0.14909  1.0000
  H   H33       1.0  0.72071  0.20741  0.90599  1.0000
  H   H34       1.0  0.81207  0.29290  0.09003  1.0000
  H   H35       1.0  0.28051  0.79305  0.09198  1.0000
  H   H36       1.0  0.18528  0.70744  0.90836  1.0000
  C   C1        1.0  0.91663  0.35973  0.73158  1.0000
  C   C2        1.0  0.18669  0.14046  0.26838  1.0000
  C   C3        1.0  0.08403  0.64033  0.26865  1.0000
  C   C4        1.0  0.81284  0.85956  0.73176  1.0000
  C   C5        1.0  0.05811  0.21165  0.73741  1.0000
  C   C6        1.0  0.32291  0.28858  0.26435  1.0000
  C   C7        1.0  0.94195  0.78817  0.26292  1.0000
  C   C8        1.0  0.67733  0.71124  0.73596  1.0000
  C   C9        1.0  0.86786  0.20352  0.53636  1.0000
  C   C10       1.0  0.33222  0.29686  0.46422  1.0000
  C   C11       1.0  0.13230  0.79646  0.46396  1.0000
  C   C12       1.0  0.66793  0.70303  0.53604  1.0000
  C   C13       1.0  0.77794  0.09278  0.48887  1.0000
  C   C14       1.0  0.28876  0.40747  0.51076  1.0000
  C   C15       1.0  0.22203  0.90724  0.51137  1.0000
  C   C16       1.0  0.71148  0.59248  0.48940  1.0000
  C   C17       1.0  0.68643  0.04391  0.36742  1.0000
  C   C18       1.0  0.31773  0.45613  0.63173  1.0000
  C   C19       1.0  0.31330  0.95629  0.63285  1.0000
  C   C20       1.0  0.68266  0.54398  0.36844  1.0000
  C   C21       1.0  0.68470  0.10427  0.29329  1.0000
  C   C22       1.0  0.38989  0.39565  0.70630  1.0000
  C   C23       1.0  0.31506  0.89603  0.70708  1.0000
  C   C24       1.0  0.61059  0.60456  0.29396  1.0000
  C   C25       1.0  0.78080  0.21393  0.34279  1.0000
  C   C26       1.0  0.43764  0.28617  0.65786  1.0000
  C   C27       1.0  0.21919  0.78630  0.65764  1.0000
  C   C28       1.0  0.56276  0.71399  0.34251  1.0000
  C   C29       1.0  0.87147  0.26427  0.46424  1.0000
  C   C30       1.0  0.40800  0.23609  0.53690  1.0000
  C   C31       1.0  0.12873  0.73581  0.53617  1.0000
  C   C32       1.0  0.59220  0.76391  0.46345  1.0000
  C   C33       1.0  0.58198  0.05194  0.16287  1.0000
  C   C34       1.0  0.41712  0.44812  0.83619  1.0000
  C   C35       1.0  0.41767  0.94849  0.83750  1.0000
  C   C36       1.0  0.58346  0.55226  0.16404  1.0000
  C   C37       1.0  0.69840  0.98109  0.09701  1.0000
  C   C38       1.0  0.60011  0.51954  0.90301  1.0000
  C   C39       1.0  0.30100  0.01920  0.90328  1.0000
  C   C40       1.0  0.40067  0.48073  0.09720  1.0000
  C   C41       1.0  0.79549  0.14412  0.85939  1.0000
  C   C42       1.0  0.93518  0.35517  0.13790  1.0000
  C   C43       1.0  0.20440  0.85504  0.13865  1.0000
  C   C44       1.0  0.06337  0.64403  0.86053  1.0000
  N   N1        1.0  0.00231  0.37623  0.84356  1.0000
  N   N2        1.0  0.16086  0.12373  0.15680  1.0000
  N   N3        1.0  0.99850  0.62390  0.15668  1.0000
  N   N4        1.0  0.83847  0.87642  0.84335  1.0000
  N   N5        1.0  0.09157  0.28306  0.84739  1.0000
  N   N6        1.0  0.24659  0.21697  0.15411  1.0000
  N   N7        1.0  0.90892  0.71691  0.15292  1.0000
  N   N8        1.0  0.75317  0.78304  0.84617  1.0000
  N   N9        1.0  0.94886  0.25704  0.66168  1.0000
  N   N10       1.0  0.28881  0.24333  0.33918  1.0000
  N   N11       1.0  0.05138  0.74285  0.33862  1.0000
  N   N12       1.0  0.71127  0.75650  0.66108  1.0000
  O   O1        1.0  0.73404  0.09755  0.74979  1.0000
  O   O2        1.0  0.98465  0.40136  0.24743  1.0000
  O   O3        1.0  0.26437  0.90098  0.24825  1.0000
  O   O4        1.0  0.01535  0.59734  0.75104  1.0000
  O   O5        1.0  0.79103  0.03451  0.06290  1.0000
  O   O6        1.0  0.72784  0.46645  0.93885  1.0000
  O   O7        1.0  0.20925  0.96572  0.93781  1.0000
  O   O8        1.0  0.27246  0.53382  0.06188  1.0000
  O   O9        1.0  0.69472  0.87576  0.08524  1.0000
  O   O10       1.0  0.60759  0.62450  0.91337  1.0000
  O   O11       1.0  0.30422  0.12443  0.91459  1.0000
  O   O12       1.0  0.39314  0.37569  0.08643  1.0000
  O   O13       1.0  0.94556  0.12705  0.92822  1.0000
  O   O14       1.0  0.01755  0.37192  0.07046  1.0000
  O   O15       1.0  0.05372  0.87165  0.06967  1.0000
  O   O16       1.0  0.98129  0.62692  0.92778  1.0000
