data_image0
_chemical_formula_structural       Zn4H40C48N12O20
_chemical_formula_sum              "Zn4 H40 C48 N12 O20"
_cell_length_a       6.31805
_cell_length_b       12.9773
_cell_length_c       17.1706
_cell_angle_alpha    69.9994
_cell_angle_beta     80.7035
_cell_angle_gamma    76.3242

_space_group_name_H-M_alt    "P 1"
_space_group_IT_number       1

loop_
  _space_group_symop_operation_xyz
  'x, y, z'

loop_
  _atom_site_type_symbol
  _atom_site_label
  _atom_site_symmetry_multiplicity
  _atom_site_fract_x
  _atom_site_fract_y
  _atom_site_fract_z
  _atom_site_occupancy
  Zn  Zn1       1.0  0.81778  0.95962  0.21832  1.0000
  Zn  Zn2       1.0  0.99066  0.54059  0.28344  1.0000
  Zn  Zn3       1.0  0.18222  0.04039  0.78167  1.0000
  Zn  Zn4       1.0  0.00933  0.45941  0.71656  1.0000
  H   H1        1.0  0.17751  0.02517  0.19429  1.0000
  H   H2        1.0  0.39168  0.47395  0.30685  1.0000
  H   H3        1.0  0.82249  0.97483  0.80570  1.0000
  H   H4        1.0  0.60832  0.52605  0.69315  1.0000
  H   H5        1.0  0.24754  0.89383  0.22692  1.0000
  H   H6        1.0  0.36695  0.60475  0.27505  1.0000
  H   H7        1.0  0.75245  0.10617  0.77308  1.0000
  H   H8        1.0  0.63304  0.39525  0.72495  1.0000
  H   H9        1.0  0.50507  0.90051  0.53921  1.0000
  H   H10       1.0  0.94503  0.60037  0.95991  1.0000
  H   H11       1.0  0.49494  0.09949  0.46079  1.0000
  H   H12       1.0  0.05497  0.39963  0.04009  1.0000
  H   H13       1.0  0.62439  0.51437  0.55021  1.0000
  H   H14       1.0  0.68873  0.98646  0.94793  1.0000
  H   H15       1.0  0.37561  0.48563  0.44979  1.0000
  H   H16       1.0  0.31128  0.01354  0.05206  1.0000
  H   H17       1.0  0.61796  0.16031  0.27930  1.0000
  H   H18       1.0  0.05546  0.33970  0.22211  1.0000
  H   H19       1.0  0.38204  0.83969  0.72070  1.0000
  H   H20       1.0  0.94452  0.66030  0.77790  1.0000
  H   H21       1.0  0.51060  0.36479  0.21237  1.0000
  H   H22       1.0  0.08675  0.13514  0.28847  1.0000
  H   H23       1.0  0.48939  0.63521  0.78763  1.0000
  H   H24       1.0  0.91324  0.86486  0.71153  1.0000
  H   H25       1.0  0.64343  0.30699  0.97419  1.0000
  H   H26       1.0  0.92608  0.19295  0.52642  1.0000
  H   H27       1.0  0.35656  0.69302  0.02581  1.0000
  H   H28       1.0  0.07394  0.80704  0.47358  1.0000
  H   H29       1.0  0.75711  0.10587  0.04998  1.0000
  H   H30       1.0  0.91235  0.39421  0.45135  1.0000
  H   H31       1.0  0.24288  0.89413  0.95002  1.0000
  H   H32       1.0  0.08767  0.60579  0.54865  1.0000
  H   H33       1.0  0.32924  0.50343  0.07478  1.0000
  H   H34       1.0  0.90577  0.99695  0.42354  1.0000
  H   H35       1.0  0.67074  0.49657  0.92522  1.0000
  H   H36       1.0  0.09424  0.00304  0.57646  1.0000
  H   H37       1.0  0.60088  0.51952  0.06864  1.0000
  H   H38       1.0  0.18595  0.98050  0.43302  1.0000
  H   H39       1.0  0.39911  0.48049  0.93136  1.0000
  H   H40       1.0  0.81406  0.01950  0.56698  1.0000
  C   C1        1.0  0.62321  0.88786  0.38170  1.0000
  C   C2        1.0  0.89453  0.61327  0.11800  1.0000
  C   C3        1.0  0.37680  0.11215  0.61830  1.0000
  C   C4        1.0  0.10546  0.38673  0.88200  1.0000
  C   C5        1.0  0.58446  0.79406  0.46019  1.0000
  C   C6        1.0  0.84070  0.70685  0.03870  1.0000
  C   C7        1.0  0.41555  0.20594  0.53981  1.0000
  C   C8        1.0  0.15929  0.29315  0.96130  1.0000
  C   C9        1.0  0.53123  0.81556  0.53647  1.0000
  C   C10       1.0  0.88424  0.68537  0.96232  1.0000
  C   C11       1.0  0.46878  0.18444  0.46353  1.0000
  C   C12       1.0  0.11576  0.31463  0.03768  1.0000
  C   C13       1.0  0.59646  0.60389  0.54118  1.0000
  C   C14       1.0  0.74233  0.89700  0.95717  1.0000
  C   C15       1.0  0.40355  0.39611  0.45882  1.0000
  C   C16       1.0  0.25768  0.10300  0.04282  1.0000
  C   C17       1.0  0.61583  0.68322  0.46213  1.0000
  C   C18       1.0  0.76254  0.81757  0.03650  1.0000
  C   C19       1.0  0.38418  0.31678  0.53787  1.0000
  C   C20       1.0  0.23747  0.18243  0.96350  1.0000
  C   C21       1.0  0.67065  0.64176  0.38781  1.0000
  C   C22       1.0  0.70182  0.85925  0.11070  1.0000
  C   C23       1.0  0.32935  0.35824  0.61219  1.0000
  C   C24       1.0  0.29819  0.14075  0.88929  1.0000
  C   C25       1.0  0.62518  0.19635  0.21179  1.0000
  C   C26       1.0  0.03078  0.30366  0.28946  1.0000
  C   C27       1.0  0.37482  0.80365  0.78821  1.0000
  C   C28       1.0  0.96921  0.69633  0.71054  1.0000
  C   C29       1.0  0.56295  0.31052  0.17369  1.0000
  C   C30       1.0  0.04531  0.18949  0.32719  1.0000
  C   C31       1.0  0.43704  0.68948  0.82631  1.0000
  C   C32       1.0  0.95469  0.81051  0.67280  1.0000
  C   C33       1.0  0.56680  0.35534  0.08685  1.0000
  C   C34       1.0  0.00768  0.14472  0.41376  1.0000
  C   C35       1.0  0.43319  0.64466  0.91315  1.0000
  C   C36       1.0  0.99232  0.85528  0.58624  1.0000
  C   C37       1.0  0.63657  0.27948  0.04183  1.0000
  C   C38       1.0  0.95763  0.22053  0.45896  1.0000
  C   C39       1.0  0.36341  0.72053  0.95817  1.0000
  C   C40       1.0  0.04238  0.77947  0.54105  1.0000
  C   C41       1.0  0.69921  0.16623  0.08367  1.0000
  C   C42       1.0  0.94792  0.33381  0.41751  1.0000
  C   C43       1.0  0.30079  0.83377  0.91633  1.0000
  C   C44       1.0  0.05209  0.66618  0.58249  1.0000
  C   C45       1.0  0.49618  0.47942  0.04732  1.0000
  C   C46       1.0  0.02176  0.02065  0.45281  1.0000
  C   C47       1.0  0.50380  0.52059  0.95268  1.0000
  C   C48       1.0  0.97825  0.97934  0.54719  1.0000
  N   N1        1.0  0.69473  0.12445  0.16742  1.0000
  N   N2        1.0  0.98372  0.37560  0.33399  1.0000
  N   N3        1.0  0.30526  0.87555  0.83258  1.0000
  N   N4        1.0  0.01628  0.62440  0.66602  1.0000
  N   N5        1.0  0.51528  0.73646  0.61030  1.0000
  N   N6        1.0  0.86134  0.76445  0.88825  1.0000
  N   N7        1.0  0.48473  0.26354  0.38971  1.0000
  N   N8        1.0  0.13866  0.23555  0.11175  1.0000
  N   N9        1.0  0.55003  0.63068  0.61130  1.0000
  N   N10       1.0  0.79171  0.87025  0.88706  1.0000
  N   N11       1.0  0.44997  0.36933  0.38870  1.0000
  N   N12       1.0  0.20829  0.12975  0.11293  1.0000
  O   O1        1.0  0.71650  0.85400  0.31982  1.0000
  O   O2        1.0  0.87774  0.64661  0.18177  1.0000
  O   O3        1.0  0.28351  0.14600  0.68018  1.0000
  O   O4        1.0  0.12226  0.35339  0.81823  1.0000
  O   O5        1.0  0.13289  0.95437  0.23801  1.0000
  O   O6        1.0  0.31738  0.54526  0.26359  1.0000
  O   O7        1.0  0.86711  0.04563  0.76199  1.0000
  O   O8        1.0  0.68262  0.45474  0.73641  1.0000
  O   O9        1.0  0.57294  0.98677  0.38209  1.0000
  O   O10       1.0  0.95562  0.51477  0.11695  1.0000
  O   O11       1.0  0.42706  0.01323  0.61791  1.0000
  O   O12       1.0  0.04436  0.48522  0.88305  1.0000
  O   O13       1.0  0.51720  0.64303  0.34992  1.0000
  O   O14       1.0  0.51230  0.86049  0.14508  1.0000
  O   O15       1.0  0.48279  0.35698  0.65008  1.0000
  O   O16       1.0  0.48770  0.13951  0.85492  1.0000
  O   O17       1.0  0.87514  0.59900  0.37752  1.0000
  O   O18       1.0  0.85422  0.90013  0.12443  1.0000
  O   O19       1.0  0.12486  0.40099  0.62248  1.0000
  O   O20       1.0  0.14579  0.09987  0.87557  1.0000
