data_image0
_chemical_formula_structural       Sn4H36C36N4O8F8
_chemical_formula_sum              "Sn4 H36 C36 N4 O8 F8"
_cell_length_a       7.911
_cell_length_b       7.82308
_cell_length_c       17.1076
_cell_angle_alpha    89.9025
_cell_angle_beta     90.5923
_cell_angle_gamma    90.0571

_space_group_name_H-M_alt    "P 1"
_space_group_IT_number       1

loop_
  _space_group_symop_operation_xyz
  'x, y, z'

loop_
  _atom_site_type_symbol
  _atom_site_label
  _atom_site_symmetry_multiplicity
  _atom_site_fract_x
  _atom_site_fract_y
  _atom_site_fract_z
  _atom_site_occupancy
  Sn  Sn1       1.0  0.25097  0.96411  0.77948  1.0000
  Sn  Sn2       1.0  0.74903  0.03589  0.22052  1.0000
  Sn  Sn3       1.0  0.25016  0.46446  0.71867  1.0000
  Sn  Sn4       1.0  0.74982  0.53555  0.28133  1.0000
  H   H1        1.0  0.25551  0.89242  0.33301  1.0000
  H   H2        1.0  0.74443  0.10752  0.66699  1.0000
  H   H3        1.0  0.25100  0.39730  0.43429  1.0000
  H   H4        1.0  0.74907  0.60267  0.56569  1.0000
  H   H5        1.0  0.24925  0.26507  0.56676  1.0000
  H   H6        1.0  0.75085  0.73492  0.43323  1.0000
  H   H7        1.0  0.52949  0.79099  0.82113  1.0000
  H   H8        1.0  0.47052  0.20905  0.17889  1.0000
  H   H9        1.0  0.48802  0.95316  0.89275  1.0000
  H   H10       1.0  0.51197  0.04688  0.10726  1.0000
  H   H11       1.0  0.58356  0.01061  0.80201  1.0000
  H   H12       1.0  0.41643  0.98943  0.19800  1.0000
  H   H13       1.0  0.92294  0.02728  0.80322  1.0000
  H   H14       1.0  0.07706  0.97276  0.19677  1.0000
  H   H15       1.0  0.01521  0.94416  0.89132  1.0000
  H   H16       1.0  0.98474  0.05582  0.10866  1.0000
  H   H17       1.0  0.96254  0.80156  0.81243  1.0000
  H   H18       1.0  0.03743  0.19847  0.18754  1.0000
  H   H19       1.0  0.58713  0.49133  0.70307  1.0000
  H   H20       1.0  0.41286  0.50866  0.29697  1.0000
  H   H21       1.0  0.48645  0.48583  0.60881  1.0000
  H   H22       1.0  0.51360  0.51417  0.39122  1.0000
  H   H23       1.0  0.51458  0.29098  0.66352  1.0000
  H   H24       1.0  0.48543  0.70902  0.33651  1.0000
  H   H25       1.0  0.91154  0.47972  0.70373  1.0000
  H   H26       1.0  0.08845  0.52028  0.29622  1.0000
  H   H27       1.0  0.98891  0.28588  0.66058  1.0000
  H   H28       1.0  0.01112  0.71411  0.33939  1.0000
  H   H29       1.0  0.00802  0.48606  0.60937  1.0000
  H   H30       1.0  0.99204  0.51392  0.39061  1.0000
  H   H31       1.0  0.24599  0.38486  0.16452  1.0000
  H   H32       1.0  0.75406  0.61514  0.83548  1.0000
  H   H33       1.0  0.25248  0.89235  0.06523  1.0000
  H   H34       1.0  0.74751  0.10767  0.93478  1.0000
  H   H35       1.0  0.25336  0.76281  0.93213  1.0000
  H   H36       1.0  0.74658  0.23722  0.06787  1.0000
  C   C1        1.0  0.25363  0.90512  0.45912  1.0000
  C   C2        1.0  0.74635  0.09485  0.54089  1.0000
  C   C3        1.0  0.25441  0.97470  0.38418  1.0000
  C   C4        1.0  0.74556  0.02524  0.61582  1.0000
  C   C5        1.0  0.25343  0.15164  0.37730  1.0000
  C   C6        1.0  0.74657  0.84832  0.62269  1.0000
  C   C7        1.0  0.25163  0.25921  0.44162  1.0000
  C   C8        1.0  0.74842  0.74075  0.55837  1.0000
  C   C9        1.0  0.25074  0.18414  0.51532  1.0000
  C   C10       1.0  0.74932  0.81584  0.48467  1.0000
  C   C11       1.0  0.25167  0.00607  0.52700  1.0000
  C   C12       1.0  0.74835  0.99391  0.47300  1.0000
  C   C13       1.0  0.25069  0.93987  0.60792  1.0000
  C   C14       1.0  0.74934  0.06013  0.39209  1.0000
  C   C15       1.0  0.49418  0.92428  0.83028  1.0000
  C   C16       1.0  0.50581  0.07576  0.16973  1.0000
  C   C17       1.0  0.00676  0.92953  0.82781  1.0000
  C   C18       1.0  0.99321  0.07049  0.17218  1.0000
  C   C19       1.0  0.49080  0.42826  0.66711  1.0000
  C   C20       1.0  0.50922  0.57174  0.33291  1.0000
  C   C21       1.0  0.00837  0.42354  0.66664  1.0000
  C   C22       1.0  0.99165  0.57646  0.33334  1.0000
  C   C23       1.0  0.25117  0.43870  0.88999  1.0000
  C   C24       1.0  0.74878  0.56132  0.11001  1.0000
  C   C25       1.0  0.25027  0.50312  0.97109  1.0000
  C   C26       1.0  0.74969  0.49690  0.02891  1.0000
  C   C27       1.0  0.24795  0.40056  0.03863  1.0000
  C   C28       1.0  0.75204  0.59947  0.96138  1.0000
  C   C29       1.0  0.24779  0.46847  0.11372  1.0000
  C   C30       1.0  0.75223  0.53155  0.88628  1.0000
  C   C31       1.0  0.24979  0.64508  0.12124  1.0000
  C   C32       1.0  0.75023  0.35493  0.87876  1.0000
  C   C33       1.0  0.25145  0.75440  0.05739  1.0000
  C   C34       1.0  0.74854  0.24562  0.94262  1.0000
  C   C35       1.0  0.25177  0.68092  0.98342  1.0000
  C   C36       1.0  0.74819  0.31910  0.01659  1.0000
  N   N1        1.0  0.24846  0.77501  0.62051  1.0000
  N   N2        1.0  0.75155  0.22499  0.37949  1.0000
  N   N3        1.0  0.25334  0.27399  0.87722  1.0000
  N   N4        1.0  0.74662  0.72604  0.12279  1.0000
  O   O1        1.0  0.25191  0.05746  0.66441  1.0000
  O   O2        1.0  0.74813  0.94255  0.33559  1.0000
  O   O3        1.0  0.24751  0.74091  0.70196  1.0000
  O   O4        1.0  0.75250  0.25909  0.29804  1.0000
  O   O5        1.0  0.25019  0.55721  0.83369  1.0000
  O   O6        1.0  0.74976  0.44279  0.16631  1.0000
  O   O7        1.0  0.25479  0.24067  0.79581  1.0000
  O   O8        1.0  0.74518  0.75934  0.20420  1.0000
  F   F1        1.0  0.25482  0.73188  0.46429  1.0000
  F   F2        1.0  0.74510  0.26809  0.53572  1.0000
  F   F3        1.0  0.25419  0.22103  0.30377  1.0000
  F   F4        1.0  0.74579  0.77889  0.69621  1.0000
  F   F5        1.0  0.24553  0.22733  0.03303  1.0000
  F   F6        1.0  0.75447  0.77268  0.96697  1.0000
  F   F7        1.0  0.24998  0.71217  0.19521  1.0000
  F   F8        1.0  0.75008  0.28783  0.80480  1.0000
