data_image0
_chemical_formula_structural       Zn6H12C36N60
_chemical_formula_sum              "Zn6 H12 C36 N60"
_cell_length_a       11.5998
_cell_length_b       14.1833
_cell_length_c       14.163
_cell_angle_alpha    119.953
_cell_angle_beta     90
_cell_angle_gamma    90

_space_group_name_H-M_alt    "P 1"
_space_group_IT_number       1

loop_
  _space_group_symop_operation_xyz
  'x, y, z'

loop_
  _atom_site_type_symbol
  _atom_site_label
  _atom_site_symmetry_multiplicity
  _atom_site_fract_x
  _atom_site_fract_y
  _atom_site_fract_z
  _atom_site_occupancy
  Zn  Zn1       1.0  0.02809  0.68272  0.53316  1.0000
  Zn  Zn2       1.0  0.36129  0.46692  0.14931  1.0000
  Zn  Zn3       1.0  0.69435  0.85074  0.31740  1.0000
  Zn  Zn4       1.0  0.52809  0.31728  0.46684  1.0000
  Zn  Zn5       1.0  0.86129  0.53308  0.85069  1.0000
  Zn  Zn6       1.0  0.19435  0.14926  0.68260  1.0000
  H   H1        1.0  0.89820  0.02040  0.31541  1.0000
  H   H2        1.0  0.23179  0.68443  0.70492  1.0000
  H   H3        1.0  0.56498  0.29556  0.97981  1.0000
  H   H4        1.0  0.39820  0.97960  0.68459  1.0000
  H   H5        1.0  0.73179  0.31557  0.29508  1.0000
  H   H6        1.0  0.06498  0.70443  0.02019  1.0000
  H   H7        1.0  0.08347  0.11082  0.42207  1.0000
  H   H8        1.0  0.41705  0.57790  0.68893  1.0000
  H   H9        1.0  0.75036  0.31163  0.88928  1.0000
  H   H10       1.0  0.58348  0.88918  0.57793  1.0000
  H   H11       1.0  0.91705  0.42210  0.31107  1.0000
  H   H12       1.0  0.25036  0.68837  0.11072  1.0000
  C   C1        1.0  0.85846  0.80524  0.45376  1.0000
  C   C2        1.0  0.19178  0.54622  0.35129  1.0000
  C   C3        1.0  0.52514  0.64858  0.19485  1.0000
  C   C4        1.0  0.35846  0.19476  0.54624  1.0000
  C   C5        1.0  0.69178  0.45378  0.64871  1.0000
  C   C6        1.0  0.02514  0.35142  0.80515  1.0000
  C   C7        1.0  0.93025  0.88900  0.45071  1.0000
  C   C8        1.0  0.26365  0.54926  0.43820  1.0000
  C   C9        1.0  0.59696  0.56182  0.11108  1.0000
  C   C10       1.0  0.43025  0.11100  0.54929  1.0000
  C   C11       1.0  0.76365  0.45074  0.56180  1.0000
  C   C12       1.0  0.09696  0.43817  0.88892  1.0000
  C   C13       1.0  0.03241  0.93900  0.50920  1.0000
  C   C14       1.0  0.36578  0.49081  0.42987  1.0000
  C   C15       1.0  0.69918  0.57022  0.06106  1.0000
  C   C16       1.0  0.53241  0.06100  0.49080  1.0000
  C   C17       1.0  0.86578  0.50919  0.57013  1.0000
  C   C18       1.0  0.19918  0.42978  0.93894  1.0000
  C   C19       1.0  0.09108  0.92280  0.59150  1.0000
  C   C20       1.0  0.42437  0.40862  0.33144  1.0000
  C   C21       1.0  0.75777  0.66856  0.07722  1.0000
  C   C22       1.0  0.59108  0.07720  0.40850  1.0000
  C   C23       1.0  0.92437  0.59138  0.66856  1.0000
  C   C24       1.0  0.25777  0.33144  0.92278  1.0000
  C   C25       1.0  0.93807  0.99856  0.37166  1.0000
  C   C26       1.0  0.27160  0.62824  0.62686  1.0000
  C   C27       1.0  0.60483  0.37351  0.00158  1.0000
  C   C28       1.0  0.43807  0.00144  0.62834  1.0000
  C   C29       1.0  0.77160  0.37176  0.37314  1.0000
  C   C30       1.0  0.10483  0.62649  0.99842  1.0000
  C   C31       1.0  0.03941  0.04654  0.42896  1.0000
  C   C32       1.0  0.37294  0.57102  0.61769  1.0000
  C   C33       1.0  0.70626  0.38272  0.95358  1.0000
  C   C34       1.0  0.53941  0.95346  0.57104  1.0000
  C   C35       1.0  0.87294  0.42898  0.38231  1.0000
  C   C36       1.0  0.20626  0.61728  0.04642  1.0000
  N   N1        1.0  0.87660  0.73891  0.49473  1.0000
  N   N2        1.0  0.20972  0.50517  0.24391  1.0000
  N   N3        1.0  0.54312  0.75579  0.26105  1.0000
  N   N4        1.0  0.37660  0.26109  0.50527  1.0000
  N   N5        1.0  0.70972  0.49483  0.75609  1.0000
  N   N6        1.0  0.04312  0.24421  0.73895  1.0000
  N   N7        1.0  0.77958  0.67854  0.47421  1.0000
  N   N8        1.0  0.11267  0.52572  0.20404  1.0000
  N   N9        1.0  0.44606  0.79558  0.32143  1.0000
  N   N10       1.0  0.27958  0.32146  0.52579  1.0000
  N   N11       1.0  0.61267  0.47428  0.79596  1.0000
  N   N12       1.0  0.94606  0.20442  0.67857  1.0000
  N   N13       1.0  0.70548  0.70627  0.42228  1.0000
  N   N14       1.0  0.03873  0.57778  0.28378  1.0000
  N   N15       1.0  0.37207  0.71597  0.29382  1.0000
  N   N16       1.0  0.20548  0.29373  0.57772  1.0000
  N   N17       1.0  0.53873  0.42222  0.71622  1.0000
  N   N18       1.0  0.87207  0.28403  0.70618  1.0000
  N   N19       1.0  0.75269  0.78478  0.40817  1.0000
  N   N20       1.0  0.08609  0.59193  0.37645  1.0000
  N   N21       1.0  0.41941  0.62346  0.21540  1.0000
  N   N22       1.0  0.25269  0.21522  0.59183  1.0000
  N   N23       1.0  0.58609  0.40807  0.62355  1.0000
  N   N24       1.0  0.91941  0.37654  0.78460  1.0000
  N   N25       1.0  0.88505  0.92259  0.38449  1.0000
  N   N26       1.0  0.21856  0.61545  0.53799  1.0000
  N   N27       1.0  0.55174  0.46220  0.07753  1.0000
  N   N28       1.0  0.38505  0.07741  0.61551  1.0000
  N   N29       1.0  0.71856  0.38455  0.46201  1.0000
  N   N30       1.0  0.05174  0.53780  0.92247  1.0000
  N   N31       1.0  0.08429  0.01734  0.49673  1.0000
  N   N32       1.0  0.41776  0.50332  0.52075  1.0000
  N   N33       1.0  0.75115  0.47952  0.98274  1.0000
  N   N34       1.0  0.58429  0.98266  0.50327  1.0000
  N   N35       1.0  0.91776  0.49668  0.47925  1.0000
  N   N36       1.0  0.25116  0.52048  0.01726  1.0000
  N   N37       1.0  0.10110  0.83456  0.60239  1.0000
  N   N38       1.0  0.43428  0.39773  0.23218  1.0000
  N   N39       1.0  0.76753  0.76769  0.16543  1.0000
  N   N40       1.0  0.60110  0.16544  0.39761  1.0000
  N   N41       1.0  0.93428  0.60227  0.76782  1.0000
  N   N42       1.0  0.26753  0.23231  0.83457  1.0000
  N   N43       1.0  0.17362  0.86211  0.68733  1.0000
  N   N44       1.0  0.50674  0.31291  0.17490  1.0000
  N   N45       1.0  0.84002  0.82492  0.13774  1.0000
  N   N46       1.0  0.67362  0.13789  0.31267  1.0000
  N   N47       1.0  0.00674  0.68709  0.82510  1.0000
  N   N48       1.0  0.34002  0.17508  0.86226  1.0000
  N   N49       1.0  0.20504  0.96329  0.72754  1.0000
  N   N50       1.0  0.53825  0.27274  0.23603  1.0000
  N   N51       1.0  0.87166  0.76388  0.03650  1.0000
  N   N52       1.0  0.70504  0.03671  0.27246  1.0000
  N   N53       1.0  0.03825  0.72726  0.76397  1.0000
  N   N54       1.0  0.37166  0.23612  0.96350  1.0000
  N   N55       1.0  0.15545  0.00346  0.66894  1.0000
  N   N56       1.0  0.48877  0.33129  0.33482  1.0000
  N   N57       1.0  0.82225  0.66521  0.99647  1.0000
  N   N58       1.0  0.65545  0.99654  0.33106  1.0000
  N   N59       1.0  0.98877  0.66871  0.66518  1.0000
  N   N60       1.0  0.32225  0.33479  0.00353  1.0000
