data_image0
_chemical_formula_structural       Cu4H48C68S8N20
_chemical_formula_sum              "Cu4 H48 C68 S8 N20"
_cell_length_a       7.1443
_cell_length_b       14.3944
_cell_length_c       16.375
_cell_angle_alpha    106.475
_cell_angle_beta     90
_cell_angle_gamma    90

_space_group_name_H-M_alt    "P 1"
_space_group_IT_number       1

loop_
  _space_group_symop_operation_xyz
  'x, y, z'

loop_
  _atom_site_type_symbol
  _atom_site_label
  _atom_site_symmetry_multiplicity
  _atom_site_fract_x
  _atom_site_fract_y
  _atom_site_fract_z
  _atom_site_occupancy
  Cu  Cu1       1.0  0.86148  0.16052  0.62505  1.0000
  Cu  Cu2       1.0  0.36148  0.33949  0.87494  1.0000
  Cu  Cu3       1.0  0.13851  0.83949  0.37495  1.0000
  Cu  Cu4       1.0  0.63852  0.66051  0.12506  1.0000
  H   H1        1.0  0.52484  0.83594  0.44202  1.0000
  H   H2        1.0  0.02484  0.66406  0.05797  1.0000
  H   H3        1.0  0.47517  0.16405  0.55798  1.0000
  H   H4        1.0  0.97517  0.33594  0.94203  1.0000
  H   H5        1.0  0.60059  0.13739  0.75249  1.0000
  H   H6        1.0  0.10059  0.36262  0.74749  1.0000
  H   H7        1.0  0.39939  0.86261  0.24750  1.0000
  H   H8        1.0  0.89938  0.63738  0.25251  1.0000
  H   H9        1.0  0.83997  0.28281  0.34373  1.0000
  H   H10       1.0  0.33998  0.21719  0.15626  1.0000
  H   H11       1.0  0.16003  0.71719  0.65626  1.0000
  H   H12       1.0  0.66002  0.78281  0.84374  1.0000
  H   H13       1.0  0.45479  0.83489  0.69678  1.0000
  H   H14       1.0  0.95477  0.66513  0.80322  1.0000
  H   H15       1.0  0.54522  0.16511  0.30322  1.0000
  H   H16       1.0  0.04523  0.33489  0.19679  1.0000
  H   H17       1.0  0.44463  0.00570  0.79674  1.0000
  H   H18       1.0  0.94463  0.49431  0.70325  1.0000
  H   H19       1.0  0.55537  0.99429  0.20326  1.0000
  H   H20       1.0  0.05536  0.50570  0.29675  1.0000
  H   H21       1.0  0.73755  0.56161  0.54327  1.0000
  H   H22       1.0  0.23756  0.93840  0.95673  1.0000
  H   H23       1.0  0.26244  0.43839  0.45673  1.0000
  H   H24       1.0  0.76244  0.06161  0.04327  1.0000
  H   H25       1.0  0.75878  0.95070  0.51913  1.0000
  H   H26       1.0  0.25877  0.54931  0.98086  1.0000
  H   H27       1.0  0.24122  0.04930  0.48086  1.0000
  H   H28       1.0  0.74122  0.45069  0.01914  1.0000
  H   H29       1.0  0.43564  0.36109  0.19355  1.0000
  H   H30       1.0  0.93569  0.13892  0.30645  1.0000
  H   H31       1.0  0.56435  0.63891  0.80644  1.0000
  H   H32       1.0  0.06434  0.86108  0.69356  1.0000
  H   H33       1.0  0.72858  0.73199  0.63837  1.0000
  H   H34       1.0  0.22857  0.76802  0.86162  1.0000
  H   H35       1.0  0.27143  0.26801  0.36163  1.0000
  H   H36       1.0  0.77143  0.23199  0.13838  1.0000
  H   H37       1.0  0.54076  0.67291  0.33810  1.0000
  H   H38       1.0  0.04079  0.82710  0.16189  1.0000
  H   H39       1.0  0.45922  0.32709  0.66190  1.0000
  H   H40       1.0  0.95923  0.17290  0.83811  1.0000
  H   H41       1.0  0.85295  0.44821  0.44154  1.0000
  H   H42       1.0  0.35296  0.05179  0.05845  1.0000
  H   H43       1.0  0.14705  0.55179  0.55845  1.0000
  H   H44       1.0  0.64705  0.94821  0.94155  1.0000
  H   H45       1.0  0.41923  0.52769  0.28910  1.0000
  H   H46       1.0  0.91928  0.97231  0.21092  1.0000
  H   H47       1.0  0.58075  0.47231  0.71091  1.0000
  H   H48       1.0  0.08076  0.02769  0.78909  1.0000
  C   C1        1.0  0.60801  0.88270  0.60161  1.0000
  C   C2        1.0  0.10800  0.61730  0.89838  1.0000
  C   C3        1.0  0.39199  0.11729  0.39839  1.0000
  C   C4        1.0  0.89200  0.38270  0.10162  1.0000
  C   C5        1.0  0.57274  0.77300  0.46016  1.0000
  C   C6        1.0  0.07275  0.72701  0.03983  1.0000
  C   C7        1.0  0.42725  0.22700  0.53984  1.0000
  C   C8        1.0  0.92726  0.27300  0.96016  1.0000
  C   C9        1.0  0.58119  0.68130  0.40384  1.0000
  C   C10       1.0  0.08121  0.81870  0.09616  1.0000
  C   C11       1.0  0.41880  0.31869  0.59616  1.0000
  C   C12       1.0  0.91880  0.18131  0.90384  1.0000
  C   C13       1.0  0.59953  0.06376  0.71036  1.0000
  C   C14       1.0  0.09953  0.43625  0.78963  1.0000
  C   C15       1.0  0.40046  0.93624  0.28964  1.0000
  C   C16       1.0  0.90045  0.56375  0.21037  1.0000
  C   C17       1.0  0.74857  0.33886  0.33293  1.0000
  C   C18       1.0  0.24859  0.16113  0.16707  1.0000
  C   C19       1.0  0.25143  0.66114  0.66707  1.0000
  C   C20       1.0  0.75141  0.83887  0.83293  1.0000
  C   C21       1.0  0.51783  0.89578  0.67961  1.0000
  C   C22       1.0  0.01782  0.60424  0.82039  1.0000
  C   C23       1.0  0.48217  0.10422  0.32039  1.0000
  C   C24       1.0  0.98218  0.39577  0.17961  1.0000
  C   C25       1.0  0.75511  0.43195  0.38856  1.0000
  C   C26       1.0  0.25512  0.06805  0.11144  1.0000
  C   C27       1.0  0.24489  0.56805  0.61144  1.0000
  C   C28       1.0  0.74488  0.93195  0.88856  1.0000
  C   C29       1.0  0.51294  0.98913  0.73463  1.0000
  C   C30       1.0  0.01293  0.51088  0.76536  1.0000
  C   C31       1.0  0.48706  0.01086  0.26536  1.0000
  C   C32       1.0  0.98706  0.48913  0.23464  1.0000
  C   C33       1.0  0.63598  0.50311  0.37440  1.0000
  C   C34       1.0  0.13600  0.99690  0.12561  1.0000
  C   C35       1.0  0.36401  0.49689  0.62560  1.0000
  C   C36       1.0  0.86401  0.00310  0.87439  1.0000
  C   C37       1.0  0.86402  0.32553  0.54430  1.0000
  C   C38       1.0  0.36402  0.17447  0.95570  1.0000
  C   C39       1.0  0.13597  0.67448  0.45571  1.0000
  C   C40       1.0  0.63597  0.82550  0.04429  1.0000
  C   C41       1.0  0.69109  0.62016  0.51790  1.0000
  C   C42       1.0  0.19110  0.87985  0.98210  1.0000
  C   C43       1.0  0.30890  0.37984  0.48210  1.0000
  C   C44       1.0  0.80890  0.12015  0.01790  1.0000
  C   C45       1.0  0.72841  0.32768  0.78044  1.0000
  C   C46       1.0  0.22841  0.17233  0.71956  1.0000
  C   C47       1.0  0.27159  0.67233  0.21956  1.0000
  C   C48       1.0  0.77159  0.82767  0.28044  1.0000
  C   C49       1.0  0.51711  0.47649  0.30332  1.0000
  C   C50       1.0  0.01715  0.02351  0.19669  1.0000
  C   C51       1.0  0.48288  0.52351  0.69668  1.0000
  C   C52       1.0  0.98287  0.97649  0.80331  1.0000
  C   C53       1.0  0.68787  0.96089  0.58015  1.0000
  C   C54       1.0  0.18787  0.53912  0.91984  1.0000
  C   C55       1.0  0.31213  0.03911  0.41985  1.0000
  C   C56       1.0  0.81213  0.46088  0.08016  1.0000
  C   C57       1.0  0.52355  0.38187  0.25054  1.0000
  C   C58       1.0  0.02358  0.11813  0.24946  1.0000
  C   C59       1.0  0.47644  0.61813  0.74946  1.0000
  C   C60       1.0  0.97644  0.88187  0.75054  1.0000
  C   C61       1.0  0.63623  0.60214  0.43216  1.0000
  C   C62       1.0  0.13625  0.89786  0.06784  1.0000
  C   C63       1.0  0.36376  0.39785  0.56785  1.0000
  C   C64       1.0  0.86376  0.10214  0.93216  1.0000
  C   C65       1.0  0.68423  0.71292  0.57179  1.0000
  C   C66       1.0  0.18423  0.78709  0.92821  1.0000
  C   C67       1.0  0.31577  0.28707  0.42821  1.0000
  C   C68       1.0  0.81577  0.21292  0.07179  1.0000
  S   S1        1.0  0.87725  0.20710  0.50174  1.0000
  S   S2        1.0  0.37725  0.29290  0.99826  1.0000
  S   S3        1.0  0.12274  0.79291  0.49827  1.0000
  S   S4        1.0  0.62276  0.70708  0.00173  1.0000
  S   S5        1.0  0.64410  0.41395  0.85967  1.0000
  S   S6        1.0  0.14409  0.08606  0.64033  1.0000
  S   S7        1.0  0.35590  0.58606  0.14033  1.0000
  S   S8        1.0  0.85591  0.91394  0.35967  1.0000
  N   N1        1.0  0.62209  0.78755  0.54299  1.0000
  N   N2        1.0  0.12209  0.71246  0.95701  1.0000
  N   N3        1.0  0.37791  0.21245  0.45701  1.0000
  N   N4        1.0  0.87792  0.28755  0.04299  1.0000
  N   N5        1.0  0.79006  0.26611  0.72243  1.0000
  N   N6        1.0  0.29007  0.23390  0.77757  1.0000
  N   N7        1.0  0.20994  0.73390  0.27758  1.0000
  N   N8        1.0  0.70993  0.76610  0.22243  1.0000
  N   N9        1.0  0.68500  0.05082  0.63441  1.0000
  N   N10       1.0  0.18500  0.44919  0.86558  1.0000
  N   N11       1.0  0.31499  0.94918  0.36559  1.0000
  N   N12       1.0  0.81499  0.55082  0.13442  1.0000
  N   N13       1.0  0.63554  0.31275  0.26453  1.0000
  N   N14       1.0  0.13557  0.18725  0.23547  1.0000
  N   N15       1.0  0.36445  0.68725  0.73546  1.0000
  N   N16       1.0  0.86444  0.81275  0.76454  1.0000
  N   N17       1.0  0.85289  0.41071  0.57314  1.0000
  N   N18       1.0  0.35288  0.08930  0.92685  1.0000
  N   N19       1.0  0.14710  0.58930  0.42686  1.0000
  N   N20       1.0  0.64711  0.91069  0.07314  1.0000
