data_image0
_chemical_formula_structural       Zn2Mo4H28C12S8N4O16
_chemical_formula_sum              "Zn2 Mo4 H28 C12 S8 N4 O16"
_cell_length_a       8.62413
_cell_length_b       9.93303
_cell_length_c       10.2069
_cell_angle_alpha    89.9996
_cell_angle_beta     90.0002
_cell_angle_gamma    107.981

_space_group_name_H-M_alt    "P 1"
_space_group_IT_number       1

loop_
  _space_group_symop_operation_xyz
  'x, y, z'

loop_
  _atom_site_type_symbol
  _atom_site_label
  _atom_site_symmetry_multiplicity
  _atom_site_fract_x
  _atom_site_fract_y
  _atom_site_fract_z
  _atom_site_occupancy
  Zn  Zn1       1.0  0.46328  0.15704  0.40640  1.0000
  Zn  Zn2       1.0  0.53672  0.84296  0.90640  1.0000
  Mo  Mo1       1.0  0.05408  0.19075  0.41003  1.0000
  Mo  Mo2       1.0  0.94592  0.80925  0.91003  1.0000
  Mo  Mo3       1.0  0.88351  0.38547  0.46741  1.0000
  Mo  Mo4       1.0  0.11650  0.61453  0.96741  1.0000
  H   H1        1.0  0.92600  0.96488  0.22957  1.0000
  H   H2        1.0  0.07399  0.03512  0.72957  1.0000
  H   H3        1.0  0.12418  0.99296  0.24224  1.0000
  H   H4        1.0  0.87582  0.00704  0.74224  1.0000
  H   H5        1.0  0.89589  0.50972  0.71517  1.0000
  H   H6        1.0  0.10411  0.49029  0.21517  1.0000
  H   H7        1.0  0.83365  0.60813  0.60773  1.0000
  H   H8        1.0  0.16636  0.39187  0.10774  1.0000
  H   H9        1.0  0.24197  0.86809  0.39653  1.0000
  H   H10       1.0  0.75802  0.13191  0.89653  1.0000
  H   H11       1.0  0.13435  0.80935  0.54450  1.0000
  H   H12       1.0  0.86565  0.19065  0.04450  1.0000
  H   H13       1.0  0.95338  0.76467  0.34286  1.0000
  H   H14       1.0  0.04662  0.23533  0.84286  1.0000
  H   H15       1.0  0.55361  0.56863  0.54999  1.0000
  H   H16       1.0  0.44640  0.43138  0.05000  1.0000
  H   H17       1.0  0.41106  0.39901  0.58220  1.0000
  H   H18       1.0  0.58894  0.60100  0.08221  1.0000
  H   H19       1.0  0.61851  0.48327  0.76448  1.0000
  H   H20       1.0  0.38149  0.51674  0.26449  1.0000
  H   H21       1.0  0.34087  0.15898  0.15771  1.0000
  H   H22       1.0  0.65914  0.84101  0.65771  1.0000
  H   H23       1.0  0.43020  0.03974  0.16219  1.0000
  H   H24       1.0  0.56979  0.96024  0.66218  1.0000
  H   H25       1.0  0.51771  0.91447  0.37499  1.0000
  H   H26       1.0  0.48229  0.08553  0.87498  1.0000
  H   H27       1.0  0.66346  0.01809  0.46128  1.0000
  H   H28       1.0  0.33655  0.98191  0.96127  1.0000
  C   C1        1.0  0.99284  0.86873  0.39112  1.0000
  C   C2        1.0  0.00716  0.13127  0.89112  1.0000
  C   C3        1.0  0.86306  0.88235  0.48644  1.0000
  C   C4        1.0  0.13693  0.11763  0.98643  1.0000
  C   C5        1.0  0.15194  0.88615  0.46435  1.0000
  C   C6        1.0  0.84806  0.11385  0.96435  1.0000
  C   C7        1.0  0.64921  0.43675  0.67436  1.0000
  C   C8        1.0  0.35079  0.56325  0.17437  1.0000
  C   C9        1.0  0.62591  0.27956  0.69387  1.0000
  C   C10       1.0  0.37409  0.72045  0.19388  1.0000
  C   C11       1.0  0.53977  0.45594  0.56263  1.0000
  C   C12       1.0  0.46023  0.54406  0.06264  1.0000
  S   S1        1.0  0.07393  0.32565  0.59829  1.0000
  S   S2        1.0  0.92608  0.67435  0.09829  1.0000
  S   S3        1.0  0.83387  0.22282  0.29588  1.0000
  S   S4        1.0  0.16613  0.77718  0.79588  1.0000
  S   S5        1.0  0.22730  0.06480  0.53610  1.0000
  S   S6        1.0  0.77270  0.93520  0.03610  1.0000
  S   S7        1.0  0.60173  0.39487  0.40699  1.0000
  S   S8        1.0  0.39827  0.60513  0.90700  1.0000
  N   N1        1.0  0.02091  0.98581  0.29587  1.0000
  N   N2        1.0  0.97908  0.01419  0.79587  1.0000
  N   N3        1.0  0.82084  0.50558  0.63614  1.0000
  N   N4        1.0  0.17916  0.49442  0.13615  1.0000
  O   O1        1.0  0.21650  0.28238  0.31776  1.0000
  O   O2        1.0  0.78350  0.71762  0.81777  1.0000
  O   O3        1.0  0.99704  0.53932  0.39624  1.0000
  O   O4        1.0  0.00296  0.46068  0.89625  1.0000
  O   O5        1.0  0.77077  0.77823  0.54607  1.0000
  O   O6        1.0  0.22924  0.22177  0.04607  1.0000
  O   O7        1.0  0.86063  0.01088  0.50372  1.0000
  O   O8        1.0  0.13937  0.98912  0.00371  1.0000
  O   O9        1.0  0.52623  0.21256  0.77836  1.0000
  O   O10       1.0  0.47376  0.78744  0.27837  1.0000
  O   O11       1.0  0.70838  0.22749  0.61455  1.0000
  O   O12       1.0  0.29162  0.77252  0.11455  1.0000
  O   O13       1.0  0.38820  0.10108  0.21750  1.0000
  O   O14       1.0  0.61180  0.89891  0.71749  1.0000
  O   O15       1.0  0.54424  0.99034  0.44562  1.0000
  O   O16       1.0  0.45577  0.00966  0.94561  1.0000
