data_image0
_chemical_formula_structural       Mn4H20C24N8O20
_chemical_formula_sum              "Mn4 H20 C24 N8 O20"
_cell_length_a       7.60017
_cell_length_b       9.43334
_cell_length_c       11.1294
_cell_angle_alpha    90.0025
_cell_angle_beta     89.9958
_cell_angle_gamma    100.084

_space_group_name_H-M_alt    "P 1"
_space_group_IT_number       1

loop_
  _space_group_symop_operation_xyz
  'x, y, z'

loop_
  _atom_site_type_symbol
  _atom_site_label
  _atom_site_symmetry_multiplicity
  _atom_site_fract_x
  _atom_site_fract_y
  _atom_site_fract_z
  _atom_site_occupancy
  Mn  Mn1       1.0  0.78450  0.48811  0.32789  1.0000
  Mn  Mn2       1.0  0.71552  0.01188  0.82791  1.0000
  Mn  Mn3       1.0  0.21552  0.51188  0.67210  1.0000
  Mn  Mn4       1.0  0.28447  0.98813  0.17209  1.0000
  H   H1        1.0  0.92977  0.69666  0.09452  1.0000
  H   H2        1.0  0.57021  0.80333  0.59452  1.0000
  H   H3        1.0  0.07022  0.30333  0.90549  1.0000
  H   H4        1.0  0.42978  0.19667  0.40548  1.0000
  H   H5        1.0  0.89382  0.67263  0.86585  1.0000
  H   H6        1.0  0.60618  0.82736  0.36585  1.0000
  H   H7        1.0  0.10619  0.32737  0.13416  1.0000
  H   H8        1.0  0.39382  0.17263  0.63416  1.0000
  H   H9        1.0  0.69357  0.44760  0.78872  1.0000
  H   H10       1.0  0.80643  0.05240  0.28872  1.0000
  H   H11       1.0  0.30643  0.55241  0.21127  1.0000
  H   H12       1.0  0.19357  0.94759  0.71128  1.0000
  H   H13       1.0  0.11108  0.44816  0.39906  1.0000
  H   H14       1.0  0.38891  0.05183  0.89907  1.0000
  H   H15       1.0  0.88894  0.55183  0.60093  1.0000
  H   H16       1.0  0.61106  0.94818  0.10093  1.0000
  H   H17       1.0  0.97951  0.29454  0.39818  1.0000
  H   H18       1.0  0.52048  0.20546  0.89818  1.0000
  H   H19       1.0  0.02050  0.70545  0.60182  1.0000
  H   H20       1.0  0.47950  0.79455  0.10181  1.0000
  C   C1        1.0  0.84435  0.60572  0.05139  1.0000
  C   C2        1.0  0.65565  0.89427  0.55139  1.0000
  C   C3        1.0  0.15566  0.39427  0.94862  1.0000
  C   C4        1.0  0.34435  0.10574  0.44861  1.0000
  C   C5        1.0  0.82576  0.59155  0.92743  1.0000
  C   C6        1.0  0.67423  0.90844  0.42744  1.0000
  C   C7        1.0  0.17425  0.40844  0.07257  1.0000
  C   C8        1.0  0.32576  0.09155  0.57257  1.0000
  C   C9        1.0  0.71654  0.46777  0.88440  1.0000
  C   C10       1.0  0.78345  0.03223  0.38440  1.0000
  C   C11       1.0  0.28346  0.53223  0.11560  1.0000
  C   C12       1.0  0.21655  0.96777  0.61560  1.0000
  C   C13       1.0  0.65639  0.38851  0.07700  1.0000
  C   C14       1.0  0.84360  0.11148  0.57700  1.0000
  C   C15       1.0  0.34362  0.61148  0.92300  1.0000
  C   C16       1.0  0.15638  0.88853  0.42300  1.0000
  C   C17       1.0  0.56287  0.27710  0.16446  1.0000
  C   C18       1.0  0.93713  0.22290  0.66445  1.0000
  C   C19       1.0  0.43714  0.72290  0.83554  1.0000
  C   C20       1.0  0.06287  0.77712  0.33554  1.0000
  C   C21       1.0  0.44713  0.53341  0.45071  1.0000
  C   C22       1.0  0.05288  0.96659  0.95071  1.0000
  C   C23       1.0  0.55291  0.46658  0.54928  1.0000
  C   C24       1.0  0.94709  0.03342  0.04930  1.0000
  N   N1        1.0  0.76144  0.50343  0.12641  1.0000
  N   N2        1.0  0.73856  0.99656  0.62642  1.0000
  N   N3        1.0  0.23857  0.49656  0.87359  1.0000
  N   N4        1.0  0.26142  0.00345  0.37358  1.0000
  N   N5        1.0  0.62939  0.36750  0.95930  1.0000
  N   N6        1.0  0.87060  0.13249  0.45930  1.0000
  N   N7        1.0  0.37061  0.63250  0.04070  1.0000
  N   N8        1.0  0.12940  0.86750  0.54070  1.0000
  O   O1        1.0  0.62233  0.28406  0.27124  1.0000
  O   O2        1.0  0.87768  0.21593  0.77123  1.0000
  O   O3        1.0  0.37768  0.71593  0.72876  1.0000
  O   O4        1.0  0.12233  0.78408  0.22875  1.0000
  O   O5        1.0  0.43155  0.18859  0.12454  1.0000
  O   O6        1.0  0.06843  0.31141  0.62452  1.0000
  O   O7        1.0  0.56843  0.81141  0.87547  1.0000
  O   O8        1.0  0.93157  0.68859  0.37546  1.0000
  O   O9        1.0  0.52311  0.56302  0.35088  1.0000
  O   O10       1.0  0.97691  0.93697  0.85089  1.0000
  O   O11       1.0  0.47693  0.43697  0.64912  1.0000
  O   O12       1.0  0.02305  0.06304  0.14913  1.0000
  O   O13       1.0  0.29084  0.55369  0.47893  1.0000
  O   O14       1.0  0.20916  0.94630  0.97892  1.0000
  O   O15       1.0  0.70918  0.44629  0.52106  1.0000
  O   O16       1.0  0.79082  0.05372  0.02108  1.0000
  O   O17       1.0  0.01486  0.38780  0.35265  1.0000
  O   O18       1.0  0.48514  0.11219  0.85265  1.0000
  O   O19       1.0  0.98515  0.61219  0.64735  1.0000
  O   O20       1.0  0.51484  0.88782  0.14735  1.0000
