data_image0
_chemical_formula_structural       Cu2H32C28S4N12
_chemical_formula_sum              "Cu2 H32 C28 S4 N12"
_cell_length_a       6.47876
_cell_length_b       11.5323
_cell_length_c       11.5336
_cell_angle_alpha    102.979
_cell_angle_beta     90.0037
_cell_angle_gamma    90.0038

_space_group_name_H-M_alt    "P 1"
_space_group_IT_number       1

loop_
  _space_group_symop_operation_xyz
  'x, y, z'

loop_
  _atom_site_type_symbol
  _atom_site_label
  _atom_site_symmetry_multiplicity
  _atom_site_fract_x
  _atom_site_fract_y
  _atom_site_fract_z
  _atom_site_occupancy
  Cu  Cu1       1.0  0.66393  0.36128  0.36129  1.0000
  Cu  Cu2       1.0  0.16390  0.63873  0.63872  1.0000
  H   H1        1.0  0.69909  0.04654  0.79022  1.0000
  H   H2        1.0  0.19908  0.95347  0.20978  1.0000
  H   H3        1.0  0.19913  0.20980  0.95346  1.0000
  H   H4        1.0  0.69915  0.79020  0.04654  1.0000
  H   H5        1.0  0.91301  0.31872  0.56284  1.0000
  H   H6        1.0  0.41300  0.68129  0.43717  1.0000
  H   H7        1.0  0.41292  0.43718  0.68128  1.0000
  H   H8        1.0  0.91298  0.56284  0.31873  1.0000
  H   H9        1.0  0.89690  0.19505  0.71283  1.0000
  H   H10       1.0  0.39691  0.80496  0.28718  1.0000
  H   H11       1.0  0.39682  0.28716  0.80494  1.0000
  H   H12       1.0  0.89687  0.71285  0.19506  1.0000
  H   H13       1.0  0.31645  0.05305  0.55160  1.0000
  H   H14       1.0  0.81651  0.94695  0.44840  1.0000
  H   H15       1.0  0.81646  0.44841  0.94693  1.0000
  H   H16       1.0  0.31640  0.55158  0.05308  1.0000
  H   H17       1.0  0.36379  0.17897  0.40634  1.0000
  H   H18       1.0  0.86384  0.82103  0.59365  1.0000
  H   H19       1.0  0.86377  0.59368  0.82102  1.0000
  H   H20       1.0  0.36373  0.40631  0.17899  1.0000
  H   H21       1.0  0.25908  0.02512  0.74862  1.0000
  H   H22       1.0  0.75912  0.97485  0.25135  1.0000
  H   H23       1.0  0.75917  0.25132  0.97482  1.0000
  H   H24       1.0  0.25917  0.74868  0.02516  1.0000
  H   H25       1.0  0.42355  0.93774  0.81816  1.0000
  H   H26       1.0  0.92356  0.06224  0.18183  1.0000
  H   H27       1.0  0.92364  0.18179  0.06222  1.0000
  H   H28       1.0  0.42365  0.81821  0.93778  1.0000
  H   H29       1.0  0.39340  0.90025  0.66117  1.0000
  H   H30       1.0  0.89342  0.09974  0.33881  1.0000
  H   H31       1.0  0.89347  0.33881  0.09968  1.0000
  H   H32       1.0  0.39341  0.66119  0.90031  1.0000
  C   C1        1.0  0.66181  0.57236  0.57234  1.0000
  C   C2        1.0  0.16181  0.42764  0.42766  1.0000
  C   C3        1.0  0.49147  0.16186  0.16191  1.0000
  C   C4        1.0  0.99144  0.83813  0.83809  1.0000
  C   C5        1.0  0.78506  0.25755  0.56337  1.0000
  C   C6        1.0  0.28506  0.74246  0.43664  1.0000
  C   C7        1.0  0.28499  0.43663  0.74245  1.0000
  C   C8        1.0  0.78503  0.56337  0.25756  1.0000
  C   C9        1.0  0.77466  0.18883  0.64679  1.0000
  C   C10       1.0  0.27467  0.81118  0.35322  1.0000
  C   C11       1.0  0.27461  0.35321  0.81116  1.0000
  C   C12       1.0  0.77465  0.64679  0.18884  1.0000
  C   C13       1.0  0.60212  0.11332  0.64819  1.0000
  C   C14       1.0  0.10215  0.88669  0.35181  1.0000
  C   C15       1.0  0.10211  0.35182  0.88668  1.0000
  C   C16       1.0  0.60211  0.64818  0.11333  1.0000
  C   C17       1.0  0.45197  0.10989  0.55794  1.0000
  C   C18       1.0  0.95201  0.89011  0.44206  1.0000
  C   C19       1.0  0.95196  0.44207  0.89009  1.0000
  C   C20       1.0  0.45192  0.55792  0.10991  1.0000
  C   C21       1.0  0.47771  0.18003  0.47622  1.0000
  C   C22       1.0  0.97774  0.81997  0.52378  1.0000
  C   C23       1.0  0.97768  0.52379  0.81995  1.0000
  C   C24       1.0  0.47766  0.47620  0.18005  1.0000
  C   C25       1.0  0.40467  0.97456  0.73943  1.0000
  C   C26       1.0  0.90469  0.02543  0.26056  1.0000
  C   C27       1.0  0.90473  0.26053  0.02541  1.0000
  C   C28       1.0  0.40473  0.73947  0.97459  1.0000
  S   S1        1.0  0.58899  0.67987  0.67987  1.0000
  S   S2        1.0  0.08902  0.32012  0.32011  1.0000
  S   S3        1.0  0.35747  0.06656  0.06659  1.0000
  S   S4        1.0  0.85746  0.93342  0.93340  1.0000
  N   N1        1.0  0.71934  0.49391  0.49384  1.0000
  N   N2        1.0  0.21930  0.50610  0.50616  1.0000
  N   N3        1.0  0.59278  0.23057  0.23063  1.0000
  N   N4        1.0  0.09274  0.76942  0.76937  1.0000
  N   N5        1.0  0.63927  0.25428  0.47850  1.0000
  N   N6        1.0  0.13928  0.74573  0.52151  1.0000
  N   N7        1.0  0.13923  0.52152  0.74572  1.0000
  N   N8        1.0  0.63924  0.47848  0.25428  1.0000
  N   N9        1.0  0.58038  0.05034  0.73295  1.0000
  N   N10       1.0  0.08040  0.94966  0.26706  1.0000
  N   N11       1.0  0.08042  0.26707  0.94966  1.0000
  N   N12       1.0  0.58043  0.73293  0.05035  1.0000
