data_image0
_chemical_formula_structural       Cd4H16C16N24Cl8
_chemical_formula_sum              "Cd4 H16 C16 N24 Cl8"
_cell_length_a       6.49301
_cell_length_b       11.1951
_cell_length_c       13.7666
_cell_angle_alpha    106.508
_cell_angle_beta     89.999
_cell_angle_gamma    106.875

_space_group_name_H-M_alt    "P 1"
_space_group_IT_number       1

loop_
  _space_group_symop_operation_xyz
  'x, y, z'

loop_
  _atom_site_type_symbol
  _atom_site_label
  _atom_site_symmetry_multiplicity
  _atom_site_fract_x
  _atom_site_fract_y
  _atom_site_fract_z
  _atom_site_occupancy
  Cd  Cd1       1.0  0.33436  0.99991  0.10561  1.0000
  Cd  Cd2       1.0  0.33449  0.00031  0.39440  1.0000
  Cd  Cd3       1.0  0.66564  0.00009  0.89439  1.0000
  Cd  Cd4       1.0  0.66551  0.99969  0.60560  1.0000
  H   H1        1.0  0.84568  0.72137  0.02966  1.0000
  H   H2        1.0  0.12460  0.27905  0.47028  1.0000
  H   H3        1.0  0.15432  0.27863  0.97034  1.0000
  H   H4        1.0  0.87540  0.72095  0.52972  1.0000
  H   H5        1.0  0.81465  0.75210  0.34472  1.0000
  H   H6        1.0  0.06238  0.24787  0.15512  1.0000
  H   H7        1.0  0.18535  0.24791  0.65528  1.0000
  H   H8        1.0  0.93762  0.75213  0.84488  1.0000
  H   H9        1.0  0.37263  0.75465  0.19505  1.0000
  H   H10       1.0  0.61791  0.24548  0.30489  1.0000
  H   H11       1.0  0.62737  0.24535  0.80495  1.0000
  H   H12       1.0  0.38209  0.75452  0.69510  1.0000
  H   H13       1.0  0.61362  0.42891  0.10823  1.0000
  H   H14       1.0  0.18496  0.57114  0.39160  1.0000
  H   H15       1.0  0.38638  0.57109  0.89177  1.0000
  H   H16       1.0  0.81503  0.42886  0.60840  1.0000
  C   C1        1.0  0.89122  0.75361  0.11128  1.0000
  C   C2        1.0  0.13786  0.24673  0.38864  1.0000
  C   C3        1.0  0.10878  0.24639  0.88872  1.0000
  C   C4        1.0  0.86214  0.75327  0.61135  1.0000
  C   C5        1.0  0.87471  0.76838  0.27461  1.0000
  C   C6        1.0  0.10613  0.23168  0.22528  1.0000
  C   C7        1.0  0.12529  0.23163  0.72539  1.0000
  C   C8        1.0  0.89387  0.76832  0.77472  1.0000
  C   C9        1.0  0.37159  0.65351  0.16846  1.0000
  C   C10       1.0  0.71813  0.34659  0.33143  1.0000
  C   C11       1.0  0.62842  0.34649  0.83153  1.0000
  C   C12       1.0  0.28186  0.65340  0.66857  1.0000
  C   C13       1.0  0.50082  0.48588  0.12352  1.0000
  C   C14       1.0  0.01515  0.51423  0.37632  1.0000
  C   C15       1.0  0.49919  0.51412  0.87648  1.0000
  C   C16       1.0  0.98484  0.48577  0.62368  1.0000
  N   N1        1.0  0.07056  0.83832  0.16147  1.0000
  N   N2        1.0  0.23253  0.16205  0.33848  1.0000
  N   N3        1.0  0.92944  0.16168  0.83853  1.0000
  N   N4        1.0  0.76748  0.83795  0.66151  1.0000
  N   N5        1.0  0.06036  0.84755  0.26341  1.0000
  N   N6        1.0  0.21277  0.15266  0.23652  1.0000
  N   N7        1.0  0.93965  0.15245  0.73659  1.0000
  N   N8        1.0  0.78723  0.84734  0.76348  1.0000
  N   N9        1.0  0.76517  0.70643  0.18017  1.0000
  N   N10       1.0  0.05879  0.29373  0.31972  1.0000
  N   N11       1.0  0.23483  0.29357  0.81983  1.0000
  N   N12       1.0  0.94121  0.70627  0.68027  1.0000
  N   N13       1.0  0.20639  0.54685  0.14025  1.0000
  N   N14       1.0  0.65971  0.45325  0.35972  1.0000
  N   N15       1.0  0.79361  0.45315  0.85975  1.0000
  N   N16       1.0  0.34029  0.54675  0.64028  1.0000
  N   N17       1.0  0.28869  0.44080  0.11137  1.0000
  N   N18       1.0  0.84810  0.55930  0.38854  1.0000
  N   N19       1.0  0.71131  0.55920  0.88863  1.0000
  N   N20       1.0  0.15189  0.44070  0.61146  1.0000
  N   N21       1.0  0.55990  0.61999  0.15925  1.0000
  N   N22       1.0  0.93999  0.38014  0.34062  1.0000
  N   N23       1.0  0.44011  0.38001  0.84075  1.0000
  N   N24       1.0  0.06000  0.61986  0.65938  1.0000
  Cl  Cl1       1.0  1.00000  1.00000  1.00000  1.0000
  Cl  Cl2       1.0  1.00000  0.00000  0.50000  1.0000
  Cl  Cl3       1.0  0.60247  0.00008  0.25000  1.0000
  Cl  Cl4       1.0  0.39754  0.99992  0.75000  1.0000
  Cl  Cl5       1.0  0.39888  0.81462  0.95334  1.0000
  Cl  Cl6       1.0  0.58430  0.18529  0.54679  1.0000
  Cl  Cl7       1.0  0.60112  0.18538  0.04666  1.0000
  Cl  Cl8       1.0  0.41570  0.81471  0.45321  1.0000
