data_image0
_chemical_formula_structural       Cu4H40C64N4Cl8O16
_chemical_formula_sum              "Cu4 H40 C64 N4 Cl8 O16"
_cell_length_a       9.7233
_cell_length_b       10.4298
_cell_length_c       19.3651
_cell_angle_alpha    90
_cell_angle_beta     90
_cell_angle_gamma    107.824

_space_group_name_H-M_alt    "P 1"
_space_group_IT_number       1

loop_
  _space_group_symop_operation_xyz
  'x, y, z'

loop_
  _atom_site_type_symbol
  _atom_site_label
  _atom_site_symmetry_multiplicity
  _atom_site_fract_x
  _atom_site_fract_y
  _atom_site_fract_z
  _atom_site_occupancy
  Cu  Cu1       1.0  0.36821  0.50137  0.49672  1.0000
  Cu  Cu2       1.0  0.13178  0.99862  0.99671  1.0000
  Cu  Cu3       1.0  0.63179  0.49862  0.50329  1.0000
  Cu  Cu4       1.0  0.86821  0.00138  0.00329  1.0000
  H   H1        1.0  0.33928  0.54711  0.27056  1.0000
  H   H2        1.0  0.16071  0.95290  0.77056  1.0000
  H   H3        1.0  0.66072  0.45290  0.72944  1.0000
  H   H4        1.0  0.83928  0.04711  0.22944  1.0000
  H   H5        1.0  0.63933  0.74327  0.11034  1.0000
  H   H6        1.0  0.86067  0.75672  0.61034  1.0000
  H   H7        1.0  0.36067  0.25672  0.88967  1.0000
  H   H8        1.0  0.13933  0.24328  0.38966  1.0000
  H   H9        1.0  0.84015  0.79214  0.19440  1.0000
  H   H10       1.0  0.65985  0.70784  0.69441  1.0000
  H   H11       1.0  0.15985  0.20786  0.80560  1.0000
  H   H12       1.0  0.34015  0.29216  0.30559  1.0000
  H   H13       1.0  0.79319  0.71181  0.31662  1.0000
  H   H14       1.0  0.70681  0.78819  0.81662  1.0000
  H   H15       1.0  0.20682  0.28819  0.68339  1.0000
  H   H16       1.0  0.29318  0.21183  0.18338  1.0000
  H   H17       1.0  0.58377  0.10941  0.41390  1.0000
  H   H18       1.0  0.91625  0.39061  0.91390  1.0000
  H   H19       1.0  0.41623  0.89059  0.58610  1.0000
  H   H20       1.0  0.08376  0.60940  0.08609  1.0000
  H   H21       1.0  0.50538  0.86781  0.37612  1.0000
  H   H22       1.0  0.99463  0.63219  0.87612  1.0000
  H   H23       1.0  0.49462  0.13219  0.62387  1.0000
  H   H24       1.0  0.00537  0.36782  0.12388  1.0000
  H   H25       1.0  0.24789  0.73128  0.38561  1.0000
  H   H26       1.0  0.25213  0.76873  0.88560  1.0000
  H   H27       1.0  0.75211  0.26872  0.61439  1.0000
  H   H28       1.0  0.74788  0.23128  0.11440  1.0000
  H   H29       1.0  0.14621  0.07456  0.47030  1.0000
  H   H30       1.0  0.35381  0.42545  0.97030  1.0000
  H   H31       1.0  0.85380  0.92544  0.52970  1.0000
  H   H32       1.0  0.64620  0.57455  0.02970  1.0000
  H   H33       1.0  0.10841  0.45629  0.39305  1.0000
  H   H34       1.0  0.39158  0.04371  0.89305  1.0000
  H   H35       1.0  0.89158  0.54371  0.60695  1.0000
  H   H36       1.0  0.60841  0.95627  0.10696  1.0000
  H   H37       1.0  0.15884  0.56669  0.59945  1.0000
  H   H38       1.0  0.34115  0.93330  0.09946  1.0000
  H   H39       1.0  0.84115  0.43331  0.40055  1.0000
  H   H40       1.0  0.65884  0.06669  0.90056  1.0000
  C   C1        1.0  0.53655  0.57505  0.37331  1.0000
  C   C2        1.0  0.96344  0.92495  0.87331  1.0000
  C   C3        1.0  0.46345  0.42495  0.62670  1.0000
  C   C4        1.0  0.03655  0.07505  0.12669  1.0000
  C   C5        1.0  0.56396  0.62485  0.30060  1.0000
  C   C6        1.0  0.93604  0.87515  0.80060  1.0000
  C   C7        1.0  0.43605  0.37515  0.69941  1.0000
  C   C8        1.0  0.06395  0.12485  0.19940  1.0000
  C   C9        1.0  0.44878  0.60046  0.25386  1.0000
  C   C10       1.0  0.05122  0.89955  0.75386  1.0000
  C   C11       1.0  0.55123  0.39954  0.74614  1.0000
  C   C12       1.0  0.94877  0.10046  0.24614  1.0000
  C   C13       1.0  0.47788  0.64272  0.18568  1.0000
  C   C14       1.0  0.02212  0.85728  0.68568  1.0000
  C   C15       1.0  0.52213  0.35729  0.81432  1.0000
  C   C16       1.0  0.97788  0.14273  0.31432  1.0000
  C   C17       1.0  0.61772  0.71216  0.16392  1.0000
  C   C18       1.0  0.88228  0.78783  0.66392  1.0000
  C   C19       1.0  0.38228  0.28784  0.83608  1.0000
  C   C20       1.0  0.11771  0.21218  0.33607  1.0000
  C   C21       1.0  0.73089  0.73825  0.21147  1.0000
  C   C22       1.0  0.76911  0.76174  0.71147  1.0000
  C   C23       1.0  0.26911  0.26175  0.78853  1.0000
  C   C24       1.0  0.23089  0.23827  0.28853  1.0000
  C   C25       1.0  0.70527  0.69370  0.27943  1.0000
  C   C26       1.0  0.79473  0.80629  0.77943  1.0000
  C   C27       1.0  0.29473  0.30630  0.72057  1.0000
  C   C28       1.0  0.20527  0.19372  0.22056  1.0000
  C   C29       1.0  0.41703  0.25119  0.46427  1.0000
  C   C30       1.0  0.08297  0.24880  0.96427  1.0000
  C   C31       1.0  0.58296  0.74881  0.53573  1.0000
  C   C32       1.0  0.91703  0.75119  0.03573  1.0000
  C   C33       1.0  0.37005  0.10625  0.44341  1.0000
  C   C34       1.0  0.12996  0.39375  0.94341  1.0000
  C   C35       1.0  0.62995  0.89375  0.55659  1.0000
  C   C36       1.0  0.87004  0.60626  0.05658  1.0000
  C   C37       1.0  0.47125  0.04798  0.41725  1.0000
  C   C38       1.0  0.02876  0.45202  0.91725  1.0000
  C   C39       1.0  0.52875  0.95202  0.58275  1.0000
  C   C40       1.0  0.97125  0.54798  0.08275  1.0000
  C   C41       1.0  0.42687  0.91387  0.39623  1.0000
  C   C42       1.0  0.07314  0.58613  0.89623  1.0000
  C   C43       1.0  0.57312  0.08613  0.60377  1.0000
  C   C44       1.0  0.92687  0.41388  0.10377  1.0000
  C   C45       1.0  0.28193  0.83661  0.40122  1.0000
  C   C46       1.0  0.21809  0.66340  0.90121  1.0000
  C   C47       1.0  0.71807  0.16339  0.59878  1.0000
  C   C48       1.0  0.78192  0.33661  0.09878  1.0000
  C   C49       1.0  0.18223  0.89607  0.42752  1.0000
  C   C50       1.0  0.31778  0.60393  0.92752  1.0000
  C   C51       1.0  0.81777  0.10392  0.57247  1.0000
  C   C52       1.0  0.68222  0.39607  0.07248  1.0000
  C   C53       1.0  0.22454  0.02987  0.44906  1.0000
  C   C54       1.0  0.27547  0.47013  0.94906  1.0000
  C   C55       1.0  0.77546  0.97013  0.55093  1.0000
  C   C56       1.0  0.72453  0.52986  0.05093  1.0000
  C   C57       1.0  0.08742  0.53747  0.55495  1.0000
  C   C58       1.0  0.41257  0.96251  0.05495  1.0000
  C   C59       1.0  0.91257  0.46252  0.44505  1.0000
  C   C60       1.0  0.58742  0.03748  0.94506  1.0000
  C   C61       1.0  0.05922  0.47530  0.44103  1.0000
  C   C62       1.0  0.44077  0.02469  0.94104  1.0000
  C   C63       1.0  0.94077  0.52469  0.55897  1.0000
  C   C64       1.0  0.55922  0.97529  0.05898  1.0000
  N   N1        1.0  0.14638  0.51236  0.49589  1.0000
  N   N2        1.0  0.35361  0.98763  0.99589  1.0000
  N   N3        1.0  0.85361  0.48763  0.50411  1.0000
  N   N4        1.0  0.64638  0.01236  0.00412  1.0000
  Cl  Cl1       1.0  0.33858  0.60629  0.12572  1.0000
  Cl  Cl2       1.0  0.16142  0.89371  0.62572  1.0000
  Cl  Cl3       1.0  0.66143  0.39371  0.87429  1.0000
  Cl  Cl4       1.0  0.83857  0.10629  0.37428  1.0000
  Cl  Cl5       1.0  0.00081  0.80311  0.43344  1.0000
  Cl  Cl6       1.0  0.49921  0.69689  0.93343  1.0000
  Cl  Cl7       1.0  0.99919  0.19689  0.56656  1.0000
  Cl  Cl8       1.0  0.50080  0.30310  0.06656  1.0000
  O   O1        1.0  0.40941  0.55459  0.39741  1.0000
  O   O2        1.0  0.09058  0.94541  0.89741  1.0000
  O   O3        1.0  0.59059  0.44541  0.60259  1.0000
  O   O4        1.0  0.90941  0.05459  0.10259  1.0000
  O   O5        1.0  0.64417  0.55726  0.40506  1.0000
  O   O6        1.0  0.85582  0.94273  0.90506  1.0000
  O   O7        1.0  0.35584  0.44274  0.59494  1.0000
  O   O8        1.0  0.14417  0.05726  0.09494  1.0000
  O   O9        1.0  0.31809  0.30782  0.47057  1.0000
  O   O10       1.0  0.18191  0.19218  0.97057  1.0000
  O   O11       1.0  0.68191  0.69218  0.52943  1.0000
  O   O12       1.0  0.81809  0.80782  0.02943  1.0000
  O   O13       1.0  0.55186  0.30708  0.47351  1.0000
  O   O14       1.0  0.94815  0.19293  0.97351  1.0000
  O   O15       1.0  0.44814  0.69292  0.52649  1.0000
  O   O16       1.0  0.05184  0.80707  0.02649  1.0000
