data_image0
_chemical_formula_structural       Cd2H12C12N8O8
_chemical_formula_sum              "Cd2 H12 C12 N8 O8"
_cell_length_a       6.76126
_cell_length_b       7.94407
_cell_length_c       9.37877
_cell_angle_alpha    98.8338
_cell_angle_beta     96.6566
_cell_angle_gamma    108.939

_space_group_name_H-M_alt    "P 1"
_space_group_IT_number       1

loop_
  _space_group_symop_operation_xyz
  'x, y, z'

loop_
  _atom_site_type_symbol
  _atom_site_label
  _atom_site_symmetry_multiplicity
  _atom_site_fract_x
  _atom_site_fract_y
  _atom_site_fract_z
  _atom_site_occupancy
  Cd  Cd1       1.0  0.00000  0.50000  0.50000  1.0000
  Cd  Cd2       1.0  0.00000  1.00000  0.50000  1.0000
  H   H1        1.0  0.46369  0.25709  0.52791  1.0000
  H   H2        1.0  0.53631  0.74291  0.47209  1.0000
  H   H3        1.0  0.39892  0.09496  0.38847  1.0000
  H   H4        1.0  0.60109  0.90504  0.61153  1.0000
  H   H5        1.0  0.37232  0.77500  0.21987  1.0000
  H   H6        1.0  0.62768  0.22500  0.78013  1.0000
  H   H7        1.0  0.30210  0.68456  0.94428  1.0000
  H   H8        1.0  0.69790  0.31544  0.05572  1.0000
  H   H9        1.0  0.13764  0.12613  0.98847  1.0000
  H   H10       1.0  0.86236  0.87387  0.01153  1.0000
  H   H11       1.0  0.21882  0.23881  0.26508  1.0000
  H   H12       1.0  0.78118  0.76119  0.73492  1.0000
  C   C1        1.0  0.31919  0.63416  0.16189  1.0000
  C   C2        1.0  0.68080  0.36583  0.83811  1.0000
  C   C3        1.0  0.27853  0.58110  0.01085  1.0000
  C   C4        1.0  0.72147  0.41890  0.98915  1.0000
  C   C5        1.0  0.20542  0.39647  0.94503  1.0000
  C   C6        1.0  0.79459  0.60353  0.05497  1.0000
  C   C7        1.0  0.18651  0.27025  0.03619  1.0000
  C   C8        1.0  0.81349  0.72975  0.96380  1.0000
  C   C9        1.0  0.23052  0.32731  0.18673  1.0000
  C   C10       1.0  0.76947  0.67269  0.81327  1.0000
  C   C11       1.0  0.14232  0.33460  0.78089  1.0000
  C   C12       1.0  0.85768  0.66540  0.21911  1.0000
  N   N1        1.0  0.11409  0.79827  0.61855  1.0000
  N   N2        1.0  0.88592  0.20173  0.38145  1.0000
  N   N3        1.0  0.28465  0.86332  0.69758  1.0000
  N   N4        1.0  0.71536  0.13668  0.30242  1.0000
  N   N5        1.0  0.45143  0.92774  0.77341  1.0000
  N   N6        1.0  0.54857  0.07226  0.22659  1.0000
  N   N7        1.0  0.29033  0.50738  0.24754  1.0000
  N   N8        1.0  0.70967  0.49262  0.75246  1.0000
  O   O1        1.0  0.18193  0.45844  0.70634  1.0000
  O   O2        1.0  0.81808  0.54156  0.29366  1.0000
  O   O3        1.0  0.05315  0.16418  0.73330  1.0000
  O   O4        1.0  0.94686  0.83582  0.26670  1.0000
  O   O5        1.0  0.31984  0.55875  0.39206  1.0000
  O   O6        1.0  0.68016  0.44125  0.60794  1.0000
  O   O7        1.0  0.35012  0.13991  0.47651  1.0000
  O   O8        1.0  0.64988  0.86009  0.52348  1.0000
