data_image0
_chemical_formula_structural       Zn2H24C12S6N4O16
_chemical_formula_sum              "Zn2 H24 C12 S6 N4 O16"
_cell_length_a       5.02172
_cell_length_b       9.3762
_cell_length_c       13.5757
_cell_angle_alpha    90.0001
_cell_angle_beta     95.1134
_cell_angle_gamma    90.0005

_space_group_name_H-M_alt    "P 1"
_space_group_IT_number       1

loop_
  _space_group_symop_operation_xyz
  'x, y, z'

loop_
  _atom_site_type_symbol
  _atom_site_label
  _atom_site_symmetry_multiplicity
  _atom_site_fract_x
  _atom_site_fract_y
  _atom_site_fract_z
  _atom_site_occupancy
  Zn  Zn1       1.0  0.10649  0.32289  0.38670  1.0000
  Zn  Zn2       1.0  0.89351  0.82290  0.61330  1.0000
  H   H1        1.0  0.43907  0.44662  0.13356  1.0000
  H   H2        1.0  0.56094  0.94663  0.86644  1.0000
  H   H3        1.0  0.62414  0.32453  0.06793  1.0000
  H   H4        1.0  0.37586  0.82453  0.93206  1.0000
  H   H5        1.0  0.47838  0.46653  0.68738  1.0000
  H   H6        1.0  0.52160  0.96652  0.31261  1.0000
  H   H7        1.0  0.68781  0.31854  0.67154  1.0000
  H   H8        1.0  0.31218  0.81854  0.32846  1.0000
  H   H9        1.0  0.91897  0.07403  0.33198  1.0000
  H   H10       1.0  0.08103  0.57404  0.66802  1.0000
  H   H11       1.0  0.03899  0.05900  0.44521  1.0000
  H   H12       1.0  0.96100  0.55901  0.55479  1.0000
  H   H13       1.0  0.68850  0.49833  0.41328  1.0000
  H   H14       1.0  0.31150  0.99834  0.58673  1.0000
  H   H15       1.0  0.66268  0.38081  0.49094  1.0000
  H   H16       1.0  0.33731  0.88082  0.50905  1.0000
  H   H17       1.0  0.22446  0.53187  0.28415  1.0000
  H   H18       1.0  0.77554  0.03187  0.71586  1.0000
  H   H19       1.0  0.18003  0.60489  0.38532  1.0000
  H   H20       1.0  0.81996  0.10489  0.61468  1.0000
  H   H21       1.0  0.53703  0.28128  0.27697  1.0000
  H   H22       1.0  0.46297  0.78128  0.72303  1.0000
  H   H23       1.0  0.28318  0.18563  0.23375  1.0000
  H   H24       1.0  0.71682  0.68564  0.76625  1.0000
  C   C1        1.0  0.86089  0.44037  0.18266  1.0000
  C   C2        1.0  0.13913  0.94037  0.81734  1.0000
  C   C3        1.0  0.63024  0.43179  0.10107  1.0000
  C   C4        1.0  0.36977  0.93179  0.89892  1.0000
  C   C5        1.0  0.85640  0.50433  0.93007  1.0000
  C   C6        1.0  0.14361  0.00433  0.06994  1.0000
  C   C7        1.0  0.17826  0.38441  0.83974  1.0000
  C   C8        1.0  0.82175  0.88440  0.16026  1.0000
  C   C9        1.0  0.48246  0.34928  0.68414  1.0000
  C   C10       1.0  0.51753  0.84928  0.31586  1.0000
  C   C11       1.0  0.28449  0.29706  0.59987  1.0000
  C   C12       1.0  0.71551  0.79706  0.40012  1.0000
  S   S1        1.0  0.61821  0.56430  0.00492  1.0000
  S   S2        1.0  0.38179  0.06430  0.99509  1.0000
  S   S3        1.0  0.03931  0.34845  0.95016  1.0000
  S   S4        1.0  0.96071  0.84845  0.04984  1.0000
  S   S5        1.0  0.42472  0.27411  0.80219  1.0000
  S   S6        1.0  0.57530  0.77410  0.19781  1.0000
  N   N1        1.0  0.90246  0.57095  0.84797  1.0000
  N   N2        1.0  0.09753  0.07094  0.15204  1.0000
  N   N3        1.0  0.08603  0.50221  0.79574  1.0000
  N   N4        1.0  0.91398  0.00220  0.20427  1.0000
  O   O1        1.0  0.82304  0.36323  0.25819  1.0000
  O   O2        1.0  0.17697  0.86324  0.74180  1.0000
  O   O3        1.0  0.06335  0.51576  0.17222  1.0000
  O   O4        1.0  0.93667  0.01575  0.82777  1.0000
  O   O5        1.0  0.06335  0.24620  0.61683  1.0000
  O   O6        1.0  0.93663  0.74621  0.38317  1.0000
  O   O7        1.0  0.36706  0.31396  0.51329  1.0000
  O   O8        1.0  0.63292  0.81397  0.48671  1.0000
  O   O9        1.0  0.93209  0.12190  0.39783  1.0000
  O   O10       1.0  0.06790  0.62191  0.60217  1.0000
  O   O11       1.0  0.80123  0.44220  0.46201  1.0000
  O   O12       1.0  0.19876  0.94220  0.53799  1.0000
  O   O13       1.0  0.28796  0.52951  0.35686  1.0000
  O   O14       1.0  0.71204  0.02951  0.64315  1.0000
  O   O15       1.0  0.37275  0.23081  0.29458  1.0000
  O   O16       1.0  0.62726  0.73081  0.70543  1.0000
