data_image0
_chemical_formula_structural       Zn2H24C12S6N4O16
_chemical_formula_sum              "Zn2 H24 C12 S6 N4 O16"
_cell_length_a       4.94498
_cell_length_b       9.91904
_cell_length_c       13.8861
_cell_angle_alpha    90.0009
_cell_angle_beta     95.2172
_cell_angle_gamma    89.9996

_space_group_name_H-M_alt    "P 1"
_space_group_IT_number       1

loop_
  _space_group_symop_operation_xyz
  'x, y, z'

loop_
  _atom_site_type_symbol
  _atom_site_label
  _atom_site_symmetry_multiplicity
  _atom_site_fract_x
  _atom_site_fract_y
  _atom_site_fract_z
  _atom_site_occupancy
  Zn  Zn1       1.0  0.47618  0.03653  0.62743  1.0000
  Zn  Zn2       1.0  0.52383  0.53655  0.37256  1.0000
  H   H1        1.0  0.34561  0.84858  0.73976  1.0000
  H   H2        1.0  0.65439  0.34859  0.26023  1.0000
  H   H3        1.0  0.37230  0.77204  0.63885  1.0000
  H   H4        1.0  0.62770  0.27205  0.36115  1.0000
  H   H5        1.0  0.25434  0.19561  0.75991  1.0000
  H   H6        1.0  0.74566  0.69563  0.24009  1.0000
  H   H7        1.0  0.04579  0.07101  0.74212  1.0000
  H   H8        1.0  0.95424  0.57103  0.25789  1.0000
  H   H9        1.0  0.63454  0.28834  0.67545  1.0000
  H   H10       1.0  0.36547  0.78836  0.32456  1.0000
  H   H11       1.0  0.87724  0.20016  0.64458  1.0000
  H   H12       1.0  0.12277  0.70019  0.35543  1.0000
  H   H13       1.0  0.92189  0.88690  0.61708  1.0000
  H   H14       1.0  0.07811  0.38692  0.38291  1.0000
  H   H15       1.0  0.90457  0.98072  0.52890  1.0000
  H   H16       1.0  0.09544  0.48072  0.47110  1.0000
  H   H17       1.0  0.87995  0.09305  0.35422  1.0000
  H   H18       1.0  0.12004  0.59302  0.64578  1.0000
  H   H19       1.0  0.05027  0.94385  0.32893  1.0000
  H   H20       1.0  0.94971  0.44383  0.67107  1.0000
  H   H21       1.0  0.94724  0.03951  0.95842  1.0000
  H   H22       1.0  0.05276  0.53952  0.04158  1.0000
  H   H23       1.0  0.12231  0.91528  0.89836  1.0000
  H   H24       1.0  0.87768  0.41531  0.10164  1.0000
  C   C1        1.0  0.29291  0.08070  0.42156  1.0000
  C   C2        1.0  0.70709  0.58068  0.57844  1.0000
  C   C3        1.0  0.07739  0.05303  0.33756  1.0000
  C   C4        1.0  0.92259  0.55301  0.66243  1.0000
  C   C5        1.0  0.36899  0.01283  0.18289  1.0000
  C   C6        1.0  0.63101  0.51281  0.81711  1.0000
  C   C7        1.0  0.67777  0.88628  0.09375  1.0000
  C   C8        1.0  0.32221  0.38627  0.90625  1.0000
  C   C9        1.0  0.92729  0.93745  0.92753  1.0000
  C   C10       1.0  0.07271  0.43746  0.07247  1.0000
  C   C11       1.0  0.70059  0.93462  0.84495  1.0000
  C   C12       1.0  0.29946  0.43462  0.15504  1.0000
  S   S1        1.0  0.14365  0.12767  0.22410  1.0000
  S   S2        1.0  0.85636  0.62764  0.77590  1.0000
  S   S3        1.0  0.51867  0.04197  0.07558  1.0000
  S   S4        1.0  0.48133  0.54197  0.92442  1.0000
  S   S5        1.0  0.91085  0.81593  0.02266  1.0000
  S   S6        1.0  0.08914  0.31594  0.97736  1.0000
  N   N1        1.0  0.44095  0.89679  0.22399  1.0000
  N   N2        1.0  0.55903  0.39677  0.77601  1.0000
  N   N3        1.0  0.61593  0.82539  0.17305  1.0000
  N   N4        1.0  0.38405  0.32538  0.82696  1.0000
  O   O1        1.0  0.21574  0.04503  0.50381  1.0000
  O   O2        1.0  0.78426  0.54503  0.49619  1.0000
  O   O3        1.0  0.51877  0.13007  0.40858  1.0000
  O   O4        1.0  0.48120  0.63004  0.59142  1.0000
  O   O5        1.0  0.48708  0.86730  0.85249  1.0000
  O   O6        1.0  0.51291  0.36732  0.14751  1.0000
  O   O7        1.0  0.75307  0.00410  0.77161  1.0000
  O   O8        1.0  0.24692  0.50413  0.22839  1.0000
  O   O9        1.0  0.28437  0.85096  0.66848  1.0000
  O   O10       1.0  0.71564  0.35097  0.33151  1.0000
  O   O11       1.0  0.17690  0.12905  0.70966  1.0000
  O   O12       1.0  0.82311  0.62906  0.29035  1.0000
  O   O13       1.0  0.68333  0.22171  0.62612  1.0000
  O   O14       1.0  0.31669  0.72173  0.37389  1.0000
  O   O15       1.0  0.78562  0.92848  0.56972  1.0000
  O   O16       1.0  0.21438  0.42850  0.43027  1.0000
