data_image0
_chemical_formula_structural       Zn4H24C32N16O12
_chemical_formula_sum              "Zn4 H24 C32 N16 O12"
_cell_length_a       7.15523
_cell_length_b       10.2524
_cell_length_c       14.5505
_cell_angle_alpha    71.7427
_cell_angle_beta     75.7587
_cell_angle_gamma    69.594

_space_group_name_H-M_alt    "P 1"
_space_group_IT_number       1

loop_
  _space_group_symop_operation_xyz
  'x, y, z'

loop_
  _atom_site_type_symbol
  _atom_site_label
  _atom_site_symmetry_multiplicity
  _atom_site_fract_x
  _atom_site_fract_y
  _atom_site_fract_z
  _atom_site_occupancy
  Zn  Zn1       1.0  0.31891  0.24994  0.75005  1.0000
  Zn  Zn2       1.0  0.68109  0.75006  0.24995  1.0000
  Zn  Zn3       1.0  1.00000  0.50000  0.50000  1.0000
  Zn  Zn4       1.0  0.00000  0.00000  0.00000  1.0000
  H   H1        1.0  0.26471  0.56195  0.69566  1.0000
  H   H2        1.0  0.52229  0.93765  0.80398  1.0000
  H   H3        1.0  0.73529  0.43805  0.30433  1.0000
  H   H4        1.0  0.47772  0.06236  0.19602  1.0000
  H   H5        1.0  0.14711  0.68090  0.83368  1.0000
  H   H6        1.0  0.66237  0.81896  0.66585  1.0000
  H   H7        1.0  0.85288  0.31910  0.16632  1.0000
  H   H8        1.0  0.33763  0.18105  0.33415  1.0000
  H   H9        1.0  0.39654  0.68105  0.92608  1.0000
  H   H10       1.0  0.00468  0.81875  0.57385  1.0000
  H   H11       1.0  0.60346  0.31895  0.07392  1.0000
  H   H12       1.0  0.99532  0.18125  0.42615  1.0000
  H   H13       1.0  0.76091  0.56280  0.88052  1.0000
  H   H14       1.0  0.20482  0.93695  0.61987  1.0000
  H   H15       1.0  0.23909  0.43720  0.11948  1.0000
  H   H16       1.0  0.79518  0.06305  0.38013  1.0000
  H   H17       1.0  0.81403  0.77933  0.43208  1.0000
  H   H18       1.0  0.02521  0.72049  0.06770  1.0000
  H   H19       1.0  0.18597  0.22067  0.56792  1.0000
  H   H20       1.0  0.97478  0.27951  0.93230  1.0000
  H   H21       1.0  0.64757  0.71627  0.49674  1.0000
  H   H22       1.0  0.86035  0.78378  0.00311  1.0000
  H   H23       1.0  0.35243  0.28373  0.50327  1.0000
  H   H24       1.0  0.13966  0.21622  0.99689  1.0000
  C   C1        1.0  0.62481  0.41290  0.63605  1.0000
  C   C2        1.0  0.67360  0.08671  0.86401  1.0000
  C   C3        1.0  0.37519  0.58710  0.36395  1.0000
  C   C4        1.0  0.32640  0.91329  0.13599  1.0000
  C   C5        1.0  0.57872  0.49325  0.71078  1.0000
  C   C6        1.0  0.78262  0.00635  0.78928  1.0000
  C   C7        1.0  0.42128  0.50675  0.28922  1.0000
  C   C8        1.0  0.21738  0.99365  0.21072  1.0000
  C   C9        1.0  0.37251  0.56054  0.73767  1.0000
  C   C10       1.0  0.67082  0.93912  0.76213  1.0000
  C   C11       1.0  0.62749  0.43946  0.26233  1.0000
  C   C12       1.0  0.32918  0.06088  0.23787  1.0000
  C   C13       1.0  0.30695  0.62787  0.81434  1.0000
  C   C14       1.0  0.74967  0.87189  0.68541  1.0000
  C   C15       1.0  0.69305  0.37213  0.18566  1.0000
  C   C16       1.0  0.25033  0.12811  0.31459  1.0000
  C   C17       1.0  0.44623  0.62748  0.86673  1.0000
  C   C18       1.0  0.94114  0.87223  0.63326  1.0000
  C   C19       1.0  0.55376  0.37252  0.13327  1.0000
  C   C20       1.0  0.05886  0.12777  0.36674  1.0000
  C   C21       1.0  0.65097  0.56201  0.84061  1.0000
  C   C22       1.0  0.05408  0.93762  0.65962  1.0000
  C   C23       1.0  0.34903  0.43798  0.15939  1.0000
  C   C24       1.0  0.94593  0.06238  0.34038  1.0000
  C   C25       1.0  0.72029  0.49727  0.76190  1.0000
  C   C26       1.0  0.97947  0.00236  0.73833  1.0000
  C   C27       1.0  0.27971  0.50273  0.23810  1.0000
  C   C28       1.0  0.02054  0.99764  0.26168  1.0000
  C   C29       1.0  0.94244  0.43746  0.73545  1.0000
  C   C30       1.0  0.11501  0.06251  0.76474  1.0000
  C   C31       1.0  0.05756  0.56254  0.26455  1.0000
  C   C32       1.0  0.88499  0.93749  0.23526  1.0000
  N   N1        1.0  0.75967  0.41417  0.55301  1.0000
  N   N2        1.0  0.72686  0.08565  0.94694  1.0000
  N   N3        1.0  0.24033  0.58583  0.44699  1.0000
  N   N4        1.0  0.27314  0.91435  0.05306  1.0000
  N   N5        1.0  0.72337  0.33520  0.50433  1.0000
  N   N6        1.0  0.56313  0.16483  0.99557  1.0000
  N   N7        1.0  0.27662  0.66480  0.49568  1.0000
  N   N8        1.0  0.43687  0.83517  0.00443  1.0000
  N   N9        1.0  0.57452  0.28520  0.55540  1.0000
  N   N10       1.0  0.41530  0.21475  0.94457  1.0000
  N   N11       1.0  0.42548  0.71480  0.44460  1.0000
  N   N12       1.0  0.58471  0.78525  0.05543  1.0000
  N   N13       1.0  0.51024  0.33112  0.63842  1.0000
  N   N14       1.0  0.47972  0.16855  0.86166  1.0000
  N   N15       1.0  0.48976  0.66888  0.36158  1.0000
  N   N16       1.0  0.52029  0.83145  0.13834  1.0000
  O   O1        1.0  0.04433  0.36382  0.80680  1.0000
  O   O2        1.0  0.21413  0.13645  0.69334  1.0000
  O   O3        1.0  0.95567  0.63618  0.19320  1.0000
  O   O4        1.0  0.78587  0.86354  0.30667  1.0000
  O   O5        1.0  0.03044  0.45936  0.64827  1.0000
  O   O6        1.0  0.13798  0.04062  0.85186  1.0000
  O   O7        1.0  0.96956  0.54063  0.35173  1.0000
  O   O8        1.0  0.86202  0.95939  0.14814  1.0000
  O   O9        1.0  0.78535  0.71645  0.49790  1.0000
  O   O10       1.0  0.99952  0.78351  0.00193  1.0000
  O   O11       1.0  0.21465  0.28355  0.50210  1.0000
  O   O12       1.0  0.00048  0.21649  0.99807  1.0000
