data_image0
_chemical_formula_structural       Cd4H32C32N20Cl4
_chemical_formula_sum              "Cd4 H32 C32 N20 Cl4"
_cell_length_a       9.56123
_cell_length_b       9.55247
_cell_length_c       13.8602
_cell_angle_alpha    102.623
_cell_angle_beta     108.449
_cell_angle_gamma    102.878

_space_group_name_H-M_alt    "P 1"
_space_group_IT_number       1

loop_
  _space_group_symop_operation_xyz
  'x, y, z'

loop_
  _atom_site_type_symbol
  _atom_site_label
  _atom_site_symmetry_multiplicity
  _atom_site_fract_x
  _atom_site_fract_y
  _atom_site_fract_z
  _atom_site_occupancy
  Cd  Cd1       1.0  0.47306  0.69957  0.01561  1.0000
  Cd  Cd2       1.0  0.18410  0.45734  0.48447  1.0000
  Cd  Cd3       1.0  0.52695  0.30043  0.98439  1.0000
  Cd  Cd4       1.0  0.81590  0.54266  0.51553  1.0000
  H   H1        1.0  0.33837  0.86505  0.88632  1.0000
  H   H2        1.0  0.47847  0.45140  0.61350  1.0000
  H   H3        1.0  0.66164  0.13495  0.11368  1.0000
  H   H4        1.0  0.52153  0.54860  0.38650  1.0000
  H   H5        1.0  0.22858  0.68567  0.82703  1.0000
  H   H6        1.0  0.35870  0.40099  0.67301  1.0000
  H   H7        1.0  0.77142  0.31433  0.17297  1.0000
  H   H8        1.0  0.64130  0.59901  0.32699  1.0000
  H   H9        1.0  0.34836  0.55792  0.17929  1.0000
  H   H10       1.0  0.87919  0.16931  0.32089  1.0000
  H   H11       1.0  0.65164  0.44208  0.82072  1.0000
  H   H12       1.0  0.12080  0.83069  0.67911  1.0000
  H   H13       1.0  0.12972  0.54241  0.24519  1.0000
  H   H14       1.0  0.79759  0.88461  0.25495  1.0000
  H   H15       1.0  0.87028  0.45760  0.75481  1.0000
  H   H16       1.0  0.20241  0.11538  0.74505  1.0000
  H   H17       1.0  0.91583  0.64346  0.15863  1.0000
  H   H18       1.0  0.98485  0.75675  0.34132  1.0000
  H   H19       1.0  0.08417  0.35654  0.84137  1.0000
  H   H20       1.0  0.01515  0.24325  0.65868  1.0000
  H   H21       1.0  0.93823  0.76643  0.02151  1.0000
  H   H22       1.0  0.24471  0.91588  0.47825  1.0000
  H   H23       1.0  0.06177  0.23356  0.97849  1.0000
  H   H24       1.0  0.75529  0.08412  0.52175  1.0000
  H   H25       1.0  0.05340  0.77405  0.88178  1.0000
  H   H26       1.0  0.39162  0.17070  0.61823  1.0000
  H   H27       1.0  0.94660  0.22595  0.11822  1.0000
  H   H28       1.0  0.60838  0.82930  0.38177  1.0000
  H   H29       1.0  0.20697  0.92501  0.98443  1.0000
  H   H30       1.0  0.44043  0.22167  0.51567  1.0000
  H   H31       1.0  0.79303  0.07499  0.01557  1.0000
  H   H32       1.0  0.55957  0.77833  0.48433  1.0000
  C   C1        1.0  0.25395  0.60227  0.14710  1.0000
  C   C2        1.0  0.95551  0.10683  0.35298  1.0000
  C   C3        1.0  0.74605  0.39774  0.85291  1.0000
  C   C4        1.0  0.04449  0.89316  0.64702  1.0000
  C   C5        1.0  0.13295  0.59369  0.18274  1.0000
  C   C6        1.0  0.91123  0.95012  0.31731  1.0000
  C   C7        1.0  0.86705  0.40632  0.81726  1.0000
  C   C8        1.0  0.08877  0.04988  0.68269  1.0000
  C   C9        1.0  0.01600  0.65179  0.13588  1.0000
  C   C10       1.0  0.01598  0.87974  0.36408  1.0000
  C   C11       1.0  0.98400  0.34822  0.86412  1.0000
  C   C12       1.0  0.98402  0.12026  0.63592  1.0000
  C   C13       1.0  0.02722  0.71894  0.05806  1.0000
  C   C14       1.0  0.16082  0.96857  0.44181  1.0000
  C   C15       1.0  0.97277  0.28106  0.94194  1.0000
  C   C16       1.0  0.83918  0.03143  0.55819  1.0000
  C   C17       1.0  0.15312  0.72421  0.02662  1.0000
  C   C18       1.0  0.19757  0.12602  0.47335  1.0000
  C   C19       1.0  0.84688  0.27579  0.97338  1.0000
  C   C20       1.0  0.80243  0.87398  0.52665  1.0000
  C   C21       1.0  0.16938  0.80235  0.94460  1.0000
  C   C22       1.0  0.35757  0.22412  0.55542  1.0000
  C   C23       1.0  0.83062  0.19765  0.05540  1.0000
  C   C24       1.0  0.64243  0.77588  0.44458  1.0000
  C   C25       1.0  0.53799  0.00382  0.22780  1.0000
  C   C26       1.0  0.27618  0.31008  0.27220  1.0000
  C   C27       1.0  0.46201  0.99617  0.77220  1.0000
  C   C28       1.0  0.72382  0.68992  0.72779  1.0000
  C   C29       1.0  0.59789  0.18460  0.38701  1.0000
  C   C30       1.0  0.29731  0.21082  0.11286  1.0000
  C   C31       1.0  0.40211  0.81540  0.61299  1.0000
  C   C32       1.0  0.70270  0.78918  0.88713  1.0000
  N   N1        1.0  0.26265  0.66483  0.07025  1.0000
  N   N2        1.0  0.09478  0.19220  0.42979  1.0000
  N   N3        1.0  0.73735  0.33518  0.92976  1.0000
  N   N4        1.0  0.90522  0.80780  0.57021  1.0000
  N   N5        1.0  0.28253  0.77024  0.89926  1.0000
  N   N6        1.0  0.37088  0.38269  0.60071  1.0000
  N   N7        1.0  0.71747  0.22976  0.10074  1.0000
  N   N8        1.0  0.62911  0.61731  0.39929  1.0000
  N   N9        1.0  0.55102  0.94663  0.14773  1.0000
  N   N10       1.0  0.29940  0.40307  0.35240  1.0000
  N   N11       1.0  0.44899  0.05337  0.85227  1.0000
  N   N12       1.0  0.70060  0.59692  0.64759  1.0000
  N   N13       1.0  0.51486  0.05778  0.31319  1.0000
  N   N14       1.0  0.24421  0.20160  0.18667  1.0000
  N   N15       1.0  0.48515  0.94221  0.68681  1.0000
  N   N16       1.0  0.75581  0.79841  0.81333  1.0000
  N   N17       1.0  0.66576  0.29569  0.46102  1.0000
  N   N18       1.0  0.33450  0.20464  0.03887  1.0000
  N   N19       1.0  0.33423  0.70430  0.53898  1.0000
  N   N20       1.0  0.66550  0.79536  0.96112  1.0000
  Cl  Cl1       1.0  0.61993  0.57250  0.14426  1.0000
  Cl  Cl2       1.0  0.92860  0.47567  0.35580  1.0000
  Cl  Cl3       1.0  0.38007  0.42750  0.85574  1.0000
  Cl  Cl4       1.0  0.07140  0.52432  0.64420  1.0000
