data_image0
_chemical_formula_structural       Cd4H40C28I8N8
_chemical_formula_sum              "Cd4 H40 C28 I8 N8"
_cell_length_a       7.62739
_cell_length_b       9.90324
_cell_length_c       14.6565
_cell_angle_alpha    90.0001
_cell_angle_beta     92.8166
_cell_angle_gamma    89.9996

_space_group_name_H-M_alt    "P 1"
_space_group_IT_number       1

loop_
  _space_group_symop_operation_xyz
  'x, y, z'

loop_
  _atom_site_type_symbol
  _atom_site_label
  _atom_site_symmetry_multiplicity
  _atom_site_fract_x
  _atom_site_fract_y
  _atom_site_fract_z
  _atom_site_occupancy
  Cd  Cd1       1.0  0.19404  0.65418  0.71892  1.0000
  Cd  Cd2       1.0  0.30596  0.15418  0.28107  1.0000
  Cd  Cd3       1.0  0.80597  0.34582  0.28108  1.0000
  Cd  Cd4       1.0  0.69404  0.84581  0.71893  1.0000
  H   H1        1.0  0.25985  0.54200  0.54882  1.0000
  H   H2        1.0  0.24016  0.04200  0.45118  1.0000
  H   H3        1.0  0.74015  0.45800  0.45118  1.0000
  H   H4        1.0  0.75985  0.95800  0.54882  1.0000
  H   H5        1.0  0.44791  0.60018  0.59434  1.0000
  H   H6        1.0  0.05210  0.10018  0.40565  1.0000
  H   H7        1.0  0.55210  0.39982  0.40566  1.0000
  H   H8        1.0  0.94791  0.89982  0.59435  1.0000
  H   H9        1.0  0.10789  0.55194  0.91039  1.0000
  H   H10       1.0  0.39211  0.05194  0.08961  1.0000
  H   H11       1.0  0.89212  0.44807  0.08961  1.0000
  H   H12       1.0  0.60787  0.94806  0.91039  1.0000
  H   H13       1.0  0.11938  0.34952  0.01504  1.0000
  H   H14       1.0  0.38063  0.84952  0.98496  1.0000
  H   H15       1.0  0.88063  0.65049  0.98497  1.0000
  H   H16       1.0  0.61936  0.15048  0.01503  1.0000
  H   H17       1.0  0.19135  0.12413  0.94850  1.0000
  H   H18       1.0  0.30866  0.62413  0.05150  1.0000
  H   H19       1.0  0.80864  0.87588  0.05150  1.0000
  H   H20       1.0  0.69135  0.37587  0.94850  1.0000
  H   H21       1.0  0.25535  0.11028  0.78327  1.0000
  H   H22       1.0  0.24466  0.61027  0.21672  1.0000
  H   H23       1.0  0.74465  0.88973  0.21673  1.0000
  H   H24       1.0  0.75535  0.38972  0.78328  1.0000
  H   H25       1.0  0.12479  0.34340  0.61838  1.0000
  H   H26       1.0  0.37522  0.84339  0.38162  1.0000
  H   H27       1.0  0.87522  0.65661  0.38162  1.0000
  H   H28       1.0  0.62478  0.15660  0.61838  1.0000
  H   H29       1.0  0.27205  0.20911  0.64267  1.0000
  H   H30       1.0  0.22795  0.70911  0.35733  1.0000
  H   H31       1.0  0.72795  0.79089  0.35733  1.0000
  H   H32       1.0  0.77205  0.29088  0.64267  1.0000
  H   H33       1.0  0.50268  0.40718  0.68111  1.0000
  H   H34       1.0  0.99733  0.90718  0.31888  1.0000
  H   H35       1.0  0.49733  0.59282  0.31889  1.0000
  H   H36       1.0  0.00267  0.09282  0.68112  1.0000
  H   H37       1.0  0.44976  0.35462  0.56714  1.0000
  H   H38       1.0  0.05023  0.85463  0.43286  1.0000
  H   H39       1.0  0.55024  0.64538  0.43286  1.0000
  H   H40       1.0  0.94977  0.14537  0.56714  1.0000
  C   C1        1.0  0.13865  0.45107  0.88539  1.0000
  C   C2        1.0  0.36135  0.95107  0.11461  1.0000
  C   C3        1.0  0.86135  0.54893  0.11461  1.0000
  C   C4        1.0  0.63864  0.04893  0.88539  1.0000
  C   C5        1.0  0.14516  0.33956  0.94292  1.0000
  C   C6        1.0  0.35484  0.83956  0.05707  1.0000
  C   C7        1.0  0.85484  0.66045  0.05708  1.0000
  C   C8        1.0  0.64515  0.16044  0.94292  1.0000
  C   C9        1.0  0.18671  0.21454  0.90602  1.0000
  C   C10       1.0  0.31330  0.71454  0.09397  1.0000
  C   C11       1.0  0.81329  0.78546  0.09398  1.0000
  C   C12       1.0  0.68670  0.28545  0.90602  1.0000
  C   C13       1.0  0.22086  0.20656  0.81381  1.0000
  C   C14       1.0  0.27914  0.70656  0.18618  1.0000
  C   C15       1.0  0.77914  0.79344  0.18619  1.0000
  C   C16       1.0  0.72086  0.29344  0.81382  1.0000
  C   C17       1.0  0.21043  0.32287  0.75933  1.0000
  C   C18       1.0  0.28956  0.82286  0.24067  1.0000
  C   C19       1.0  0.78957  0.67714  0.24067  1.0000
  C   C20       1.0  0.71043  0.17713  0.75933  1.0000
  C   C21       1.0  0.24445  0.31499  0.65921  1.0000
  C   C22       1.0  0.25555  0.81499  0.34079  1.0000
  C   C23       1.0  0.75555  0.68501  0.34079  1.0000
  C   C24       1.0  0.74445  0.18501  0.65921  1.0000
  C   C25       1.0  0.39659  0.40204  0.62792  1.0000
  C   C26       1.0  0.10341  0.90204  0.37208  1.0000
  C   C27       1.0  0.60341  0.59796  0.37208  1.0000
  C   C28       1.0  0.89659  0.09796  0.62792  1.0000
  I   I1        1.0  0.04162  0.83800  0.83984  1.0000
  I   I2        1.0  0.45838  0.33799  0.16016  1.0000
  I   I3        1.0  0.95838  0.16201  0.16016  1.0000
  I   I4        1.0  0.54162  0.66201  0.83984  1.0000
  I   I5        1.0  0.84896  0.60181  0.60802  1.0000
  I   I6        1.0  0.65105  0.10182  0.39198  1.0000
  I   I7        1.0  0.15105  0.39818  0.39198  1.0000
  I   I8        1.0  0.34896  0.89819  0.60802  1.0000
  N   N1        1.0  0.16898  0.44345  0.79586  1.0000
  N   N2        1.0  0.33102  0.94345  0.20414  1.0000
  N   N3        1.0  0.83103  0.55655  0.20414  1.0000
  N   N4        1.0  0.66896  0.05655  0.79586  1.0000
  N   N5        1.0  0.34098  0.54153  0.60701  1.0000
  N   N6        1.0  0.15903  0.04153  0.39299  1.0000
  N   N7        1.0  0.65903  0.45847  0.39299  1.0000
  N   N8        1.0  0.84097  0.95847  0.60701  1.0000
