data_image0
_chemical_formula_structural       Cd4H32C24I8N8
_chemical_formula_sum              "Cd4 H32 C24 I8 N8"
_cell_length_a       6.46673
_cell_length_b       7.84799
_cell_length_c       19.916
_cell_angle_alpha    100.973
_cell_angle_beta     89.9997
_cell_angle_gamma    90.0002

_space_group_name_H-M_alt    "P 1"
_space_group_IT_number       1

loop_
  _space_group_symop_operation_xyz
  'x, y, z'

loop_
  _atom_site_type_symbol
  _atom_site_label
  _atom_site_symmetry_multiplicity
  _atom_site_fract_x
  _atom_site_fract_y
  _atom_site_fract_z
  _atom_site_occupancy
  Cd  Cd1       1.0  0.29693  0.56133  0.72828  1.0000
  Cd  Cd2       1.0  0.79694  0.93868  0.77171  1.0000
  Cd  Cd3       1.0  0.70306  0.43867  0.27172  1.0000
  Cd  Cd4       1.0  0.20307  0.06133  0.22828  1.0000
  H   H1        1.0  0.38452  0.20449  0.67875  1.0000
  H   H2        1.0  0.88452  0.29552  0.82125  1.0000
  H   H3        1.0  0.61548  0.79551  0.32125  1.0000
  H   H4        1.0  0.11548  0.70448  0.17875  1.0000
  H   H5        1.0  0.13007  0.22253  0.67960  1.0000
  H   H6        1.0  0.63007  0.27747  0.82040  1.0000
  H   H7        1.0  0.86993  0.77747  0.32040  1.0000
  H   H8        1.0  0.36993  0.72253  0.17960  1.0000
  H   H9        1.0  0.26694  0.85224  0.63169  1.0000
  H   H10       1.0  0.76694  0.64776  0.86831  1.0000
  H   H11       1.0  0.73306  0.14776  0.36831  1.0000
  H   H12       1.0  0.23306  0.35225  0.13169  1.0000
  H   H13       1.0  0.24954  0.87321  0.50727  1.0000
  H   H14       1.0  0.74955  0.62679  0.99273  1.0000
  H   H15       1.0  0.75045  0.12679  0.49273  1.0000
  H   H16       1.0  0.25045  0.37321  0.00727  1.0000
  H   H17       1.0  0.23862  0.59598  0.41979  1.0000
  H   H18       1.0  0.73861  0.90401  0.08021  1.0000
  H   H19       1.0  0.76140  0.40402  0.58021  1.0000
  H   H20       1.0  0.26138  0.09598  0.91979  1.0000
  H   H21       1.0  0.24375  0.31305  0.45943  1.0000
  H   H22       1.0  0.74375  0.18695  0.04057  1.0000
  H   H23       1.0  0.75625  0.68696  0.54057  1.0000
  H   H24       1.0  0.25624  0.81305  0.95943  1.0000
  H   H25       1.0  0.13160  0.18500  0.56760  1.0000
  H   H26       1.0  0.63160  0.31500  0.93240  1.0000
  H   H27       1.0  0.86841  0.81499  0.43240  1.0000
  H   H28       1.0  0.36841  0.68501  0.06760  1.0000
  H   H29       1.0  0.40470  0.19310  0.56912  1.0000
  H   H30       1.0  0.90471  0.30690  0.93088  1.0000
  H   H31       1.0  0.59530  0.80690  0.43088  1.0000
  H   H32       1.0  0.09530  0.69310  0.06912  1.0000
  C   C1        1.0  0.26181  0.73678  0.59142  1.0000
  C   C2        1.0  0.76181  0.76321  0.90858  1.0000
  C   C3        1.0  0.73819  0.26321  0.40858  1.0000
  C   C4        1.0  0.23819  0.23679  0.09142  1.0000
  C   C5        1.0  0.25235  0.74717  0.52272  1.0000
  C   C6        1.0  0.75235  0.75283  0.97728  1.0000
  C   C7        1.0  0.74766  0.25283  0.47728  1.0000
  C   C8        1.0  0.24765  0.24717  0.02272  1.0000
  C   C9        1.0  0.24613  0.59321  0.47430  1.0000
  C   C10       1.0  0.74613  0.90679  0.02570  1.0000
  C   C11       1.0  0.75388  0.40679  0.52570  1.0000
  C   C12       1.0  0.25387  0.09320  0.97430  1.0000
  C   C13       1.0  0.24914  0.43542  0.49617  1.0000
  C   C14       1.0  0.74914  0.06457  0.00383  1.0000
  C   C15       1.0  0.75087  0.56458  0.50383  1.0000
  C   C16       1.0  0.25085  0.93543  0.99617  1.0000
  C   C17       1.0  0.25881  0.43496  0.56631  1.0000
  C   C18       1.0  0.75881  0.06504  0.93369  1.0000
  C   C19       1.0  0.74119  0.56504  0.43369  1.0000
  C   C20       1.0  0.24119  0.93497  0.06631  1.0000
  C   C21       1.0  0.26454  0.26309  0.59046  1.0000
  C   C22       1.0  0.76454  0.23691  0.90954  1.0000
  C   C23       1.0  0.73546  0.73691  0.40954  1.0000
  C   C24       1.0  0.23546  0.76309  0.09046  1.0000
  I   I1        1.0  0.26220  0.46395  0.85941  1.0000
  I   I2        1.0  0.76221  0.03605  0.64058  1.0000
  I   I3        1.0  0.73779  0.53605  0.14059  1.0000
  I   I4        1.0  0.23779  0.96395  0.35941  1.0000
  I   I5        1.0  0.26708  0.93384  0.77862  1.0000
  I   I6        1.0  0.76707  0.56616  0.72138  1.0000
  I   I7        1.0  0.73293  0.06616  0.22138  1.0000
  I   I8        1.0  0.23292  0.43384  0.27862  1.0000
  N   N1        1.0  0.26509  0.58364  0.61247  1.0000
  N   N2        1.0  0.76509  0.91635  0.88753  1.0000
  N   N3        1.0  0.73491  0.41636  0.38754  1.0000
  N   N4        1.0  0.23491  0.08365  0.11247  1.0000
  N   N5        1.0  0.26388  0.27558  0.66486  1.0000
  N   N6        1.0  0.76388  0.22443  0.83514  1.0000
  N   N7        1.0  0.73613  0.72442  0.33514  1.0000
  N   N8        1.0  0.23612  0.77557  0.16486  1.0000
