data_image0
_chemical_formula_structural       Cd2H16C16Br2N10
_chemical_formula_sum              "Cd2 H16 C16 Br2 N10"
_cell_length_a       7.62593
_cell_length_b       7.5058
_cell_length_c       10.379
_cell_angle_alpha    73.3461
_cell_angle_beta     79.8378
_cell_angle_gamma    83.1839

_space_group_name_H-M_alt    "P 1"
_space_group_IT_number       1

loop_
  _space_group_symop_operation_xyz
  'x, y, z'

loop_
  _atom_site_type_symbol
  _atom_site_label
  _atom_site_symmetry_multiplicity
  _atom_site_fract_x
  _atom_site_fract_y
  _atom_site_fract_z
  _atom_site_occupancy
  Cd  Cd1       1.0  0.31061  0.42560  0.16607  1.0000
  Cd  Cd2       1.0  0.68939  0.57440  0.83393  1.0000
  H   H1        1.0  0.03518  0.22760  0.11691  1.0000
  H   H2        1.0  0.96481  0.77239  0.88309  1.0000
  H   H3        1.0  0.20941  0.20970  0.00167  1.0000
  H   H4        1.0  0.79059  0.79029  0.99834  1.0000
  H   H5        1.0  0.34421  0.29211  0.48812  1.0000
  H   H6        1.0  0.65579  0.70790  0.51188  1.0000
  H   H7        1.0  0.28372  0.01432  0.69148  1.0000
  H   H8        1.0  0.71628  0.98568  0.30852  1.0000
  H   H9        1.0  0.18340  0.72932  0.65471  1.0000
  H   H10       1.0  0.81661  0.27068  0.34529  1.0000
  H   H11       1.0  0.15102  0.72866  0.41779  1.0000
  H   H12       1.0  0.84898  0.27134  0.58221  1.0000
  H   H13       1.0  0.35773  0.97219  0.13912  1.0000
  H   H14       1.0  0.64228  0.02781  0.86088  1.0000
  H   H15       1.0  0.13631  0.90762  0.18520  1.0000
  H   H16       1.0  0.86370  0.09237  0.81481  1.0000
  C   C1        1.0  0.30108  0.16324  0.47905  1.0000
  C   C2        1.0  0.69892  0.83677  0.52096  1.0000
  C   C3        1.0  0.26724  0.00984  0.59043  1.0000
  C   C4        1.0  0.73276  0.99017  0.40957  1.0000
  C   C5        1.0  0.21246  0.85103  0.56911  1.0000
  C   C6        1.0  0.78754  0.14897  0.43089  1.0000
  C   C7        1.0  0.19395  0.84991  0.43829  1.0000
  C   C8        1.0  0.80605  0.15009  0.56171  1.0000
  C   C9        1.0  0.23246  0.00898  0.33113  1.0000
  C   C10       1.0  0.76754  0.99101  0.66887  1.0000
  C   C11       1.0  0.22358  0.01378  0.18568  1.0000
  C   C12       1.0  0.77642  0.98622  0.81432  1.0000
  C   C13       1.0  0.59089  0.62686  0.25716  1.0000
  C   C14       1.0  0.40912  0.37314  0.74284  1.0000
  C   C15       1.0  0.89364  0.62033  0.24277  1.0000
  C   C16       1.0  0.10637  0.37967  0.75723  1.0000
  Br  Br1       1.0  0.32645  0.71142  0.93524  1.0000
  Br  Br2       1.0  0.67354  0.28858  0.06476  1.0000
  N   N1        1.0  0.28439  0.16153  0.35277  1.0000
  N   N2        1.0  0.71561  0.83847  0.64723  1.0000
  N   N3        1.0  0.17132  0.20113  0.10291  1.0000
  N   N4        1.0  0.82868  0.79887  0.89710  1.0000
  N   N5        1.0  0.44720  0.57008  0.29004  1.0000
  N   N6        1.0  0.55279  0.42990  0.70996  1.0000
  N   N7        1.0  0.74071  0.70515  0.21532  1.0000
  N   N8        1.0  0.25927  0.29486  0.78468  1.0000
  N   N9        1.0  0.03928  0.55832  0.26155  1.0000
  N   N10       1.0  0.96070  0.44169  0.73844  1.0000
