data_image0
_chemical_formula_structural       Hg2H24C40N4Cl4
_chemical_formula_sum              "Hg2 H24 C40 N4 Cl4"
_cell_length_a       4.88782
_cell_length_b       12.2867
_cell_length_c       15.2838
_cell_angle_alpha    98.3793
_cell_angle_beta     90.0003
_cell_angle_gamma    90

_space_group_name_H-M_alt    "P 1"
_space_group_IT_number       1

loop_
  _space_group_symop_operation_xyz
  'x, y, z'

loop_
  _atom_site_type_symbol
  _atom_site_label
  _atom_site_symmetry_multiplicity
  _atom_site_fract_x
  _atom_site_fract_y
  _atom_site_fract_z
  _atom_site_occupancy
  Hg  Hg1       1.0  0.02010  0.50000  0.75000  1.0000
  Hg  Hg2       1.0  0.97990  0.50000  0.25000  1.0000
  H   H1        1.0  0.71018  0.53761  0.56496  1.0000
  H   H2        1.0  0.71018  0.46238  0.93504  1.0000
  H   H3        1.0  0.28982  0.46238  0.43504  1.0000
  H   H4        1.0  0.28982  0.53761  0.06496  1.0000
  H   H5        1.0  0.29939  0.84355  0.76515  1.0000
  H   H6        1.0  0.29939  0.15645  0.73485  1.0000
  H   H7        1.0  0.70061  0.15645  0.23485  1.0000
  H   H8        1.0  0.70061  0.84355  0.26515  1.0000
  H   H9        1.0  0.34609  0.65044  0.50530  1.0000
  H   H10       1.0  0.34608  0.34955  0.99469  1.0000
  H   H11       1.0  0.65392  0.34955  0.49470  1.0000
  H   H12       1.0  0.65392  0.65045  0.00530  1.0000
  H   H13       1.0  0.66250  0.72032  0.81405  1.0000
  H   H14       1.0  0.66250  0.27968  0.68595  1.0000
  H   H15       1.0  0.33750  0.27968  0.18595  1.0000
  H   H16       1.0  0.33750  0.72033  0.31405  1.0000
  H   H17       1.0  0.66182  0.82132  0.41820  1.0000
  H   H18       1.0  0.66182  0.17869  0.08180  1.0000
  H   H19       1.0  0.33818  0.17868  0.58180  1.0000
  H   H20       1.0  0.33818  0.82132  0.91820  1.0000
  H   H21       1.0  0.70215  0.07135  0.64670  1.0000
  H   H22       1.0  0.70215  0.92865  0.85331  1.0000
  H   H23       1.0  0.29785  0.92865  0.35331  1.0000
  H   H24       1.0  0.29785  0.07135  0.14670  1.0000
  C   C1        1.0  0.08708  0.82255  0.60028  1.0000
  C   C2        1.0  0.08708  0.17745  0.89972  1.0000
  C   C3        1.0  0.91293  0.17745  0.39973  1.0000
  C   C4        1.0  0.91292  0.82255  0.10028  1.0000
  C   C5        1.0  0.61121  0.60563  0.60704  1.0000
  C   C6        1.0  0.61120  0.39437  0.89296  1.0000
  C   C7        1.0  0.38879  0.39437  0.39296  1.0000
  C   C8        1.0  0.38880  0.60563  0.10704  1.0000
  C   C9        1.0  0.29219  0.75661  0.63085  1.0000
  C   C10       1.0  0.29219  0.24339  0.86915  1.0000
  C   C11       1.0  0.70781  0.24339  0.36915  1.0000
  C   C12       1.0  0.70781  0.75661  0.13085  1.0000
  C   C13       1.0  0.38602  0.77665  0.71893  1.0000
  C   C14       1.0  0.38602  0.22335  0.78106  1.0000
  C   C15       1.0  0.61398  0.22335  0.28106  1.0000
  C   C16       1.0  0.61398  0.77665  0.21894  1.0000
  C   C17       1.0  0.91017  0.87825  0.57204  1.0000
  C   C18       1.0  0.91017  0.12175  0.92796  1.0000
  C   C19       1.0  0.08982  0.12175  0.42796  1.0000
  C   C20       1.0  0.08982  0.87825  0.07204  1.0000
  C   C21       1.0  0.70512  0.93963  0.53635  1.0000
  C   C22       1.0  0.70512  0.06037  0.96365  1.0000
  C   C23       1.0  0.29488  0.06037  0.46365  1.0000
  C   C24       1.0  0.29487  0.93963  0.03635  1.0000
  C   C25       1.0  0.41094  0.66862  0.57403  1.0000
  C   C26       1.0  0.41094  0.33138  0.92597  1.0000
  C   C27       1.0  0.58906  0.33138  0.42597  1.0000
  C   C28       1.0  0.58906  0.66862  0.07403  1.0000
  C   C29       1.0  0.58615  0.70893  0.74619  1.0000
  C   C30       1.0  0.58615  0.29107  0.75381  1.0000
  C   C31       1.0  0.41385  0.29107  0.25381  1.0000
  C   C32       1.0  0.41385  0.70893  0.24619  1.0000
  C   C33       1.0  0.58998  0.89996  0.45300  1.0000
  C   C34       1.0  0.58998  0.10004  0.04700  1.0000
  C   C35       1.0  0.41002  0.10004  0.54701  1.0000
  C   C36       1.0  0.41002  0.89996  0.95300  1.0000
  C   C37       1.0  0.61167  0.04058  0.58267  1.0000
  C   C38       1.0  0.61167  0.95942  0.91734  1.0000
  C   C39       1.0  0.38832  0.95942  0.41734  1.0000
  C   C40       1.0  0.38832  0.04058  0.08266  1.0000
  N   N1        1.0  0.69637  0.62470  0.69154  1.0000
  N   N2        1.0  0.69636  0.37530  0.80846  1.0000
  N   N3        1.0  0.30364  0.37530  0.30846  1.0000
  N   N4        1.0  0.30364  0.62470  0.19154  1.0000
  Cl  Cl1       1.0  0.11834  0.38699  0.61121  1.0000
  Cl  Cl2       1.0  0.11834  0.61301  0.88879  1.0000
  Cl  Cl3       1.0  0.88166  0.61301  0.38879  1.0000
  Cl  Cl4       1.0  0.88166  0.38699  0.11121  1.0000
