data_image0
_chemical_formula_structural       Ni3H30C36S6N12
_chemical_formula_sum              "Ni3 H30 C36 S6 N12"
_cell_length_a       8.43995
_cell_length_b       8.4297
_cell_length_c       15.2781
_cell_angle_alpha    93.217
_cell_angle_beta     96.1713
_cell_angle_gamma    114.623

_space_group_name_H-M_alt    "P 1"
_space_group_IT_number       1

loop_
  _space_group_symop_operation_xyz
  'x, y, z'

loop_
  _atom_site_type_symbol
  _atom_site_label
  _atom_site_symmetry_multiplicity
  _atom_site_fract_x
  _atom_site_fract_y
  _atom_site_fract_z
  _atom_site_occupancy
  Ni  Ni1       1.0  0.00001  0.00000  0.00000  1.0000
  Ni  Ni2       1.0  0.32667  0.32179  0.33620  1.0000
  Ni  Ni3       1.0  0.67333  0.67820  0.66381  1.0000
  H   H1        1.0  0.37332  0.24641  0.08379  1.0000
  H   H2        1.0  0.62668  0.75360  0.91621  1.0000
  H   H3        1.0  0.67879  0.35862  0.04450  1.0000
  H   H4        1.0  0.32120  0.64139  0.95549  1.0000
  H   H5        1.0  0.72409  0.24510  0.89883  1.0000
  H   H6        1.0  0.27591  0.75491  0.10117  1.0000
  H   H7        1.0  0.46060  0.02102  0.79794  1.0000
  H   H8        1.0  0.53940  0.97898  0.20205  1.0000
  H   H9        1.0  0.16350  0.92389  0.84707  1.0000
  H   H10       1.0  0.83650  0.07611  0.15293  1.0000
  H   H11       1.0  0.95391  0.03928  0.28560  1.0000
  H   H12       1.0  0.04609  0.96071  0.71440  1.0000
  H   H13       1.0  0.67218  0.91238  0.35036  1.0000
  H   H14       1.0  0.32783  0.08762  0.64964  1.0000
  H   H15       1.0  0.66662  0.03495  0.50333  1.0000
  H   H16       1.0  0.33338  0.96505  0.49667  1.0000
  H   H17       1.0  0.94303  0.27623  0.58483  1.0000
  H   H18       1.0  0.05697  0.72377  0.41517  1.0000
  H   H19       1.0  0.21367  0.38677  0.51087  1.0000
  H   H20       1.0  0.78633  0.61323  0.48913  1.0000
  H   H21       1.0  0.66067  0.27308  0.35526  1.0000
  H   H22       1.0  0.33933  0.72692  0.64474  1.0000
  H   H23       1.0  0.95339  0.38918  0.30063  1.0000
  H   H24       1.0  0.04660  0.61082  0.69936  1.0000
  H   H25       1.0  0.01341  0.61004  0.19084  1.0000
  H   H26       1.0  0.98658  0.38995  0.80915  1.0000
  H   H27       1.0  0.49449  0.58212  0.20439  1.0000
  H   H28       1.0  0.50550  0.41788  0.79561  1.0000
  H   H29       1.0  0.77815  0.70678  0.14113  1.0000
  H   H30       1.0  0.22184  0.29321  0.85887  1.0000
  C   C1        1.0  0.17013  0.98496  0.18972  1.0000
  C   C2        1.0  0.82988  0.01504  0.81030  1.0000
  C   C3        1.0  0.14041  0.33497  0.14932  1.0000
  C   C4        1.0  0.85958  0.66505  0.85068  1.0000
  C   C5        1.0  0.53171  0.33186  0.52138  1.0000
  C   C6        1.0  0.46830  0.66812  0.47864  1.0000
  C   C7        1.0  0.39819  0.20083  0.02085  1.0000
  C   C8        1.0  0.60181  0.79918  0.97915  1.0000
  C   C9        1.0  0.56784  0.26268  0.99870  1.0000
  C   C10       1.0  0.43215  0.73733  0.00129  1.0000
  C   C11       1.0  0.59253  0.19961  0.91746  1.0000
  C   C12       1.0  0.40747  0.80040  0.08253  1.0000
  C   C13       1.0  0.44625  0.07574  0.86137  1.0000
  C   C14       1.0  0.55375  0.92427  0.13862  1.0000
  C   C15       1.0  0.28115  0.02087  0.88845  1.0000
  C   C16       1.0  0.71886  0.97914  0.11155  1.0000
  C   C17       1.0  0.94521  0.08876  0.35143  1.0000
  C   C18       1.0  0.05479  0.91123  0.64857  1.0000
  C   C19       1.0  0.78909  0.01898  0.38768  1.0000
  C   C20       1.0  0.21091  0.98101  0.61232  1.0000
  C   C21       1.0  0.78620  0.08653  0.47267  1.0000
  C   C22       1.0  0.21380  0.91346  0.52733  1.0000
  C   C23       1.0  0.93998  0.22060  0.51828  1.0000
  C   C24       1.0  0.06002  0.77940  0.48172  1.0000
  C   C25       1.0  0.09067  0.28292  0.47727  1.0000
  C   C26       1.0  0.90932  0.71708  0.52273  1.0000
  C   C27       1.0  0.69238  0.36970  0.30793  1.0000
  C   C28       1.0  0.30762  0.63030  0.69207  1.0000
  C   C29       1.0  0.85469  0.43433  0.27724  1.0000
  C   C30       1.0  0.14530  0.56567  0.72275  1.0000
  C   C31       1.0  0.88796  0.55733  0.21632  1.0000
  C   C32       1.0  0.11203  0.44267  0.78367  1.0000
  C   C33       1.0  0.59923  0.54206  0.22350  1.0000
  C   C34       1.0  0.40077  0.45793  0.77650  1.0000
  C   C35       1.0  0.75731  0.61148  0.18877  1.0000
  C   C36       1.0  0.24268  0.38851  0.81123  1.0000
  S   S1        1.0  0.28089  0.01624  0.28815  1.0000
  S   S2        1.0  0.71912  0.98375  0.71185  1.0000
  S   S3        1.0  0.05902  0.31364  0.04551  1.0000
  S   S4        1.0  0.94099  0.68636  0.95449  1.0000
  S   S5        1.0  0.63543  0.37061  0.62195  1.0000
  S   S6        1.0  0.36458  0.62939  0.37806  1.0000
  N   N1        1.0  0.08658  0.96045  0.11883  1.0000
  N   N2        1.0  0.91342  0.03956  0.88117  1.0000
  N   N3        1.0  0.19815  0.34624  0.22477  1.0000
  N   N4        1.0  0.80186  0.65376  0.77524  1.0000
  N   N5        1.0  0.45800  0.30794  0.44817  1.0000
  N   N6        1.0  0.54201  0.69206  0.55184  1.0000
  N   N7        1.0  0.25654  0.08266  0.96655  1.0000
  N   N8        1.0  0.74346  0.91734  0.03345  1.0000
  N   N9        1.0  0.09364  0.21918  0.39496  1.0000
  N   N10       1.0  0.90636  0.78081  0.60504  1.0000
  N   N11       1.0  0.56638  0.42270  0.28204  1.0000
  N   N12       1.0  0.43362  0.57730  0.71796  1.0000
