data_image0
_chemical_formula_structural       Cd2H32C12N12O16
_chemical_formula_sum              "Cd2 H32 C12 N12 O16"
_cell_length_a       7.46034
_cell_length_b       7.46034
_cell_length_c       12.9214
_cell_angle_alpha    100.655
_cell_angle_beta     100.655
_cell_angle_gamma    108.512

_space_group_name_H-M_alt    "P 1"
_space_group_IT_number       1

loop_
  _space_group_symop_operation_xyz
  'x, y, z'

loop_
  _atom_site_type_symbol
  _atom_site_label
  _atom_site_symmetry_multiplicity
  _atom_site_fract_x
  _atom_site_fract_y
  _atom_site_fract_z
  _atom_site_occupancy
  Cd  Cd1       1.0  1.00000  0.50000  0.50000  1.0000
  Cd  Cd2       1.0  0.50000  1.00000  1.00000  1.0000
  H   H1        1.0  0.19881  0.32313  0.35521  1.0000
  H   H2        1.0  0.67687  0.80119  0.14478  1.0000
  H   H3        1.0  0.80119  0.67687  0.64478  1.0000
  H   H4        1.0  0.32313  0.19881  0.85521  1.0000
  H   H5        1.0  0.41442  0.45023  0.55664  1.0000
  H   H6        1.0  0.54977  0.58558  0.94336  1.0000
  H   H7        1.0  0.58558  0.54977  0.44336  1.0000
  H   H8        1.0  0.45023  0.41442  0.05664  1.0000
  H   H9        1.0  0.46428  0.70910  0.58924  1.0000
  H   H10       1.0  0.29089  0.53572  0.91076  1.0000
  H   H11       1.0  0.53572  0.29089  0.41076  1.0000
  H   H12       1.0  0.70910  0.46428  0.08924  1.0000
  H   H13       1.0  0.09124  0.33971  0.73208  1.0000
  H   H14       1.0  0.66029  0.90877  0.76792  1.0000
  H   H15       1.0  0.90877  0.66029  0.26792  1.0000
  H   H16       1.0  0.33971  0.09124  0.23208  1.0000
  H   H17       1.0  0.20090  0.24027  0.63454  1.0000
  H   H18       1.0  0.75972  0.79910  0.86546  1.0000
  H   H19       1.0  0.79910  0.75972  0.36546  1.0000
  H   H20       1.0  0.24027  0.20091  0.13454  1.0000
  H   H21       1.0  0.15453  0.68735  0.77981  1.0000
  H   H22       1.0  0.31264  0.84547  0.72018  1.0000
  H   H23       1.0  0.84547  0.31264  0.22018  1.0000
  H   H24       1.0  0.68735  0.15453  0.27982  1.0000
  H   H25       1.0  0.54894  0.30646  0.68361  1.0000
  H   H26       1.0  0.69355  0.45106  0.81639  1.0000
  H   H27       1.0  0.45106  0.69355  0.31639  1.0000
  H   H28       1.0  0.30646  0.54894  0.18361  1.0000
  H   H29       1.0  0.11614  0.16593  0.42209  1.0000
  H   H30       1.0  0.83408  0.88386  0.07791  1.0000
  H   H31       1.0  0.88386  0.83408  0.57791  1.0000
  H   H32       1.0  0.16593  0.11614  0.92209  1.0000
  C   C1        1.0  0.43747  0.57953  0.62121  1.0000
  C   C2        1.0  0.42047  0.56253  0.87880  1.0000
  C   C3        1.0  0.56253  0.42047  0.37879  1.0000
  C   C4        1.0  0.57953  0.43747  0.12121  1.0000
  C   C5        1.0  0.22215  0.36582  0.70130  1.0000
  C   C6        1.0  0.63418  0.77785  0.79870  1.0000
  C   C7        1.0  0.77785  0.63418  0.29870  1.0000
  C   C8        1.0  0.36582  0.22215  0.20130  1.0000
  C   C9        1.0  0.28643  0.71357  0.75000  1.0000
  C   C10       1.0  0.71357  0.28642  0.25000  1.0000
  C   C11       1.0  0.56862  0.43139  0.75000  1.0000
  C   C12       1.0  0.43138  0.56862  0.25000  1.0000
  N   N1        1.0  0.25551  0.54339  0.65896  1.0000
  N   N2        1.0  0.45660  0.74449  0.84104  1.0000
  N   N3        1.0  0.74449  0.45660  0.34104  1.0000
  N   N4        1.0  0.54339  0.25551  0.15896  1.0000
  N   N5        1.0  0.60738  0.60934  0.70956  1.0000
  N   N6        1.0  0.39066  0.39262  0.79044  1.0000
  N   N7        1.0  0.39262  0.39066  0.29044  1.0000
  N   N8        1.0  0.60934  0.60738  0.20956  1.0000
  N   N9        1.0  0.74214  0.11376  0.57003  1.0000
  N   N10       1.0  0.88624  0.25786  0.92998  1.0000
  N   N11       1.0  0.25786  0.88624  0.42998  1.0000
  N   N12       1.0  0.11376  0.74214  0.07002  1.0000
  O   O1        1.0  0.09577  0.27553  0.39478  1.0000
  O   O2        1.0  0.72448  0.90423  0.10521  1.0000
  O   O3        1.0  0.90423  0.72448  0.60521  1.0000
  O   O4        1.0  0.27552  0.09577  0.89478  1.0000
  O   O5        1.0  0.76293  0.29045  0.56668  1.0000
  O   O6        1.0  0.70955  0.23706  0.93332  1.0000
  O   O7        1.0  0.23706  0.70955  0.43332  1.0000
  O   O8        1.0  0.29045  0.76293  0.06668  1.0000
  O   O9        1.0  0.84074  0.03002  0.52411  1.0000
  O   O10       1.0  0.96999  0.15927  0.97590  1.0000
  O   O11       1.0  0.15927  0.96998  0.47590  1.0000
  O   O12       1.0  0.03002  0.84074  0.02411  1.0000
  O   O13       1.0  0.62529  0.03024  0.61957  1.0000
  O   O14       1.0  0.96976  0.37471  0.88042  1.0000
  O   O15       1.0  0.37470  0.96976  0.38042  1.0000
  O   O16       1.0  0.03024  0.62529  0.11957  1.0000
