data_image0
_chemical_formula_structural       La2H22C28N4O22
_chemical_formula_sum              "La2 H22 C28 N4 O22"
_cell_length_a       6.97682
_cell_length_b       11.2253
_cell_length_c       11.1923
_cell_angle_alpha    79.6574
_cell_angle_beta     75.6437
_cell_angle_gamma    75.2304

_space_group_name_H-M_alt    "P 1"
_space_group_IT_number       1

loop_
  _space_group_symop_operation_xyz
  'x, y, z'

loop_
  _atom_site_type_symbol
  _atom_site_label
  _atom_site_symmetry_multiplicity
  _atom_site_fract_x
  _atom_site_fract_y
  _atom_site_fract_z
  _atom_site_occupancy
  La  La1       1.0  0.66695  0.45994  0.23984  1.0000
  La  La2       1.0  0.33306  0.54006  0.76016  1.0000
  H   H1        1.0  0.19794  0.21872  0.83994  1.0000
  H   H2        1.0  0.80206  0.78128  0.16006  1.0000
  H   H3        1.0  0.13047  0.95671  0.17150  1.0000
  H   H4        1.0  0.86952  0.04328  0.82850  1.0000
  H   H5        1.0  0.94788  0.92344  0.34692  1.0000
  H   H6        1.0  0.05212  0.07655  0.65309  1.0000
  H   H7        1.0  0.54321  0.10134  0.65298  1.0000
  H   H8        1.0  0.45679  0.89866  0.34701  1.0000
  H   H9        1.0  0.52280  0.93767  0.77039  1.0000
  H   H10       1.0  0.47721  0.06234  0.22960  1.0000
  H   H11       1.0  0.36416  0.29644  0.22508  1.0000
  H   H12       1.0  0.63584  0.70356  0.77492  1.0000
  H   H13       1.0  0.34374  0.41073  0.11403  1.0000
  H   H14       1.0  0.65627  0.58928  0.88597  1.0000
  H   H15       1.0  0.42495  0.72166  0.09007  1.0000
  H   H16       1.0  0.57504  0.27834  0.90993  1.0000
  H   H17       1.0  0.43479  0.70712  0.23115  1.0000
  H   H18       1.0  0.56520  0.29288  0.76885  1.0000
  H   H19       1.0  0.97083  0.35445  0.43305  1.0000
  H   H20       1.0  0.02917  0.64556  0.56695  1.0000
  H   H21       1.0  0.79134  0.47348  0.47787  1.0000
  H   H22       1.0  0.20867  0.52652  0.52213  1.0000
  C   C1        1.0  0.99021  0.28421  0.00408  1.0000
  C   C2        1.0  0.00979  0.71580  0.99592  1.0000
  C   C3        1.0  0.13173  0.19430  0.93733  1.0000
  C   C4        1.0  0.86827  0.80571  0.06267  1.0000
  C   C5        1.0  0.18458  0.07524  0.99958  1.0000
  C   C6        1.0  0.81542  0.92476  0.00042  1.0000
  C   C7        1.0  0.09083  0.05007  0.12387  1.0000
  C   C8        1.0  0.90916  0.94993  0.87613  1.0000
  C   C9        1.0  0.94833  0.14488  0.18393  1.0000
  C   C10       1.0  0.05166  0.85512  0.81607  1.0000
  C   C11       1.0  0.83583  0.12414  0.31388  1.0000
  C   C12       1.0  0.16417  0.87586  0.68612  1.0000
  C   C13       1.0  0.85376  0.00720  0.38459  1.0000
  C   C14       1.0  0.14624  0.99280  0.61541  1.0000
  C   C15       1.0  0.74759  0.99520  0.50805  1.0000
  C   C16       1.0  0.25241  0.00480  0.49195  1.0000
  C   C17       1.0  0.62755  0.10234  0.55735  1.0000
  C   C18       1.0  0.37246  0.89766  0.44265  1.0000
  C   C19       1.0  0.61023  0.21466  0.47939  1.0000
  C   C20       1.0  0.38977  0.78534  0.52060  1.0000
  C   C21       1.0  0.47468  0.33307  0.52457  1.0000
  C   C22       1.0  0.52531  0.66694  0.47544  1.0000
  C   C23       1.0  0.77149  0.86612  0.58113  1.0000
  C   C24       1.0  0.22851  0.13388  0.41887  1.0000
  C   C25       1.0  0.33933  0.97321  0.93669  1.0000
  C   C26       1.0  0.66066  0.02679  0.06331  1.0000
  C   C27       1.0  0.92506  0.41478  0.94213  1.0000
  C   C28       1.0  0.07495  0.58522  0.05787  1.0000
  N   N1        1.0  0.90359  0.26096  0.12455  1.0000
  N   N2        1.0  0.09641  0.73904  0.87545  1.0000
  N   N3        1.0  0.70950  0.22535  0.36048  1.0000
  N   N4        1.0  0.29050  0.77465  0.63952  1.0000
  O   O1        1.0  0.41715  0.41891  0.44133  1.0000
  O   O2        1.0  0.58285  0.58110  0.55868  1.0000
  O   O3        1.0  0.43000  0.33961  0.64035  1.0000
  O   O4        1.0  0.57000  0.66040  0.35966  1.0000
  O   O5        1.0  0.67677  0.85277  0.69562  1.0000
  O   O6        1.0  0.32322  0.14722  0.30438  1.0000
  O   O7        1.0  0.88540  0.77980  0.52318  1.0000
  O   O8        1.0  0.11461  0.22020  0.47682  1.0000
  O   O9        1.0  0.39368  0.87010  0.99382  1.0000
  O   O10       1.0  0.60632  0.12990  0.00617  1.0000
  O   O11       1.0  0.40898  0.00642  0.81798  1.0000
  O   O12       1.0  0.59101  0.99358  0.18202  1.0000
  O   O13       1.0  0.03167  0.44790  0.83895  1.0000
  O   O14       1.0  0.96834  0.55210  0.16105  1.0000
  O   O15       1.0  0.76563  0.48348  0.99975  1.0000
  O   O16       1.0  0.23438  0.51652  0.00026  1.0000
  O   O17       1.0  0.42275  0.36709  0.17791  1.0000
  O   O18       1.0  0.57725  0.63291  0.82209  1.0000
  O   O19       1.0  0.42865  0.66138  0.16540  1.0000
  O   O20       1.0  0.57134  0.33862  0.83460  1.0000
  O   O21       1.0  0.86438  0.42599  0.40751  1.0000
  O   O22       1.0  0.13561  0.57400  0.59249  1.0000
