data_image0
_chemical_formula_structural       Ba4P8H60C24N4Cl8O32
_chemical_formula_sum              "Ba4 P8 H60 C24 N4 Cl8 O32"
_cell_length_a       6.14636
_cell_length_b       8.58091
_cell_length_c       28.8664
_cell_angle_alpha    98.3946
_cell_angle_beta     90
_cell_angle_gamma    90

_space_group_name_H-M_alt    "P 1"
_space_group_IT_number       1

loop_
  _space_group_symop_operation_xyz
  'x, y, z'

loop_
  _atom_site_type_symbol
  _atom_site_label
  _atom_site_symmetry_multiplicity
  _atom_site_fract_x
  _atom_site_fract_y
  _atom_site_fract_z
  _atom_site_occupancy
  Ba  Ba1       1.0  0.82233  0.83352  0.95283  1.0000
  Ba  Ba2       1.0  0.32233  0.66648  0.54717  1.0000
  Ba  Ba3       1.0  0.17767  0.16648  0.04717  1.0000
  Ba  Ba4       1.0  0.67767  0.33352  0.45283  1.0000
  P   P1        1.0  0.34106  0.10340  0.92594  1.0000
  P   P2        1.0  0.84105  0.39660  0.57405  1.0000
  P   P3        1.0  0.65894  0.89660  0.07406  1.0000
  P   P4        1.0  0.15894  0.60340  0.42594  1.0000
  P   P5        1.0  0.30646  0.75936  0.87232  1.0000
  P   P6        1.0  0.80647  0.74064  0.62768  1.0000
  P   P7        1.0  0.69354  0.24064  0.12768  1.0000
  P   P8        1.0  0.19354  0.25936  0.37232  1.0000
  H   H1        1.0  0.74378  0.45058  0.98430  1.0000
  H   H2        1.0  0.24379  0.04942  0.51570  1.0000
  H   H3        1.0  0.25621  0.54942  0.01570  1.0000
  H   H4        1.0  0.75621  0.95058  0.48430  1.0000
  H   H5        1.0  0.58462  0.49395  0.94569  1.0000
  H   H6        1.0  0.08461  0.00605  0.55431  1.0000
  H   H7        1.0  0.41538  0.50605  0.05431  1.0000
  H   H8        1.0  0.91538  0.99395  0.44569  1.0000
  H   H9        1.0  0.29209  0.78203  0.01246  1.0000
  H   H10       1.0  0.79209  0.71798  0.48754  1.0000
  H   H11       1.0  0.70790  0.21798  0.98754  1.0000
  H   H12       1.0  0.20790  0.28203  0.51246  1.0000
  H   H13       1.0  0.30045  0.70297  0.95995  1.0000
  H   H14       1.0  0.80045  0.79703  0.54005  1.0000
  H   H15       1.0  0.69955  0.29703  0.04005  1.0000
  H   H16       1.0  0.19955  0.20297  0.45995  1.0000
  H   H17       1.0  0.31831  0.67807  0.75288  1.0000
  H   H18       1.0  0.81832  0.82193  0.74712  1.0000
  H   H19       1.0  0.68169  0.32193  0.24712  1.0000
  H   H20       1.0  0.18169  0.17807  0.25288  1.0000
  H   H21       1.0  0.08647  0.67945  0.79032  1.0000
  H   H22       1.0  0.58648  0.82055  0.70968  1.0000
  H   H23       1.0  0.91353  0.32055  0.20968  1.0000
  H   H24       1.0  0.41352  0.17945  0.29032  1.0000
  H   H25       1.0  0.13496  0.39549  0.79470  1.0000
  H   H26       1.0  0.63497  0.10451  0.70530  1.0000
  H   H27       1.0  0.86503  0.60451  0.20530  1.0000
  H   H28       1.0  0.36504  0.89549  0.29470  1.0000
  H   H29       1.0  0.12730  0.42342  0.73454  1.0000
  H   H30       1.0  0.62731  0.07658  0.76546  1.0000
  H   H31       1.0  0.87270  0.57658  0.26546  1.0000
  H   H32       1.0  0.37270  0.92342  0.23454  1.0000
  H   H33       1.0  0.71806  0.34060  0.78984  1.0000
  H   H34       1.0  0.21807  0.15939  0.71016  1.0000
  H   H35       1.0  0.28194  0.65939  0.21016  1.0000
  H   H36       1.0  0.78194  0.84060  0.28984  1.0000
  H   H37       1.0  0.48527  0.34363  0.82759  1.0000
  H   H38       1.0  0.98529  0.15637  0.67241  1.0000
  H   H39       1.0  0.51472  0.65637  0.17241  1.0000
  H   H40       1.0  0.01472  0.84363  0.32759  1.0000
  H   H41       1.0  0.68950  0.59102  0.84890  1.0000
  H   H42       1.0  0.18951  0.90897  0.65110  1.0000
  H   H43       1.0  0.31050  0.40897  0.15110  1.0000
  H   H44       1.0  0.81050  0.09103  0.34890  1.0000
  H   H45       1.0  0.69143  0.62643  0.78967  1.0000
  H   H46       1.0  0.19144  0.87356  0.71033  1.0000
  H   H47       1.0  0.30856  0.37356  0.21033  1.0000
  H   H48       1.0  0.80856  0.12643  0.28967  1.0000
  H   H49       1.0  0.99869  0.26981  0.89661  1.0000
  H   H50       1.0  0.49869  0.23019  0.60339  1.0000
  H   H51       1.0  0.00131  0.73019  0.10339  1.0000
  H   H52       1.0  0.50131  0.76981  0.39660  1.0000
  H   H53       1.0  0.15250  0.42958  0.87907  1.0000
  H   H54       1.0  0.65250  0.07042  0.62093  1.0000
  H   H55       1.0  0.84750  0.57042  0.12093  1.0000
  H   H56       1.0  0.34750  0.92958  0.37907  1.0000
  H   H57       1.0  0.08364  0.42999  0.93940  1.0000
  H   H58       1.0  0.58363  0.07001  0.56060  1.0000
  H   H59       1.0  0.91636  0.57001  0.06060  1.0000
  H   H60       1.0  0.41637  0.92999  0.43940  1.0000
  C   C1        1.0  0.37264  0.97162  0.86849  1.0000
  C   C2        1.0  0.87264  0.52838  0.63151  1.0000
  C   C3        1.0  0.62736  0.02838  0.13151  1.0000
  C   C4        1.0  0.12737  0.47162  0.36849  1.0000
  C   C5        1.0  0.24549  0.62470  0.78183  1.0000
  C   C6        1.0  0.74550  0.87530  0.71817  1.0000
  C   C7        1.0  0.75451  0.37530  0.21817  1.0000
  C   C8        1.0  0.25451  0.12470  0.28183  1.0000
  C   C9        1.0  0.22064  0.44829  0.76710  1.0000
  C   C10       1.0  0.72064  0.05171  0.73290  1.0000
  C   C11       1.0  0.77936  0.55171  0.23290  1.0000
  C   C12       1.0  0.27936  0.94829  0.26710  1.0000
  C   C13       1.0  0.56235  0.39925  0.79947  1.0000
  C   C14       1.0  0.06236  0.10075  0.70053  1.0000
  C   C15       1.0  0.43765  0.60075  0.20053  1.0000
  C   C16       1.0  0.93765  0.89925  0.29947  1.0000
  C   C17       1.0  0.59700  0.57427  0.81609  1.0000
  C   C18       1.0  0.09701  0.92573  0.68391  1.0000
  C   C19       1.0  0.40300  0.42573  0.18391  1.0000
  C   C20       1.0  0.90300  0.07427  0.31609  1.0000
  C   C21       1.0  0.12797  0.35612  0.90662  1.0000
  C   C22       1.0  0.62797  0.14388  0.59338  1.0000
  C   C23       1.0  0.87203  0.64388  0.09338  1.0000
  C   C24       1.0  0.37203  0.85612  0.40662  1.0000
  N   N1        1.0  0.38601  0.65320  0.82309  1.0000
  N   N2        1.0  0.88602  0.84680  0.67691  1.0000
  N   N3        1.0  0.61398  0.34680  0.17691  1.0000
  N   N4        1.0  0.11398  0.15320  0.32309  1.0000
  Cl  Cl1       1.0  0.65393  0.98068  0.85152  1.0000
  Cl  Cl2       1.0  0.15393  0.51932  0.64847  1.0000
  Cl  Cl3       1.0  0.34607  0.01932  0.14848  1.0000
  Cl  Cl4       1.0  0.84608  0.48068  0.35152  1.0000
  Cl  Cl5       1.0  0.20479  0.03643  0.82436  1.0000
  Cl  Cl6       1.0  0.70479  0.46357  0.67564  1.0000
  Cl  Cl7       1.0  0.79521  0.96357  0.17564  1.0000
  Cl  Cl8       1.0  0.29522  0.53643  0.32436  1.0000
  O   O1        1.0  0.70737  0.53512  0.96513  1.0000
  O   O2        1.0  0.20737  0.96488  0.53487  1.0000
  O   O3        1.0  0.29263  0.46488  0.03487  1.0000
  O   O4        1.0  0.79263  0.03512  0.46513  1.0000
  O   O5        1.0  0.20875  0.70874  0.98881  1.0000
  O   O6        1.0  0.70875  0.79126  0.51119  1.0000
  O   O7        1.0  0.79125  0.29126  0.01119  1.0000
  O   O8        1.0  0.29125  0.20874  0.48882  1.0000
  O   O9        1.0  0.42858  0.37382  0.75823  1.0000
  O   O10       1.0  0.92859  0.12618  0.74176  1.0000
  O   O11       1.0  0.57142  0.62618  0.24176  1.0000
  O   O12       1.0  0.07142  0.87381  0.25824  1.0000
  O   O13       1.0  0.54626  0.08952  0.95402  1.0000
  O   O14       1.0  0.04624  0.41049  0.54598  1.0000
  O   O15       1.0  0.45373  0.91048  0.04598  1.0000
  O   O16       1.0  0.95374  0.58952  0.45402  1.0000
  O   O17       1.0  0.13008  0.06420  0.94877  1.0000
  O   O18       1.0  0.63006  0.43580  0.55123  1.0000
  O   O19       1.0  0.86992  0.93580  0.05123  1.0000
  O   O20       1.0  0.36992  0.56420  0.44877  1.0000
  O   O21       1.0  0.33463  0.27904  0.91298  1.0000
  O   O22       1.0  0.83462  0.22096  0.58702  1.0000
  O   O23       1.0  0.66537  0.72096  0.08702  1.0000
  O   O24       1.0  0.16537  0.77904  0.41298  1.0000
  O   O25       1.0  0.45035  0.71957  0.91195  1.0000
  O   O26       1.0  0.95035  0.78043  0.58805  1.0000
  O   O27       1.0  0.54964  0.28043  0.08805  1.0000
  O   O28       1.0  0.04965  0.21957  0.41195  1.0000
  O   O29       1.0  0.06339  0.74937  0.87759  1.0000
  O   O30       1.0  0.56339  0.75064  0.62241  1.0000
  O   O31       1.0  0.93661  0.25063  0.12241  1.0000
  O   O32       1.0  0.43662  0.24936  0.37759  1.0000
