data_image0
_chemical_formula_structural       La2H18C28N4O20
_chemical_formula_sum              "La2 H18 C28 N4 O20"
_cell_length_a       7.2741
_cell_length_b       9.969
_cell_length_c       11.0953
_cell_angle_alpha    71.5282
_cell_angle_beta     75.1826
_cell_angle_gamma    78.7176

_space_group_name_H-M_alt    "P 1"
_space_group_IT_number       1

loop_
  _space_group_symop_operation_xyz
  'x, y, z'

loop_
  _atom_site_type_symbol
  _atom_site_label
  _atom_site_symmetry_multiplicity
  _atom_site_fract_x
  _atom_site_fract_y
  _atom_site_fract_z
  _atom_site_occupancy
  La  La1       1.0  0.35575  0.46939  0.27127  1.0000
  La  La2       1.0  0.64425  0.53061  0.72873  1.0000
  H   H1        1.0  0.96615  0.19142  0.78111  1.0000
  H   H2        1.0  0.03386  0.80858  0.21890  1.0000
  H   H3        1.0  0.21205  0.88176  0.56797  1.0000
  H   H4        1.0  0.78795  0.11824  0.43203  1.0000
  H   H5        1.0  0.36952  0.84608  0.39621  1.0000
  H   H6        1.0  0.63048  0.15392  0.60379  1.0000
  H   H7        1.0  0.69177  0.04633  0.01775  1.0000
  H   H8        1.0  0.30823  0.95367  0.98225  1.0000
  H   H9        1.0  0.81843  0.85778  0.97907  1.0000
  H   H10       1.0  0.18157  0.14223  0.02093  1.0000
  H   H11       1.0  0.10592  0.34843  0.13361  1.0000
  H   H12       1.0  0.89408  0.65157  0.86639  1.0000
  H   H13       1.0  0.24628  0.46036  0.02716  1.0000
  H   H14       1.0  0.75372  0.53964  0.97284  1.0000
  H   H15       1.0  0.75992  0.32725  0.30991  1.0000
  H   H16       1.0  0.24008  0.67275  0.69009  1.0000
  H   H17       1.0  0.69108  0.40375  0.42296  1.0000
  H   H18       1.0  0.30892  0.59625  0.57704  1.0000
  C   C1        1.0  0.13356  0.26501  0.58654  1.0000
  C   C2        1.0  0.86644  0.73499  0.41346  1.0000
  C   C3        1.0  0.04790  0.16231  0.69402  1.0000
  C   C4        1.0  0.95211  0.83769  0.30599  1.0000
  C   C5        1.0  0.07632  0.02201  0.68665  1.0000
  C   C6        1.0  0.92368  0.97799  0.31335  1.0000
  C   C7        1.0  0.18428  0.99140  0.57287  1.0000
  C   C8        1.0  0.81573  0.00860  0.42714  1.0000
  C   C9        1.0  0.26082  0.10136  0.46833  1.0000
  C   C10       1.0  0.73918  0.89864  0.53167  1.0000
  C   C11       1.0  0.38106  0.07534  0.34611  1.0000
  C   C12       1.0  0.61894  0.92466  0.65389  1.0000
  C   C13       1.0  0.42190  0.94061  0.32336  1.0000
  C   C14       1.0  0.57810  0.05939  0.67664  1.0000
  C   C15       1.0  0.53759  0.92564  0.20521  1.0000
  C   C16       1.0  0.46241  0.07436  0.79479  1.0000
  C   C17       1.0  0.60457  0.04749  0.11278  1.0000
  C   C18       1.0  0.39543  0.95251  0.88722  1.0000
  C   C19       1.0  0.56020  0.17667  0.14373  1.0000
  C   C20       1.0  0.43980  0.82333  0.85627  1.0000
  C   C21       1.0  0.63134  0.31122  0.04809  1.0000
  C   C22       1.0  0.36866  0.68879  0.95191  1.0000
  C   C23       1.0  0.58872  0.77996  0.18047  1.0000
  C   C24       1.0  0.41128  0.22004  0.81953  1.0000
  C   C25       1.0  0.99888  0.90144  0.79788  1.0000
  C   C26       1.0  0.00111  0.09856  0.20212  1.0000
  C   C27       1.0  0.12507  0.41620  0.59062  1.0000
  C   C28       1.0  0.87493  0.58380  0.40938  1.0000
  N   N1        1.0  0.23441  0.23631  0.47604  1.0000
  N   N2        1.0  0.76559  0.76369  0.52396  1.0000
  N   N3        1.0  0.45280  0.19062  0.25762  1.0000
  N   N4        1.0  0.54719  0.80938  0.74238  1.0000
  O   O1        1.0  0.62227  0.41488  0.09541  1.0000
  O   O2        1.0  0.37772  0.58512  0.90459  1.0000
  O   O3        1.0  0.69032  0.31301  0.93077  1.0000
  O   O4        1.0  0.30969  0.68699  0.06923  1.0000
  O   O5        1.0  0.71557  0.76370  0.08150  1.0000
  O   O6        1.0  0.28442  0.23631  0.91849  1.0000
  O   O7        1.0  0.50126  0.68030  0.26348  1.0000
  O   O8        1.0  0.49875  0.31970  0.73652  1.0000
  O   O9        1.0  0.04128  0.77685  0.78988  1.0000
  O   O10       1.0  0.95871  0.22315  0.21012  1.0000
  O   O11       1.0  0.88891  0.93977  0.89722  1.0000
  O   O12       1.0  0.11109  0.06023  0.10279  1.0000
  O   O13       1.0  0.99958  0.45958  0.67612  1.0000
  O   O14       1.0  0.00042  0.54042  0.32388  1.0000
  O   O15       1.0  0.24933  0.49053  0.50552  1.0000
  O   O16       1.0  0.75067  0.50947  0.49448  1.0000
  O   O17       1.0  0.20208  0.41206  0.12031  1.0000
  O   O18       1.0  0.79792  0.58793  0.87969  1.0000
  O   O19       1.0  0.64803  0.34950  0.37527  1.0000
  O   O20       1.0  0.35197  0.65050  0.62473  1.0000
