data_image0
_chemical_formula_structural       Cd2H36C44N8O8
_chemical_formula_sum              "Cd2 H36 C44 N8 O8"
_cell_length_a       8.09185
_cell_length_b       11.4146
_cell_length_c       12.9593
_cell_angle_alpha    116.106
_cell_angle_beta     108.227
_cell_angle_gamma    90.01

_space_group_name_H-M_alt    "P 1"
_space_group_IT_number       1

loop_
  _space_group_symop_operation_xyz
  'x, y, z'

loop_
  _atom_site_type_symbol
  _atom_site_label
  _atom_site_symmetry_multiplicity
  _atom_site_fract_x
  _atom_site_fract_y
  _atom_site_fract_z
  _atom_site_occupancy
  Cd  Cd1       1.0  0.00010  0.08294  0.99987  1.0000
  Cd  Cd2       1.0  0.49991  0.58370  0.00019  1.0000
  H   H1        1.0  0.59255  0.89717  0.15537  1.0000
  H   H2        1.0  0.40721  0.74129  0.84485  1.0000
  H   H3        1.0  0.06234  0.39653  0.15487  1.0000
  H   H4        1.0  0.93760  0.24170  0.84489  1.0000
  H   H5        1.0  0.60031  0.30211  0.19929  1.0000
  H   H6        1.0  0.39950  0.10173  0.80060  1.0000
  H   H7        1.0  0.09924  0.80295  0.19961  1.0000
  H   H8        1.0  0.90065  0.60283  0.80044  1.0000
  H   H9        1.0  0.47018  0.42784  0.19848  1.0000
  H   H10       1.0  0.52912  0.22867  0.80155  1.0000
  H   H11       1.0  0.22924  0.92857  0.19910  1.0000
  H   H12       1.0  0.77078  0.72903  0.80091  1.0000
  H   H13       1.0  0.67850  0.25697  0.38639  1.0000
  H   H14       1.0  0.32131  0.87006  0.61341  1.0000
  H   H15       1.0  0.20787  0.75679  0.38626  1.0000
  H   H16       1.0  0.79214  0.37063  0.61347  1.0000
  H   H17       1.0  0.46453  0.60195  0.38554  1.0000
  H   H18       1.0  0.53532  0.21625  0.61464  1.0000
  H   H19       1.0  0.42155  0.10247  0.38660  1.0000
  H   H20       1.0  0.57831  0.71592  0.61355  1.0000
  H   H21       1.0  0.64608  0.92552  0.98154  1.0000
  H   H22       1.0  0.35367  0.94359  0.01842  1.0000
  H   H23       1.0  0.83473  0.42522  0.98120  1.0000
  H   H24       1.0  0.16468  0.44416  0.01868  1.0000
  H   H25       1.0  0.09264  0.13551  0.29833  1.0000
  H   H26       1.0  0.90719  0.83660  0.70151  1.0000
  H   H27       1.0  0.70634  0.63545  0.29824  1.0000
  H   H28       1.0  0.29488  0.33712  0.70221  1.0000
  H   H29       1.0  0.68900  0.83542  0.30343  1.0000
  H   H30       1.0  0.31081  0.53156  0.69673  1.0000
  H   H31       1.0  0.11473  0.33515  0.30323  1.0000
  H   H32       1.0  0.88609  0.03187  0.69694  1.0000
  H   H33       1.0  0.70376  0.84293  0.50016  1.0000
  H   H34       1.0  0.29670  0.34265  0.50008  1.0000
  H   H35       1.0  0.03075  0.21191  0.50028  1.0000
  H   H36       1.0  0.96957  0.71147  0.49983  1.0000
  C   C1        1.0  0.33250  0.25000  0.17054  1.0000
  C   C2        1.0  0.66741  0.07896  0.82922  1.0000
  C   C3        1.0  0.33800  0.75041  0.17098  1.0000
  C   C4        1.0  0.66154  0.57903  0.82887  1.0000
  C   C5        1.0  0.49773  0.35402  0.23143  1.0000
  C   C6        1.0  0.50196  0.12187  0.76851  1.0000
  C   C7        1.0  0.23418  0.85467  0.23193  1.0000
  C   C8        1.0  0.76572  0.62232  0.76809  1.0000
  C   C9        1.0  0.56305  0.42130  0.36999  1.0000
  C   C10       1.0  0.43681  0.05086  0.62996  1.0000
  C   C11       1.0  0.30733  0.92153  0.37050  1.0000
  C   C12       1.0  0.69262  0.55104  0.62949  1.0000
  C   C13       1.0  0.65454  0.35721  0.43593  1.0000
  C   C14       1.0  0.34536  0.92083  0.56389  1.0000
  C   C15       1.0  0.28156  0.85705  0.43608  1.0000
  C   C16       1.0  0.71842  0.42116  0.56374  1.0000
  C   C17       1.0  0.53641  0.55085  0.43556  1.0000
  C   C18       1.0  0.46358  0.11512  0.56458  1.0000
  C   C19       1.0  0.39960  0.05118  0.43643  1.0000
  C   C20       1.0  0.60032  0.61490  0.56369  1.0000
  C   C21       1.0  0.73340  0.96886  0.07616  1.0000
  C   C22       1.0  0.26635  0.89217  0.92380  1.0000
  C   C23       1.0  0.84226  0.46848  0.07582  1.0000
  C   C24       1.0  0.15749  0.39282  0.92413  1.0000
  C   C25       1.0  0.96214  0.07834  0.24244  1.0000
  C   C26       1.0  0.03767  0.83534  0.75748  1.0000
  C   C27       1.0  0.78083  0.57836  0.24229  1.0000
  C   C28       1.0  0.22007  0.33596  0.75798  1.0000
  C   C29       1.0  0.84803  0.02062  0.27339  1.0000
  C   C30       1.0  0.15177  0.74665  0.72668  1.0000
  C   C31       1.0  0.92571  0.52038  0.27309  1.0000
  C   C32       1.0  0.07503  0.24724  0.72700  1.0000
  C   C33       1.0  0.86156  0.02211  0.38871  1.0000
  C   C34       1.0  0.13843  0.63302  0.61139  1.0000
  C   C35       1.0  0.02732  0.52164  0.38833  1.0000
  C   C36       1.0  0.97332  0.13342  0.61177  1.0000
  C   C37       1.0  0.76934  0.91849  0.38968  1.0000
  C   C38       1.0  0.23076  0.52848  0.61042  1.0000
  C   C39       1.0  0.12045  0.41806  0.38941  1.0000
  C   C40       1.0  0.88014  0.02880  0.61074  1.0000
  C   C41       1.0  0.77930  0.92213  0.50020  1.0000
  C   C42       1.0  0.22111  0.42175  0.49996  1.0000
  C   C43       1.0  0.96369  0.12903  0.50026  1.0000
  C   C44       1.0  0.03659  0.62858  0.49981  1.0000
  N   N1        1.0  0.88888  0.04532  0.11989  1.0000
  N   N2        1.0  0.11094  0.92493  0.87997  1.0000
  N   N3        1.0  0.73106  0.54532  0.11975  1.0000
  N   N4        1.0  0.26918  0.42562  0.88042  1.0000
  N   N5        1.0  0.70492  0.95197  0.16607  1.0000
  N   N6        1.0  0.29479  0.78530  0.83403  1.0000
  N   N7        1.0  0.96078  0.45142  0.16565  1.0000
  N   N8        1.0  0.03926  0.28586  0.83424  1.0000
  O   O1        1.0  0.33625  0.14345  0.17658  1.0000
  O   O2        1.0  0.66407  0.96629  0.82301  1.0000
  O   O3        1.0  0.34000  0.64388  0.17700  1.0000
  O   O4        1.0  0.65888  0.46632  0.82253  1.0000
  O   O5        1.0  0.19016  0.27736  0.10914  1.0000
  O   O6        1.0  0.80956  0.16789  0.89063  1.0000
  O   O7        1.0  0.41877  0.77757  0.10940  1.0000
  O   O8        1.0  0.58121  0.66793  0.89067  1.0000
