data_image0
_chemical_formula_structural       Zn4H16C28N12O16
_chemical_formula_sum              "Zn4 H16 C28 N12 O16"
_cell_length_a       9.57505
_cell_length_b       9.71734
_cell_length_c       13.8337
_cell_angle_alpha    101.381
_cell_angle_beta     89.9998
_cell_angle_gamma    89.9995

_space_group_name_H-M_alt    "P 1"
_space_group_IT_number       1

loop_
  _space_group_symop_operation_xyz
  'x, y, z'

loop_
  _atom_site_type_symbol
  _atom_site_label
  _atom_site_symmetry_multiplicity
  _atom_site_fract_x
  _atom_site_fract_y
  _atom_site_fract_z
  _atom_site_occupancy
  Zn  Zn1       1.0  0.06383  0.90992  0.60133  1.0000
  Zn  Zn2       1.0  0.56383  0.59008  0.39867  1.0000
  Zn  Zn3       1.0  0.93617  0.09008  0.39867  1.0000
  Zn  Zn4       1.0  0.43617  0.40992  0.60133  1.0000
  H   H1        1.0  0.88175  0.12418  0.88299  1.0000
  H   H2        1.0  0.38175  0.37582  0.11701  1.0000
  H   H3        1.0  0.11825  0.87582  0.11701  1.0000
  H   H4        1.0  0.61826  0.62418  0.88299  1.0000
  H   H5        1.0  0.76985  0.38852  0.17011  1.0000
  H   H6        1.0  0.26985  0.11148  0.82990  1.0000
  H   H7        1.0  0.23015  0.61148  0.82989  1.0000
  H   H8        1.0  0.73015  0.88852  0.17010  1.0000
  H   H9        1.0  0.19066  0.63980  0.67357  1.0000
  H   H10       1.0  0.69065  0.86020  0.32643  1.0000
  H   H11       1.0  0.80935  0.36020  0.32643  1.0000
  H   H12       1.0  0.30935  0.13980  0.67357  1.0000
  H   H13       1.0  0.30934  0.80836  0.42788  1.0000
  H   H14       1.0  0.80934  0.69164  0.57211  1.0000
  H   H15       1.0  0.69066  0.19164  0.57212  1.0000
  H   H16       1.0  0.19066  0.30836  0.42789  1.0000
  C   C1        1.0  0.93324  0.06730  0.93343  1.0000
  C   C2        1.0  0.43324  0.43271  0.06657  1.0000
  C   C3        1.0  0.06676  0.93270  0.06657  1.0000
  C   C4        1.0  0.56676  0.56729  0.93342  1.0000
  C   C5        1.0  0.06577  0.93846  0.79204  1.0000
  C   C6        1.0  0.56577  0.56154  0.20796  1.0000
  C   C7        1.0  0.93423  0.06154  0.20796  1.0000
  C   C8        1.0  0.43423  0.43846  0.79204  1.0000
  C   C9        1.0  0.90541  0.10926  0.03395  1.0000
  C   C10       1.0  0.40541  0.39074  0.96605  1.0000
  C   C11       1.0  0.09460  0.89074  0.96605  1.0000
  C   C12       1.0  0.59459  0.60926  0.03395  1.0000
  C   C13       1.0  0.02788  0.95992  0.89870  1.0000
  C   C14       1.0  0.52788  0.54009  0.10129  1.0000
  C   C15       1.0  0.97213  0.04008  0.10130  1.0000
  C   C16       1.0  0.47213  0.45991  0.89870  1.0000
  C   C17       1.0  0.24409  0.65795  0.60810  1.0000
  C   C18       1.0  0.74409  0.84205  0.39190  1.0000
  C   C19       1.0  0.75591  0.34205  0.39190  1.0000
  C   C20       1.0  0.25591  0.15795  0.60810  1.0000
  C   C21       1.0  0.30486  0.74495  0.48420  1.0000
  C   C22       1.0  0.80486  0.75505  0.51580  1.0000
  C   C23       1.0  0.69513  0.25505  0.51580  1.0000
  C   C24       1.0  0.19513  0.24495  0.48420  1.0000
  C   C25       1.0  0.81090  0.23270  0.06264  1.0000
  C   C26       1.0  0.31090  0.26730  0.93736  1.0000
  C   C27       1.0  0.18910  0.76729  0.93736  1.0000
  C   C28       1.0  0.68910  0.73270  0.06264  1.0000
  N   N1        1.0  0.20913  0.75865  0.55746  1.0000
  N   N2        1.0  0.70913  0.74135  0.44254  1.0000
  N   N3        1.0  0.79087  0.24136  0.44254  1.0000
  N   N4        1.0  0.29087  0.25864  0.55746  1.0000
  N   N5        1.0  0.35525  0.58578  0.56833  1.0000
  N   N6        1.0  0.85525  0.91421  0.43167  1.0000
  N   N7        1.0  0.64475  0.41422  0.43167  1.0000
  N   N8        1.0  0.14475  0.08578  0.56833  1.0000
  N   N9        1.0  0.39439  0.64171  0.48869  1.0000
  N   N10       1.0  0.89439  0.85828  0.51131  1.0000
  N   N11       1.0  0.60561  0.35829  0.51131  1.0000
  N   N12       1.0  0.10561  0.14172  0.48869  1.0000
  O   O1        1.0  0.97203  0.89216  0.72661  1.0000
  O   O2        1.0  0.47203  0.60785  0.27339  1.0000
  O   O3        1.0  0.02797  0.10784  0.27339  1.0000
  O   O4        1.0  0.52797  0.39216  0.72661  1.0000
  O   O5        1.0  0.18505  0.97585  0.76696  1.0000
  O   O6        1.0  0.68505  0.52414  0.23305  1.0000
  O   O7        1.0  0.81496  0.02414  0.23305  1.0000
  O   O8        1.0  0.31495  0.47586  0.76696  1.0000
  O   O9        1.0  0.83137  0.30210  0.15608  1.0000
  O   O10       1.0  0.33137  0.19790  0.84393  1.0000
  O   O11       1.0  0.16863  0.69790  0.84392  1.0000
  O   O12       1.0  0.66863  0.80210  0.15607  1.0000
  O   O13       1.0  0.72742  0.26986  0.00582  1.0000
  O   O14       1.0  0.22741  0.23015  0.99418  1.0000
  O   O15       1.0  0.27258  0.73014  0.99418  1.0000
  O   O16       1.0  0.77259  0.76985  0.00582  1.0000
