data_image0
_chemical_formula_structural       Ag2H40C36N10O10
_chemical_formula_sum              "Ag2 H40 C36 N10 O10"
_cell_length_a       5.19078
_cell_length_b       12.3286
_cell_length_c       14.6586
_cell_angle_alpha    90.0012
_cell_angle_beta     90.0001
_cell_angle_gamma    90.0009

_space_group_name_H-M_alt    "P 1"
_space_group_IT_number       1

loop_
  _space_group_symop_operation_xyz
  'x, y, z'

loop_
  _atom_site_type_symbol
  _atom_site_label
  _atom_site_symmetry_multiplicity
  _atom_site_fract_x
  _atom_site_fract_y
  _atom_site_fract_z
  _atom_site_occupancy
  Ag  Ag1       1.0  0.99999  0.00001  0.51951  1.0000
  Ag  Ag2       1.0  0.49999  0.49999  0.48049  1.0000
  H   H1        1.0  0.70568  0.49441  0.06647  1.0000
  H   H2        1.0  0.29432  0.50558  0.06647  1.0000
  H   H3        1.0  0.79433  0.99442  0.93353  1.0000
  H   H4        1.0  0.20569  0.00558  0.93353  1.0000
  H   H5        1.0  0.10603  0.37898  0.16932  1.0000
  H   H6        1.0  0.89397  0.62102  0.16931  1.0000
  H   H7        1.0  0.39397  0.87898  0.83069  1.0000
  H   H8        1.0  0.60605  0.12102  0.83068  1.0000
  H   H9        1.0  0.92168  0.40376  0.82864  1.0000
  H   H10       1.0  0.07832  0.59623  0.82864  1.0000
  H   H11       1.0  0.57832  0.90377  0.17136  1.0000
  H   H12       1.0  0.42166  0.09624  0.17137  1.0000
  H   H13       1.0  0.70530  0.49325  0.88380  1.0000
  H   H14       1.0  0.29469  0.50674  0.88380  1.0000
  H   H15       1.0  0.79469  0.99327  0.11620  1.0000
  H   H16       1.0  0.20530  0.00674  0.11620  1.0000
  H   H17       1.0  0.09545  0.34113  0.97625  1.0000
  H   H18       1.0  0.90454  0.65886  0.97625  1.0000
  H   H19       1.0  0.40456  0.84113  0.02375  1.0000
  H   H20       1.0  0.59544  0.15887  0.02376  1.0000
  H   H21       1.0  0.75696  0.32595  0.97684  1.0000
  H   H22       1.0  0.24304  0.67404  0.97684  1.0000
  H   H23       1.0  0.74305  0.82596  0.02316  1.0000
  H   H24       1.0  0.25694  0.17404  0.02316  1.0000
  H   H25       1.0  0.58845  0.19589  0.47686  1.0000
  H   H26       1.0  0.41153  0.80412  0.47686  1.0000
  H   H27       1.0  0.91156  0.69588  0.52314  1.0000
  H   H28       1.0  0.08845  0.30412  0.52314  1.0000
  H   H29       1.0  0.46311  0.31919  0.34724  1.0000
  H   H30       1.0  0.53687  0.68082  0.34724  1.0000
  H   H31       1.0  0.03689  0.81918  0.65277  1.0000
  H   H32       1.0  0.96311  0.18082  0.65276  1.0000
  H   H33       1.0  0.23342  0.08727  0.33867  1.0000
  H   H34       1.0  0.76657  0.91273  0.33866  1.0000
  H   H35       1.0  0.26657  0.58727  0.66133  1.0000
  H   H36       1.0  0.73345  0.41272  0.66132  1.0000
  H   H37       1.0  0.14282  0.20839  0.20602  1.0000
  H   H38       1.0  0.85719  0.79162  0.20601  1.0000
  H   H39       1.0  0.35718  0.70839  0.79398  1.0000
  H   H40       1.0  0.64283  0.29162  0.79398  1.0000
  C   C1        1.0  0.72234  0.34230  0.18583  1.0000
  C   C2        1.0  0.27766  0.65770  0.18583  1.0000
  C   C3        1.0  0.77766  0.84230  0.81418  1.0000
  C   C4        1.0  0.22235  0.15770  0.81417  1.0000
  C   C5        1.0  0.89657  0.45555  0.06220  1.0000
  C   C6        1.0  0.10343  0.54444  0.06220  1.0000
  C   C7        1.0  0.60344  0.95556  0.93780  1.0000
  C   C8        1.0  0.39657  0.04444  0.93780  1.0000
  C   C9        1.0  0.79263  0.27250  0.26598  1.0000
  C   C10       1.0  0.20736  0.72751  0.26597  1.0000
  C   C11       1.0  0.70738  0.77250  0.73403  1.0000
  C   C12       1.0  0.29265  0.22750  0.73402  1.0000
  C   C13       1.0  0.89761  0.45561  0.88900  1.0000
  C   C14       1.0  0.10238  0.54439  0.88901  1.0000
  C   C15       1.0  0.60239  0.95562  0.11099  1.0000
  C   C16       1.0  0.39760  0.04439  0.11099  1.0000
  C   C17       1.0  0.91247  0.38647  0.97526  1.0000
  C   C18       1.0  0.08752  0.61352  0.97526  1.0000
  C   C19       1.0  0.58754  0.88648  0.02474  1.0000
  C   C20       1.0  0.41246  0.11353  0.02474  1.0000
  C   C21       1.0  0.70505  0.20084  0.41520  1.0000
  C   C22       1.0  0.29494  0.79917  0.41519  1.0000
  C   C23       1.0  0.79495  0.70083  0.58481  1.0000
  C   C24       1.0  0.20505  0.29916  0.58481  1.0000
  C   C25       1.0  0.63495  0.26857  0.34328  1.0000
  C   C26       1.0  0.36505  0.73144  0.34328  1.0000
  C   C27       1.0  0.86506  0.76856  0.65672  1.0000
  C   C28       1.0  0.13495  0.23143  0.65672  1.0000
  C   C29       1.0  0.06504  0.14023  0.33833  1.0000
  C   C30       1.0  0.93494  0.85978  0.33833  1.0000
  C   C31       1.0  0.43495  0.64023  0.66167  1.0000
  C   C32       1.0  0.56508  0.35977  0.66167  1.0000
  C   C33       1.0  0.01237  0.20692  0.26412  1.0000
  C   C34       1.0  0.98764  0.79309  0.26411  1.0000
  C   C35       1.0  0.48763  0.70691  0.73588  1.0000
  C   C36       1.0  0.51239  0.29308  0.73588  1.0000
  N   N1        1.0  0.50000  0.99999  0.61907  1.0000
  N   N2        1.0  0.99999  0.50000  0.38093  1.0000
  N   N3        1.0  0.92440  0.38824  0.14315  1.0000
  N   N4        1.0  0.07561  0.61175  0.14314  1.0000
  N   N5        1.0  0.57562  0.88824  0.85686  1.0000
  N   N6        1.0  0.42441  0.11176  0.85686  1.0000
  N   N7        1.0  0.91607  0.13710  0.41331  1.0000
  N   N8        1.0  0.08390  0.86291  0.41331  1.0000
  N   N9        1.0  0.58391  0.63709  0.58669  1.0000
  N   N10       1.0  0.41610  0.36291  0.58669  1.0000
  O   O1        1.0  0.70812  0.01782  0.66137  1.0000
  O   O2        1.0  0.29191  0.98215  0.66138  1.0000
  O   O3        1.0  0.79189  0.51783  0.33862  1.0000
  O   O4        1.0  0.20811  0.48218  0.33863  1.0000
  O   O5        1.0  0.49349  0.35190  0.16072  1.0000
  O   O6        1.0  0.50653  0.64809  0.16072  1.0000
  O   O7        1.0  0.00653  0.85191  0.83929  1.0000
  O   O8        1.0  0.99350  0.14809  0.83927  1.0000
  O   O9        1.0  0.49997  0.00001  0.53161  1.0000
  O   O10       1.0  0.99998  0.50000  0.46839  1.0000
