data_image0
_chemical_formula_structural       Na4P4H68C32N4O24
_chemical_formula_sum              "Na4 P4 H68 C32 N4 O24"
_cell_length_a       5.12255
_cell_length_b       13.9143
_cell_length_c       17.332
_cell_angle_alpha    100.441
_cell_angle_beta     90
_cell_angle_gamma    90

_space_group_name_H-M_alt    "P 1"
_space_group_IT_number       1

loop_
  _space_group_symop_operation_xyz
  'x, y, z'

loop_
  _atom_site_type_symbol
  _atom_site_label
  _atom_site_symmetry_multiplicity
  _atom_site_fract_x
  _atom_site_fract_y
  _atom_site_fract_z
  _atom_site_occupancy
  Na  Na1       1.0  0.95512  0.63242  0.00219  1.0000
  Na  Na2       1.0  0.45512  0.86758  0.99781  1.0000
  Na  Na3       1.0  0.04487  0.36758  0.99781  1.0000
  Na  Na4       1.0  0.54487  0.13242  0.00219  1.0000
  P   P1        1.0  0.66947  0.66958  0.19896  1.0000
  P   P2        1.0  0.16945  0.83042  0.80104  1.0000
  P   P3        1.0  0.33053  0.33043  0.80104  1.0000
  P   P4        1.0  0.83053  0.16957  0.19896  1.0000
  H   H1        1.0  0.08577  0.66930  0.25288  1.0000
  H   H2        1.0  0.58575  0.83070  0.74712  1.0000
  H   H3        1.0  0.91424  0.33070  0.74712  1.0000
  H   H4        1.0  0.41423  0.16930  0.25288  1.0000
  H   H5        1.0  0.24016  0.53911  0.86971  1.0000
  H   H6        1.0  0.74016  0.96089  0.13029  1.0000
  H   H7        1.0  0.75983  0.46089  0.13029  1.0000
  H   H8        1.0  0.25983  0.03910  0.86971  1.0000
  H   H9        1.0  0.16761  0.64939  0.85622  1.0000
  H   H10       1.0  0.66762  0.85061  0.14378  1.0000
  H   H11       1.0  0.83238  0.35061  0.14378  1.0000
  H   H12       1.0  0.33238  0.14939  0.85622  1.0000
  H   H13       1.0  0.23182  0.70961  0.38418  1.0000
  H   H14       1.0  0.73179  0.79038  0.61582  1.0000
  H   H15       1.0  0.76820  0.29039  0.61582  1.0000
  H   H16       1.0  0.26819  0.20962  0.38418  1.0000
  H   H17       1.0  0.20170  0.81949  0.51210  1.0000
  H   H18       1.0  0.70166  0.68051  0.48790  1.0000
  H   H19       1.0  0.79833  0.18051  0.48790  1.0000
  H   H20       1.0  0.29833  0.31950  0.51211  1.0000
  H   H21       1.0  0.83773  0.94132  0.53908  1.0000
  H   H22       1.0  0.33769  0.55868  0.46092  1.0000
  H   H23       1.0  0.16230  0.05868  0.46091  1.0000
  H   H24       1.0  0.66231  0.44132  0.53908  1.0000
  H   H25       1.0  0.49992  0.94604  0.43625  1.0000
  H   H26       1.0  0.99988  0.55396  0.56375  1.0000
  H   H27       1.0  0.50011  0.05396  0.56374  1.0000
  H   H28       1.0  0.00011  0.44604  0.43625  1.0000
  H   H29       1.0  0.53139  0.83558  0.30768  1.0000
  H   H30       1.0  0.03137  0.66442  0.69232  1.0000
  H   H31       1.0  0.46862  0.16441  0.69232  1.0000
  H   H32       1.0  0.96862  0.33558  0.30767  1.0000
  H   H33       1.0  0.56987  0.58027  0.35014  1.0000
  H   H34       1.0  0.06986  0.91973  0.64986  1.0000
  H   H35       1.0  0.43013  0.41974  0.64986  1.0000
  H   H36       1.0  0.93014  0.08027  0.35014  1.0000
  H   H37       1.0  0.69975  0.50785  0.26371  1.0000
  H   H38       1.0  0.19975  0.99214  0.73629  1.0000
  H   H39       1.0  0.30025  0.49215  0.73630  1.0000
  H   H40       1.0  0.80025  0.00785  0.26371  1.0000
  H   H41       1.0  0.34769  0.41871  0.32341  1.0000
  H   H42       1.0  0.84770  0.08129  0.67659  1.0000
  H   H43       1.0  0.65230  0.58130  0.67660  1.0000
  H   H44       1.0  0.15230  0.91871  0.32340  1.0000
  H   H45       1.0  0.26471  0.43469  0.22703  1.0000
  H   H46       1.0  0.76471  0.06532  0.77297  1.0000
  H   H47       1.0  0.73530  0.56532  0.77297  1.0000
  H   H48       1.0  0.23529  0.93469  0.22703  1.0000
  H   H49       1.0  0.11987  0.51090  0.31007  1.0000
  H   H50       1.0  0.61986  0.98910  0.68993  1.0000
  H   H51       1.0  0.88013  0.48910  0.68993  1.0000
  H   H52       1.0  0.38013  0.01090  0.31007  1.0000
  H   H53       1.0  0.86792  0.45151  0.89355  1.0000
  H   H54       1.0  0.36792  0.04848  0.10644  1.0000
  H   H55       1.0  0.13207  0.54848  0.10645  1.0000
  H   H56       1.0  0.63207  0.95152  0.89355  1.0000
  H   H57       1.0  0.57517  0.46011  0.92117  1.0000
  H   H58       1.0  0.07518  0.03988  0.07883  1.0000
  H   H59       1.0  0.42483  0.53988  0.07883  1.0000
  H   H60       1.0  0.92482  0.96011  0.92117  1.0000
  H   H61       1.0  0.52867  0.67569  0.91469  1.0000
  H   H62       1.0  0.02868  0.82431  0.08532  1.0000
  H   H63       1.0  0.47132  0.32431  0.08532  1.0000
  H   H64       1.0  0.97132  0.17569  0.91468  1.0000
  H   H65       1.0  0.77811  0.73370  0.89095  1.0000
  H   H66       1.0  0.27812  0.76630  0.10905  1.0000
  H   H67       1.0  0.22188  0.26629  0.10905  1.0000
  H   H68       1.0  0.72188  0.23370  0.89095  1.0000
  C   C1        1.0  0.88337  0.76496  0.33686  1.0000
  C   C2        1.0  0.38335  0.73503  0.66314  1.0000
  C   C3        1.0  0.11664  0.23503  0.66313  1.0000
  C   C4        1.0  0.61663  0.26496  0.33686  1.0000
  C   C5        1.0  0.07049  0.76115  0.39560  1.0000
  C   C6        1.0  0.57046  0.73884  0.60439  1.0000
  C   C7        1.0  0.92954  0.23884  0.60440  1.0000
  C   C8        1.0  0.42954  0.26116  0.39561  1.0000
  C   C9        1.0  0.05348  0.82411  0.46776  1.0000
  C   C10       1.0  0.55346  0.67589  0.53223  1.0000
  C   C11       1.0  0.94652  0.17589  0.53223  1.0000
  C   C12       1.0  0.44653  0.32411  0.46776  1.0000
  C   C13       1.0  0.84948  0.89145  0.48301  1.0000
  C   C14       1.0  0.34945  0.60855  0.51699  1.0000
  C   C15       1.0  0.15055  0.10855  0.51699  1.0000
  C   C16       1.0  0.65056  0.39146  0.48301  1.0000
  C   C17       1.0  0.66170  0.89453  0.42521  1.0000
  C   C18       1.0  0.16168  0.60546  0.57479  1.0000
  C   C19       1.0  0.33831  0.10547  0.57479  1.0000
  C   C20       1.0  0.83832  0.39453  0.42520  1.0000
  C   C21       1.0  0.67663  0.83205  0.35284  1.0000
  C   C22       1.0  0.17661  0.66795  0.64716  1.0000
  C   C23       1.0  0.32340  0.16795  0.64716  1.0000
  C   C24       1.0  0.82340  0.33205  0.35284  1.0000
  C   C25       1.0  0.52227  0.54459  0.28978  1.0000
  C   C26       1.0  0.02226  0.95541  0.71022  1.0000
  C   C27       1.0  0.47773  0.45542  0.71022  1.0000
  C   C28       1.0  0.97773  0.04459  0.28978  1.0000
  C   C29       1.0  0.29975  0.47326  0.28721  1.0000
  C   C30       1.0  0.79975  0.02674  0.71279  1.0000
  C   C31       1.0  0.70025  0.52674  0.71280  1.0000
  C   C32       1.0  0.20026  0.97326  0.28721  1.0000
  N   N1        1.0  0.90846  0.70309  0.26365  1.0000
  N   N2        1.0  0.40844  0.79691  0.73635  1.0000
  N   N3        1.0  0.09156  0.29690  0.73635  1.0000
  N   N4        1.0  0.59155  0.20309  0.26365  1.0000
  O   O1        1.0  0.78287  0.59149  0.13482  1.0000
  O   O2        1.0  0.28286  0.90851  0.86518  1.0000
  O   O3        1.0  0.21713  0.40851  0.86518  1.0000
  O   O4        1.0  0.71712  0.09149  0.13482  1.0000
  O   O5        1.0  0.52994  0.75520  0.17561  1.0000
  O   O6        1.0  0.02993  0.74480  0.82439  1.0000
  O   O7        1.0  0.47007  0.24480  0.82439  1.0000
  O   O8        1.0  0.97006  0.25520  0.17561  1.0000
  O   O9        1.0  0.44670  0.62072  0.24656  1.0000
  O   O10       1.0  0.94669  0.87928  0.75344  1.0000
  O   O11       1.0  0.55330  0.37928  0.75344  1.0000
  O   O12       1.0  0.05330  0.12072  0.24656  1.0000
  O   O13       1.0  0.24969  0.60949  0.89194  1.0000
  O   O14       1.0  0.74970  0.89051  0.10806  1.0000
  O   O15       1.0  0.75030  0.39051  0.10806  1.0000
  O   O16       1.0  0.25030  0.10949  0.89194  1.0000
  O   O17       1.0  0.75419  0.47715  0.93831  1.0000
  O   O18       1.0  0.25419  0.02285  0.06169  1.0000
  O   O19       1.0  0.24581  0.52285  0.06169  1.0000
  O   O20       1.0  0.74581  0.97715  0.93831  1.0000
  O   O21       1.0  0.66679  0.72385  0.93559  1.0000
  O   O22       1.0  0.16680  0.77616  0.06441  1.0000
  O   O23       1.0  0.33320  0.27615  0.06441  1.0000
  O   O24       1.0  0.83320  0.22384  0.93559  1.0000
