data_image0
_chemical_formula_structural       U4H40C56N8O24
_chemical_formula_sum              "U4 H40 C56 N8 O24"
_cell_length_a       9.06505
_cell_length_b       11.8859
_cell_length_c       13.858
_cell_angle_alpha    108.923
_cell_angle_beta     90
_cell_angle_gamma    90

_space_group_name_H-M_alt    "P 1"
_space_group_IT_number       1

loop_
  _space_group_symop_operation_xyz
  'x, y, z'

loop_
  _atom_site_type_symbol
  _atom_site_label
  _atom_site_symmetry_multiplicity
  _atom_site_fract_x
  _atom_site_fract_y
  _atom_site_fract_z
  _atom_site_occupancy
  U   U1        1.0  0.41284  0.06326  0.72819  1.0000
  U   U2        1.0  0.91284  0.43674  0.77181  1.0000
  U   U3        1.0  0.58716  0.93674  0.27181  1.0000
  U   U4        1.0  0.08716  0.56326  0.22820  1.0000
  H   H1        1.0  0.17518  0.61541  0.58297  1.0000
  H   H2        1.0  0.67518  0.88459  0.91703  1.0000
  H   H3        1.0  0.82481  0.38459  0.41703  1.0000
  H   H4        1.0  0.32482  0.11541  0.08297  1.0000
  H   H5        1.0  0.35131  0.53476  0.43458  1.0000
  H   H6        1.0  0.85131  0.96524  0.06542  1.0000
  H   H7        1.0  0.64868  0.46524  0.56542  1.0000
  H   H8        1.0  0.14869  0.03476  0.93458  1.0000
  H   H9        1.0  0.03910  0.85727  0.56467  1.0000
  H   H10       1.0  0.53910  0.64273  0.93534  1.0000
  H   H11       1.0  0.96089  0.14273  0.43534  1.0000
  H   H12       1.0  0.46090  0.35727  0.06466  1.0000
  H   H13       1.0  0.99045  0.07639  0.61297  1.0000
  H   H14       1.0  0.49045  0.42361  0.88704  1.0000
  H   H15       1.0  0.00955  0.92361  0.38704  1.0000
  H   H16       1.0  0.50956  0.57639  0.11297  1.0000
  H   H17       1.0  0.68611  0.69613  0.39354  1.0000
  H   H18       1.0  0.18611  0.80387  0.10647  1.0000
  H   H19       1.0  0.31388  0.30387  0.60647  1.0000
  H   H20       1.0  0.81389  0.19613  0.89353  1.0000
  H   H21       1.0  0.53216  0.61184  0.32924  1.0000
  H   H22       1.0  0.03216  0.88816  0.17076  1.0000
  H   H23       1.0  0.46784  0.38816  0.67076  1.0000
  H   H24       1.0  0.96784  0.11184  0.82924  1.0000
  H   H25       1.0  0.65592  0.54886  0.39539  1.0000
  H   H26       1.0  0.15591  0.95114  0.10461  1.0000
  H   H27       1.0  0.34409  0.45114  0.60461  1.0000
  H   H28       1.0  0.84409  0.04886  0.89539  1.0000
  H   H29       1.0  0.89156  0.63659  0.48333  1.0000
  H   H30       1.0  0.39156  0.86341  0.01666  1.0000
  H   H31       1.0  0.10844  0.36341  0.51666  1.0000
  H   H32       1.0  0.60845  0.13659  0.98333  1.0000
  H   H33       1.0  0.74681  0.63649  0.57067  1.0000
  H   H34       1.0  0.24681  0.86350  0.92932  1.0000
  H   H35       1.0  0.25319  0.36350  0.42932  1.0000
  H   H36       1.0  0.75319  0.13650  0.07067  1.0000
  H   H37       1.0  0.92700  0.68300  0.61653  1.0000
  H   H38       1.0  0.42700  0.81699  0.88347  1.0000
  H   H39       1.0  0.07299  0.31699  0.38347  1.0000
  H   H40       1.0  0.57300  0.18301  0.11653  1.0000
  C   C1        1.0  0.29929  0.77781  0.64179  1.0000
  C   C2        1.0  0.79930  0.72219  0.85821  1.0000
  C   C3        1.0  0.70070  0.22219  0.35821  1.0000
  C   C4        1.0  0.20071  0.27781  0.14179  1.0000
  C   C5        1.0  0.27403  0.66350  0.57449  1.0000
  C   C6        1.0  0.77403  0.83650  0.92551  1.0000
  C   C7        1.0  0.72597  0.33650  0.42551  1.0000
  C   C8        1.0  0.22597  0.16350  0.07449  1.0000
  C   C9        1.0  0.37389  0.61787  0.49539  1.0000
  C   C10       1.0  0.87390  0.88213  0.00461  1.0000
  C   C11       1.0  0.62610  0.38213  0.50461  1.0000
  C   C12       1.0  0.12611  0.11787  0.99539  1.0000
  C   C13       1.0  0.50424  0.67925  0.48961  1.0000
  C   C14       1.0  0.00424  0.82075  0.01039  1.0000
  C   C15       1.0  0.49576  0.32075  0.51039  1.0000
  C   C16       1.0  0.99577  0.17925  0.98961  1.0000
  C   C17       1.0  0.52912  0.78752  0.56864  1.0000
  C   C18       1.0  0.02912  0.71247  0.93136  1.0000
  C   C19       1.0  0.47088  0.21247  0.43136  1.0000
  C   C20       1.0  0.97089  0.28753  0.06863  1.0000
  C   C21       1.0  0.66610  0.85880  0.58350  1.0000
  C   C22       1.0  0.16610  0.64120  0.91650  1.0000
  C   C23       1.0  0.33390  0.14120  0.41650  1.0000
  C   C24       1.0  0.83391  0.35880  0.08350  1.0000
  C   C25       1.0  0.81049  0.81102  0.57040  1.0000
  C   C26       1.0  0.31049  0.68898  0.92960  1.0000
  C   C27       1.0  0.18950  0.18897  0.42960  1.0000
  C   C28       1.0  0.68951  0.31103  0.07040  1.0000
  C   C29       1.0  0.92681  0.89136  0.57840  1.0000
  C   C30       1.0  0.42681  0.60864  0.92160  1.0000
  C   C31       1.0  0.07319  0.10864  0.42160  1.0000
  C   C32       1.0  0.57320  0.39136  0.07840  1.0000
  C   C33       1.0  0.90122  0.01275  0.60532  1.0000
  C   C34       1.0  0.40122  0.48725  0.89468  1.0000
  C   C35       1.0  0.09877  0.98725  0.39468  1.0000
  C   C36       1.0  0.59878  0.51275  0.10532  1.0000
  C   C37       1.0  0.75690  0.05254  0.62900  1.0000
  C   C38       1.0  0.25690  0.44746  0.87100  1.0000
  C   C39       1.0  0.24310  0.94746  0.37101  1.0000
  C   C40       1.0  0.74310  0.55254  0.12900  1.0000
  C   C41       1.0  0.19149  0.84352  0.72309  1.0000
  C   C42       1.0  0.69149  0.65648  0.77691  1.0000
  C   C43       1.0  0.80851  0.15648  0.27691  1.0000
  C   C44       1.0  0.30851  0.34352  0.22309  1.0000
  C   C45       1.0  0.60152  0.63221  0.39772  1.0000
  C   C46       1.0  0.10151  0.86779  0.10228  1.0000
  C   C47       1.0  0.39848  0.36779  0.60228  1.0000
  C   C48       1.0  0.89849  0.13221  0.89771  1.0000
  C   C49       1.0  0.84448  0.68417  0.55862  1.0000
  C   C50       1.0  0.34448  0.81583  0.94138  1.0000
  C   C51       1.0  0.15551  0.31583  0.44138  1.0000
  C   C52       1.0  0.65552  0.18417  0.05861  1.0000
  C   C53       1.0  0.71667  0.18081  0.67074  1.0000
  C   C54       1.0  0.21668  0.31918  0.82927  1.0000
  C   C55       1.0  0.28332  0.81918  0.32927  1.0000
  C   C56       1.0  0.78333  0.68082  0.17074  1.0000
  N   N1        1.0  0.42193  0.83877  0.63659  1.0000
  N   N2        1.0  0.92194  0.66123  0.86341  1.0000
  N   N3        1.0  0.57806  0.16123  0.36341  1.0000
  N   N4        1.0  0.07807  0.33877  0.13659  1.0000
  N   N5        1.0  0.64291  0.97735  0.61928  1.0000
  N   N6        1.0  0.14291  0.52265  0.88072  1.0000
  N   N7        1.0  0.35709  0.02265  0.38072  1.0000
  N   N8        1.0  0.85710  0.47735  0.11928  1.0000
  O   O1        1.0  0.22417  0.95680  0.76382  1.0000
  O   O2        1.0  0.72418  0.54320  0.73617  1.0000
  O   O3        1.0  0.77582  0.04320  0.23617  1.0000
  O   O4        1.0  0.27583  0.45680  0.26383  1.0000
  O   O5        1.0  0.08479  0.79375  0.74692  1.0000
  O   O6        1.0  0.58479  0.70626  0.75307  1.0000
  O   O7        1.0  0.91521  0.20626  0.25307  1.0000
  O   O8        1.0  0.41521  0.29375  0.24692  1.0000
  O   O9        1.0  0.81073  0.25816  0.66530  1.0000
  O   O10       1.0  0.31073  0.24184  0.83470  1.0000
  O   O11       1.0  0.18927  0.74184  0.33470  1.0000
  O   O12       1.0  0.68928  0.75816  0.16530  1.0000
  O   O13       1.0  0.58853  0.20544  0.70924  1.0000
  O   O14       1.0  0.08853  0.29456  0.79076  1.0000
  O   O15       1.0  0.41147  0.79456  0.29076  1.0000
  O   O16       1.0  0.91147  0.70544  0.20925  1.0000
  O   O17       1.0  0.51854  0.04581  0.83351  1.0000
  O   O18       1.0  0.01855  0.45419  0.66649  1.0000
  O   O19       1.0  0.48145  0.95419  0.16649  1.0000
  O   O20       1.0  0.98146  0.54581  0.33352  1.0000
  O   O21       1.0  0.31230  0.07681  0.61951  1.0000
  O   O22       1.0  0.81229  0.42319  0.88049  1.0000
  O   O23       1.0  0.68771  0.92319  0.38049  1.0000
  O   O24       1.0  0.18770  0.57681  0.11952  1.0000
