data_image0
_chemical_formula_structural       Mn2H32C24S4N4O16
_chemical_formula_sum              "Mn2 H32 C24 S4 N4 O16"
_cell_length_a       7.7806
_cell_length_b       6.91948
_cell_length_c       17.8084
_cell_angle_alpha    92.9725
_cell_angle_beta     90.197
_cell_angle_gamma    120.1

_space_group_name_H-M_alt    "P 1"
_space_group_IT_number       1

loop_
  _space_group_symop_operation_xyz
  'x, y, z'

loop_
  _atom_site_type_symbol
  _atom_site_label
  _atom_site_symmetry_multiplicity
  _atom_site_fract_x
  _atom_site_fract_y
  _atom_site_fract_z
  _atom_site_occupancy
  Mn  Mn1       1.0  0.50001  0.50000  0.00000  1.0000
  Mn  Mn2       1.0  1.00000  1.00000  0.50000  1.0000
  H   H1        1.0  0.21741  0.58414  0.05834  1.0000
  H   H2        1.0  0.28960  0.92504  0.56004  1.0000
  H   H3        1.0  0.78260  0.41586  0.94166  1.0000
  H   H4        1.0  0.71040  0.07496  0.43997  1.0000
  H   H5        1.0  0.08113  0.33858  0.01378  1.0000
  H   H6        1.0  0.38322  0.19032  0.54969  1.0000
  H   H7        1.0  0.91887  0.66143  0.98621  1.0000
  H   H8        1.0  0.61678  0.80968  0.45031  1.0000
  H   H9        1.0  0.07550  0.33506  0.40978  1.0000
  H   H10       1.0  0.40097  0.14694  0.90691  1.0000
  H   H11       1.0  0.92449  0.66493  0.59022  1.0000
  H   H12       1.0  0.59904  0.85307  0.09310  1.0000
  H   H13       1.0  0.28750  0.34617  0.43737  1.0000
  H   H14       1.0  0.18956  0.13906  0.93297  1.0000
  H   H15       1.0  0.71249  0.65383  0.56263  1.0000
  H   H16       1.0  0.81045  0.86095  0.06703  1.0000
  H   H17       1.0  0.03312  0.18076  0.15310  1.0000
  H   H18       1.0  0.50406  0.36873  0.66424  1.0000
  H   H19       1.0  0.96688  0.81924  0.84690  1.0000
  H   H20       1.0  0.49593  0.63126  0.33576  1.0000
  H   H21       1.0  0.96205  0.25402  0.28459  1.0000
  H   H22       1.0  0.55011  0.27413  0.79250  1.0000
  H   H23       1.0  0.03795  0.74597  0.71541  1.0000
  H   H24       1.0  0.44989  0.72587  0.20750  1.0000
  H   H25       1.0  0.39025  0.09309  0.36905  1.0000
  H   H26       1.0  0.07073  0.36548  0.86852  1.0000
  H   H27       1.0  0.60975  0.90691  0.63095  1.0000
  H   H28       1.0  0.92928  0.63452  0.13148  1.0000
  H   H29       1.0  0.45987  0.01657  0.23873  1.0000
  H   H30       1.0  0.01930  0.45334  0.74068  1.0000
  H   H31       1.0  0.54013  0.98344  0.76127  1.0000
  H   H32       1.0  0.98069  0.54666  0.25932  1.0000
  C   C1        1.0  0.25135  0.09468  0.18753  1.0000
  C   C2        1.0  0.25569  0.41143  0.69375  1.0000
  C   C3        1.0  0.74866  0.90532  0.81247  1.0000
  C   C4        1.0  0.74430  0.58856  0.30625  1.0000
  C   C5        1.0  0.11136  0.16182  0.20039  1.0000
  C   C6        1.0  0.40531  0.36180  0.70844  1.0000
  C   C7        1.0  0.88864  0.83818  0.79961  1.0000
  C   C8        1.0  0.59468  0.63819  0.29156  1.0000
  C   C9        1.0  0.07335  0.20544  0.27378  1.0000
  C   C10       1.0  0.43171  0.30914  0.78017  1.0000
  C   C11       1.0  0.92665  0.79456  0.72621  1.0000
  C   C12       1.0  0.56828  0.69085  0.21984  1.0000
  C   C13       1.0  0.17789  0.18777  0.33484  1.0000
  C   C14       1.0  0.30617  0.30135  0.83746  1.0000
  C   C15       1.0  0.82211  0.81223  0.66516  1.0000
  C   C16       1.0  0.69383  0.69865  0.16254  1.0000
  C   C17       1.0  0.31259  0.11223  0.32161  1.0000
  C   C18       1.0  0.16377  0.36377  0.82339  1.0000
  C   C19       1.0  0.68741  0.88777  0.67839  1.0000
  C   C20       1.0  0.83623  0.63623  0.17661  1.0000
  C   C21       1.0  0.35076  0.06885  0.24839  1.0000
  C   C22       1.0  0.13604  0.41446  0.75163  1.0000
  C   C23       1.0  0.64924  0.93116  0.75161  1.0000
  C   C24       1.0  0.86395  0.58553  0.24837  1.0000
  S   S1        1.0  0.29628  0.02650  0.09489  1.0000
  S   S2        1.0  0.22065  0.47512  0.60216  1.0000
  S   S3        1.0  0.70372  0.97351  0.90511  1.0000
  S   S4        1.0  0.77934  0.52488  0.39784  1.0000
  N   N1        1.0  0.15218  0.25010  0.40937  1.0000
  N   N2        1.0  0.32486  0.23302  0.90920  1.0000
  N   N3        1.0  0.84781  0.74989  0.59063  1.0000
  N   N4        1.0  0.67514  0.76699  0.09081  1.0000
  O   O1        1.0  0.46742  0.23001  0.06709  1.0000
  O   O2        1.0  0.02983  0.28301  0.57105  1.0000
  O   O3        1.0  0.53258  0.77001  0.93291  1.0000
  O   O4        1.0  0.97016  0.71699  0.42895  1.0000
  O   O5        1.0  0.11381  0.94628  0.04829  1.0000
  O   O6        1.0  0.39031  0.49934  0.55907  1.0000
  O   O7        1.0  0.88620  0.05372  0.95171  1.0000
  O   O8        1.0  0.60968  0.50065  0.44093  1.0000
  O   O9        1.0  0.34745  0.84971  0.10321  1.0000
  O   O10       1.0  0.20665  0.67990  0.61007  1.0000
  O   O11       1.0  0.65257  0.15031  0.89679  1.0000
  O   O12       1.0  0.79335  0.32010  0.38993  1.0000
  O   O13       1.0  0.20944  0.44278  0.03905  1.0000
  O   O14       1.0  0.28967  0.03936  0.52869  1.0000
  O   O15       1.0  0.79057  0.55723  0.96095  1.0000
  O   O16       1.0  0.71034  0.96064  0.47131  1.0000
