data_image0
_chemical_formula_structural       Cd2H48C44N12O8
_chemical_formula_sum              "Cd2 H48 C44 N12 O8"
_cell_length_a       8.80736
_cell_length_b       9.79297
_cell_length_c       13.3314
_cell_angle_alpha    104.351
_cell_angle_beta     90
_cell_angle_gamma    90

_space_group_name_H-M_alt    "P 1"
_space_group_IT_number       1

loop_
  _space_group_symop_operation_xyz
  'x, y, z'

loop_
  _atom_site_type_symbol
  _atom_site_label
  _atom_site_symmetry_multiplicity
  _atom_site_fract_x
  _atom_site_fract_y
  _atom_site_fract_z
  _atom_site_occupancy
  Cd  Cd1       1.0  1.00000  0.00000  0.00000  1.0000
  Cd  Cd2       1.0  0.50000  0.00000  0.50000  1.0000
  H   H1        1.0  0.85905  0.73878  0.06119  1.0000
  H   H2        1.0  0.35906  0.26123  0.43881  1.0000
  H   H3        1.0  0.14095  0.26122  0.93881  1.0000
  H   H4        1.0  0.64094  0.73878  0.56119  1.0000
  H   H5        1.0  0.75430  0.02020  0.19786  1.0000
  H   H6        1.0  0.25430  0.97980  0.30214  1.0000
  H   H7        1.0  0.24570  0.97980  0.80214  1.0000
  H   H8        1.0  0.74570  0.02020  0.69786  1.0000
  H   H9        1.0  0.35939  0.25183  0.14767  1.0000
  H   H10       1.0  0.85940  0.74816  0.35233  1.0000
  H   H11       1.0  0.64060  0.74817  0.85233  1.0000
  H   H12       1.0  0.14060  0.25184  0.64767  1.0000
  H   H13       1.0  0.45752  0.23749  0.96675  1.0000
  H   H14       1.0  0.95753  0.76251  0.53324  1.0000
  H   H15       1.0  0.54247  0.76251  0.03324  1.0000
  H   H16       1.0  0.04247  0.23749  0.46676  1.0000
  H   H17       1.0  0.70760  0.11724  0.91440  1.0000
  H   H18       1.0  0.20760  0.88276  0.58559  1.0000
  H   H19       1.0  0.29240  0.88276  0.08559  1.0000
  H   H20       1.0  0.79240  0.11724  0.41441  1.0000
  H   H21       1.0  0.91945  0.81237  0.71686  1.0000
  H   H22       1.0  0.41945  0.18762  0.78314  1.0000
  H   H23       1.0  0.08055  0.18763  0.28314  1.0000
  H   H24       1.0  0.58055  0.81238  0.21685  1.0000
  H   H25       1.0  0.98439  0.63713  0.66184  1.0000
  H   H26       1.0  0.48439  0.36287  0.83816  1.0000
  H   H27       1.0  0.01561  0.36287  0.33816  1.0000
  H   H28       1.0  0.51561  0.63713  0.16184  1.0000
  H   H29       1.0  0.10750  0.76250  0.74120  1.0000
  H   H30       1.0  0.60749  0.23750  0.75880  1.0000
  H   H31       1.0  0.89250  0.23750  0.25880  1.0000
  H   H32       1.0  0.39251  0.76250  0.24120  1.0000
  H   H33       1.0  0.86810  0.45362  0.76215  1.0000
  H   H34       1.0  0.36809  0.54637  0.73785  1.0000
  H   H35       1.0  0.13190  0.54637  0.23785  1.0000
  H   H36       1.0  0.63190  0.45363  0.26215  1.0000
  H   H37       1.0  0.82396  0.46666  0.05941  1.0000
  H   H38       1.0  0.32396  0.53333  0.44059  1.0000
  H   H39       1.0  0.17604  0.53334  0.94059  1.0000
  H   H40       1.0  0.67604  0.46667  0.55941  1.0000
  H   H41       1.0  0.79234  0.34755  0.93697  1.0000
  H   H42       1.0  0.29234  0.65245  0.56303  1.0000
  H   H43       1.0  0.20766  0.65245  0.06302  1.0000
  H   H44       1.0  0.70766  0.34755  0.43698  1.0000
  H   H45       1.0  0.64855  0.46875  0.99424  1.0000
  H   H46       1.0  0.14855  0.53125  0.50576  1.0000
  H   H47       1.0  0.35145  0.53125  0.00576  1.0000
  H   H48       1.0  0.85145  0.46875  0.49425  1.0000
  C   C1        1.0  0.49007  0.13648  0.29096  1.0000
  C   C2        1.0  0.99007  0.86352  0.20904  1.0000
  C   C3        1.0  0.50993  0.86352  0.70904  1.0000
  C   C4        1.0  0.00993  0.13648  0.79096  1.0000
  C   C5        1.0  0.68796  0.07238  0.14931  1.0000
  C   C6        1.0  0.18796  0.92762  0.35069  1.0000
  C   C7        1.0  0.31204  0.92762  0.85069  1.0000
  C   C8        1.0  0.81204  0.07238  0.64931  1.0000
  C   C9        1.0  0.55001  0.13667  0.18521  1.0000
  C   C10       1.0  0.05001  0.86334  0.31479  1.0000
  C   C11       1.0  0.44999  0.86333  0.81479  1.0000
  C   C12       1.0  0.94999  0.13666  0.68521  1.0000
  C   C13       1.0  0.46635  0.20028  0.11995  1.0000
  C   C14       1.0  0.96636  0.79972  0.38005  1.0000
  C   C15       1.0  0.53364  0.79972  0.88005  1.0000
  C   C16       1.0  0.03364  0.20027  0.61995  1.0000
  C   C17       1.0  0.52133  0.19316  0.02102  1.0000
  C   C18       1.0  0.02134  0.80684  0.47898  1.0000
  C   C19       1.0  0.47866  0.80684  0.97898  1.0000
  C   C20       1.0  0.97866  0.19315  0.52102  1.0000
  C   C21       1.0  0.65950  0.12616  0.99116  1.0000
  C   C22       1.0  0.15950  0.87384  0.50884  1.0000
  C   C23       1.0  0.34050  0.87384  0.00884  1.0000
  C   C24       1.0  0.84050  0.12616  0.49116  1.0000
  C   C25       1.0  0.98931  0.72597  0.73047  1.0000
  C   C26       1.0  0.48931  0.27403  0.76953  1.0000
  C   C27       1.0  0.01069  0.27403  0.26953  1.0000
  C   C28       1.0  0.51069  0.72597  0.23047  1.0000
  C   C29       1.0  0.93237  0.68022  0.82215  1.0000
  C   C30       1.0  0.43237  0.31978  0.67785  1.0000
  C   C31       1.0  0.06763  0.31978  0.17785  1.0000
  C   C32       1.0  0.56763  0.68022  0.32215  1.0000
  C   C33       1.0  0.87670  0.54666  0.82604  1.0000
  C   C34       1.0  0.37670  0.45333  0.67396  1.0000
  C   C35       1.0  0.12330  0.45334  0.17396  1.0000
  C   C36       1.0  0.62330  0.54666  0.32604  1.0000
  C   C37       1.0  0.83615  0.55840  0.92908  1.0000
  C   C38       1.0  0.33615  0.44160  0.57092  1.0000
  C   C39       1.0  0.16385  0.44160  0.07093  1.0000
  C   C40       1.0  0.66385  0.55840  0.42908  1.0000
  C   C41       1.0  0.77200  0.45518  0.98283  1.0000
  C   C42       1.0  0.27200  0.54482  0.51717  1.0000
  C   C43       1.0  0.22800  0.54482  0.01717  1.0000
  C   C44       1.0  0.72800  0.45518  0.48283  1.0000
  N   N1        1.0  0.74323  0.06877  0.05470  1.0000
  N   N2        1.0  0.24323  0.93123  0.44529  1.0000
  N   N3        1.0  0.25677  0.93123  0.94529  1.0000
  N   N4        1.0  0.75677  0.06877  0.55471  1.0000
  N   N5        1.0  0.92568  0.76855  0.91758  1.0000
  N   N6        1.0  0.42568  0.23145  0.58242  1.0000
  N   N7        1.0  0.07432  0.23146  0.08242  1.0000
  N   N8        1.0  0.57432  0.76855  0.41758  1.0000
  N   N9        1.0  0.86648  0.69267  0.98038  1.0000
  N   N10       1.0  0.36648  0.30733  0.51962  1.0000
  N   N11       1.0  0.13352  0.30733  0.01962  1.0000
  N   N12       1.0  0.63352  0.69267  0.48038  1.0000
  O   O1        1.0  0.56647  0.06914  0.34444  1.0000
  O   O2        1.0  0.06647  0.93086  0.15555  1.0000
  O   O3        1.0  0.43353  0.93086  0.65555  1.0000
  O   O4        1.0  0.93353  0.06915  0.84445  1.0000
  O   O5        1.0  0.36695  0.20258  0.31781  1.0000
  O   O6        1.0  0.86695  0.79742  0.18219  1.0000
  O   O7        1.0  0.63305  0.79742  0.68219  1.0000
  O   O8        1.0  0.13305  0.20258  0.81781  1.0000
