data_image0
_chemical_formula_structural       Cu8H48C36S4N16
_chemical_formula_sum              "Cu8 H48 C36 S4 N16"
_cell_length_a       6.83069
_cell_length_b       12.4643
_cell_length_c       13.76
_cell_angle_alpha    90
_cell_angle_beta     90
_cell_angle_gamma    97.3158

_space_group_name_H-M_alt    "P 1"
_space_group_IT_number       1

loop_
  _space_group_symop_operation_xyz
  'x, y, z'

loop_
  _atom_site_type_symbol
  _atom_site_label
  _atom_site_symmetry_multiplicity
  _atom_site_fract_x
  _atom_site_fract_y
  _atom_site_fract_z
  _atom_site_occupancy
  Cu  Cu1       1.0  0.91133  0.96402  0.11367  1.0000
  Cu  Cu2       1.0  0.58867  0.53598  0.61367  1.0000
  Cu  Cu3       1.0  0.08867  0.03597  0.88634  1.0000
  Cu  Cu4       1.0  0.41134  0.46402  0.38634  1.0000
  Cu  Cu5       1.0  0.74426  0.91399  0.82918  1.0000
  Cu  Cu6       1.0  0.75576  0.58600  0.32918  1.0000
  Cu  Cu7       1.0  0.25575  0.08601  0.17082  1.0000
  Cu  Cu8       1.0  0.24425  0.41400  0.67082  1.0000
  H   H1        1.0  0.59545  0.78362  0.69456  1.0000
  H   H2        1.0  0.90455  0.71638  0.19456  1.0000
  H   H3        1.0  0.40454  0.21638  0.30544  1.0000
  H   H4        1.0  0.09545  0.28362  0.80544  1.0000
  H   H5        1.0  0.74083  0.90622  0.64069  1.0000
  H   H6        1.0  0.75917  0.59379  0.14069  1.0000
  H   H7        1.0  0.25918  0.09379  0.35931  1.0000
  H   H8        1.0  0.24083  0.40622  0.85931  1.0000
  H   H9        1.0  0.03912  0.86751  0.72564  1.0000
  H   H10       1.0  0.46088  0.63249  0.22563  1.0000
  H   H11       1.0  0.96088  0.13249  0.27437  1.0000
  H   H12       1.0  0.53913  0.36751  0.77437  1.0000
  H   H13       1.0  0.76871  0.68064  0.82482  1.0000
  H   H14       1.0  0.73128  0.81936  0.32482  1.0000
  H   H15       1.0  0.23128  0.31936  0.17518  1.0000
  H   H16       1.0  0.26872  0.18064  0.67519  1.0000
  H   H17       1.0  0.95866  0.65383  0.74507  1.0000
  H   H18       1.0  0.54134  0.84617  0.24508  1.0000
  H   H19       1.0  0.04134  0.34617  0.25492  1.0000
  H   H20       1.0  0.45866  0.15383  0.75492  1.0000
  H   H21       1.0  0.18707  0.68743  0.85451  1.0000
  H   H22       1.0  0.31293  0.81258  0.35451  1.0000
  H   H23       1.0  0.81293  0.31257  0.14549  1.0000
  H   H24       1.0  0.68707  0.18743  0.64549  1.0000
  H   H25       1.0  0.19493  0.84080  0.07362  1.0000
  H   H26       1.0  0.30507  0.65920  0.57362  1.0000
  H   H27       1.0  0.80507  0.15920  0.92638  1.0000
  H   H28       1.0  0.69493  0.34080  0.42638  1.0000
  H   H29       1.0  0.49632  0.78216  0.05272  1.0000
  H   H30       1.0  0.00368  0.71784  0.55272  1.0000
  H   H31       1.0  0.50367  0.21784  0.94728  1.0000
  H   H32       1.0  0.99633  0.28216  0.44728  1.0000
  H   H33       1.0  0.44103  0.75482  0.93052  1.0000
  H   H34       1.0  0.05897  0.74518  0.43052  1.0000
  H   H35       1.0  0.55897  0.24518  0.06948  1.0000
  H   H36       1.0  0.94103  0.25482  0.56948  1.0000
  H   H37       1.0  0.49837  0.58389  0.00696  1.0000
  H   H38       1.0  0.00163  0.91611  0.50696  1.0000
  H   H39       1.0  0.50163  0.41611  0.99304  1.0000
  H   H40       1.0  0.99836  0.08389  0.49304  1.0000
  H   H41       1.0  0.07436  0.59258  0.08158  1.0000
  H   H42       1.0  0.42564  0.90742  0.58158  1.0000
  H   H43       1.0  0.92563  0.40741  0.91842  1.0000
  H   H44       1.0  0.57436  0.09258  0.41842  1.0000
  H   H45       1.0  0.20989  0.47296  0.07598  1.0000
  H   H46       1.0  0.29012  0.02703  0.57597  1.0000
  H   H47       1.0  0.79011  0.52703  0.92402  1.0000
  H   H48       1.0  0.70989  0.97297  0.42402  1.0000
  C   C1        1.0  0.66156  0.01243  0.13268  1.0000
  C   C2        1.0  0.83844  0.48758  0.63266  1.0000
  C   C3        1.0  0.33844  0.98757  0.86733  1.0000
  C   C4        1.0  0.16157  0.51243  0.36734  1.0000
  C   C5        1.0  0.07401  0.91652  0.21268  1.0000
  C   C6        1.0  0.42599  0.58345  0.71268  1.0000
  C   C7        1.0  0.92600  0.08347  0.78732  1.0000
  C   C8        1.0  0.57400  0.41653  0.28732  1.0000
  C   C9        1.0  0.73102  0.84028  0.69328  1.0000
  C   C10       1.0  0.76897  0.65973  0.19328  1.0000
  C   C11       1.0  0.26898  0.15972  0.30672  1.0000
  C   C12       1.0  0.23103  0.34028  0.80673  1.0000
  C   C13       1.0  0.89845  0.81855  0.74179  1.0000
  C   C14       1.0  0.60155  0.68145  0.24178  1.0000
  C   C15       1.0  0.10155  0.18145  0.25822  1.0000
  C   C16       1.0  0.39845  0.31855  0.75822  1.0000
  C   C17       1.0  0.91338  0.71448  0.79566  1.0000
  C   C18       1.0  0.58662  0.78552  0.29566  1.0000
  C   C19       1.0  0.08662  0.28552  0.20434  1.0000
  C   C20       1.0  0.41339  0.21449  0.70434  1.0000
  C   C21       1.0  0.06081  0.78570  0.95072  1.0000
  C   C22       1.0  0.43918  0.71430  0.45071  1.0000
  C   C23       1.0  0.93918  0.21430  0.04928  1.0000
  C   C24       1.0  0.56082  0.28570  0.54928  1.0000
  C   C25       1.0  0.38383  0.73902  0.00480  1.0000
  C   C26       1.0  0.11616  0.76097  0.50480  1.0000
  C   C27       1.0  0.61616  0.26098  0.99520  1.0000
  C   C28       1.0  0.88384  0.23902  0.49520  1.0000
  C   C29       1.0  0.36532  0.61989  0.02513  1.0000
  C   C30       1.0  0.13468  0.88010  0.52513  1.0000
  C   C31       1.0  0.63468  0.38010  0.97487  1.0000
  C   C32       1.0  0.86532  0.11990  0.47487  1.0000
  C   C33       1.0  0.20881  0.55896  0.06244  1.0000
  C   C34       1.0  0.29120  0.94103  0.56244  1.0000
  C   C35       1.0  0.79120  0.44103  0.93756  1.0000
  C   C36       1.0  0.70880  0.05897  0.43756  1.0000
  S   S1        1.0  0.86928  0.86214  0.97329  1.0000
  S   S2        1.0  0.63073  0.63786  0.47329  1.0000
  S   S3        1.0  0.13072  0.13786  0.02671  1.0000
  S   S4        1.0  0.36928  0.36214  0.52671  1.0000
  N   N1        1.0  0.50289  0.03669  0.14560  1.0000
  N   N2        1.0  0.99710  0.46331  0.64560  1.0000
  N   N3        1.0  0.49711  0.96331  0.85440  1.0000
  N   N4        1.0  0.00290  0.53669  0.35440  1.0000
  N   N5        1.0  0.13921  0.87221  0.27874  1.0000
  N   N6        1.0  0.36078  0.62780  0.77874  1.0000
  N   N7        1.0  0.86079  0.12779  0.72126  1.0000
  N   N8        1.0  0.63919  0.37220  0.22126  1.0000
  N   N9        1.0  0.06367  0.72495  0.87160  1.0000
  N   N10       1.0  0.43633  0.77505  0.37160  1.0000
  N   N11       1.0  0.93632  0.27504  0.12840  1.0000
  N   N12       1.0  0.56367  0.22496  0.62840  1.0000
  N   N13       1.0  0.20465  0.78888  0.01696  1.0000
  N   N14       1.0  0.29535  0.71112  0.51696  1.0000
  N   N15       1.0  0.79535  0.21112  0.98304  1.0000
  N   N16       1.0  0.70465  0.28888  0.48304  1.0000
