data_image0
_chemical_formula_structural       Cu6H60C36N18
_chemical_formula_sum              "Cu6 H60 C36 N18"
_cell_length_a       12.2401
_cell_length_b       12.255
_cell_length_c       12.3452
_cell_angle_alpha    106.366
_cell_angle_beta     106.386
_cell_angle_gamma    106.111

_space_group_name_H-M_alt    "P 1"
_space_group_IT_number       1

loop_
  _space_group_symop_operation_xyz
  'x, y, z'

loop_
  _atom_site_type_symbol
  _atom_site_label
  _atom_site_symmetry_multiplicity
  _atom_site_fract_x
  _atom_site_fract_y
  _atom_site_fract_z
  _atom_site_occupancy
  Cu  Cu1       1.0  0.97729  0.60026  0.11162  1.0000
  Cu  Cu2       1.0  0.11091  0.97574  0.59935  1.0000
  Cu  Cu3       1.0  0.60049  0.11089  0.97751  1.0000
  Cu  Cu4       1.0  0.02271  0.39974  0.88838  1.0000
  Cu  Cu5       1.0  0.88909  0.02426  0.40065  1.0000
  Cu  Cu6       1.0  0.39951  0.88911  0.02249  1.0000
  H   H1        1.0  0.15116  0.85647  0.23253  1.0000
  H   H2        1.0  0.23343  0.15063  0.85638  1.0000
  H   H3        1.0  0.85630  0.23342  0.15177  1.0000
  H   H4        1.0  0.84884  0.14353  0.76747  1.0000
  H   H5        1.0  0.76657  0.84937  0.14362  1.0000
  H   H6        1.0  0.14370  0.76658  0.84823  1.0000
  H   H7        1.0  0.31293  0.90946  0.27612  1.0000
  H   H8        1.0  0.27648  0.31209  0.90889  1.0000
  H   H9        1.0  0.90993  0.27736  0.31239  1.0000
  H   H10       1.0  0.68707  0.09054  0.72388  1.0000
  H   H11       1.0  0.72352  0.68790  0.09110  1.0000
  H   H12       1.0  0.09007  0.72264  0.68761  1.0000
  H   H13       1.0  0.23480  0.06642  0.23048  1.0000
  H   H14       1.0  0.23062  0.23468  0.06444  1.0000
  H   H15       1.0  0.06654  0.23063  0.23513  1.0000
  H   H16       1.0  0.76520  0.93358  0.76952  1.0000
  H   H17       1.0  0.76938  0.76532  0.93556  1.0000
  H   H18       1.0  0.93346  0.76937  0.76488  1.0000
  H   H19       1.0  0.13679  0.95786  0.07847  1.0000
  H   H20       1.0  0.07761  0.13663  0.95653  1.0000
  H   H21       1.0  0.95762  0.07801  0.13730  1.0000
  H   H22       1.0  0.86321  0.04214  0.92153  1.0000
  H   H23       1.0  0.92239  0.86337  0.04346  1.0000
  H   H24       1.0  0.04238  0.92199  0.86270  1.0000
  H   H25       1.0  0.29968  0.01147  0.12456  1.0000
  H   H26       1.0  0.12360  0.29934  0.00977  1.0000
  H   H27       1.0  0.01154  0.12370  0.29890  1.0000
  H   H28       1.0  0.70032  0.98852  0.87543  1.0000
  H   H29       1.0  0.87640  0.70066  0.99023  1.0000
  H   H30       1.0  0.98846  0.87630  0.70110  1.0000
  H   H31       1.0  0.27830  0.63070  0.80529  1.0000
  H   H32       1.0  0.80389  0.27921  0.62986  1.0000
  H   H33       1.0  0.63049  0.80490  0.27822  1.0000
  H   H34       1.0  0.72170  0.36930  0.19471  1.0000
  H   H35       1.0  0.19612  0.72079  0.37014  1.0000
  H   H36       1.0  0.36951  0.19510  0.72177  1.0000
  H   H37       1.0  0.22010  0.48556  0.81484  1.0000
  H   H38       1.0  0.81447  0.22066  0.48604  1.0000
  H   H39       1.0  0.48515  0.81494  0.22035  1.0000
  H   H40       1.0  0.77990  0.51444  0.18516  1.0000
  H   H41       1.0  0.18553  0.77934  0.51396  1.0000
  H   H42       1.0  0.51484  0.18506  0.77965  1.0000
  H   H43       1.0  0.44983  0.55712  0.86384  1.0000
  H   H44       1.0  0.86327  0.45015  0.55741  1.0000
  H   H45       1.0  0.55710  0.86327  0.44804  1.0000
  H   H46       1.0  0.55017  0.44288  0.13616  1.0000
  H   H47       1.0  0.13673  0.54985  0.44259  1.0000
  H   H48       1.0  0.44289  0.13673  0.55196  1.0000
  H   H49       1.0  0.42031  0.54879  0.99516  1.0000
  H   H50       1.0  0.99579  0.42023  0.54946  1.0000
  H   H51       1.0  0.54868  0.99604  0.41965  1.0000
  H   H52       1.0  0.57969  0.45121  0.00484  1.0000
  H   H53       1.0  0.00421  0.57977  0.45054  1.0000
  H   H54       1.0  0.45132  0.00396  0.58035  1.0000
  H   H55       1.0  0.47628  0.69418  0.98487  1.0000
  H   H56       1.0  0.98508  0.47670  0.69375  1.0000
  H   H57       1.0  0.69423  0.98496  0.47508  1.0000
  H   H58       1.0  0.52372  0.30582  0.01513  1.0000
  H   H59       1.0  0.01492  0.52330  0.30625  1.0000
  H   H60       1.0  0.30576  0.01503  0.52491  1.0000
  C   C1        1.0  0.20702  0.76343  0.10107  1.0000
  C   C2        1.0  0.10083  0.20623  0.76311  1.0000
  C   C3        1.0  0.76347  0.10166  0.20732  1.0000
  C   C4        1.0  0.79298  0.23656  0.89893  1.0000
  C   C5        1.0  0.89917  0.79377  0.23689  1.0000
  C   C6        1.0  0.23653  0.89835  0.79268  1.0000
  C   C7        1.0  0.22459  0.87915  0.19847  1.0000
  C   C8        1.0  0.19852  0.22383  0.87847  1.0000
  C   C9        1.0  0.87923  0.19915  0.22473  1.0000
  C   C10       1.0  0.77541  0.12085  0.80153  1.0000
  C   C11       1.0  0.80148  0.77617  0.12152  1.0000
  C   C12       1.0  0.12077  0.80085  0.77527  1.0000
  C   C13       1.0  0.22394  0.98486  0.15555  1.0000
  C   C14       1.0  0.15503  0.22357  0.98333  1.0000
  C   C15       1.0  0.98487  0.15536  0.22399  1.0000
  C   C16       1.0  0.77606  0.01514  0.84445  1.0000
  C   C17       1.0  0.84497  0.77643  0.01667  1.0000
  C   C18       1.0  0.01513  0.84464  0.77601  1.0000
  C   C19       1.0  0.23124  0.63540  0.95873  1.0000
  C   C20       1.0  0.95866  0.23168  0.63553  1.0000
  C   C21       1.0  0.63512  0.95944  0.23169  1.0000
  C   C22       1.0  0.76876  0.36460  0.04127  1.0000
  C   C23       1.0  0.04134  0.76832  0.36447  1.0000
  C   C24       1.0  0.36488  0.04056  0.76831  1.0000
  C   C25       1.0  0.28155  0.58304  0.86903  1.0000
  C   C26       1.0  0.86856  0.28218  0.58304  1.0000
  C   C27       1.0  0.58277  0.86931  0.28154  1.0000
  C   C28       1.0  0.71845  0.41696  0.13097  1.0000
  C   C29       1.0  0.13144  0.71782  0.41696  1.0000
  C   C30       1.0  0.41722  0.13069  0.71846  1.0000
  C   C31       1.0  0.41484  0.59640  0.93175  1.0000
  C   C32       1.0  0.93172  0.41513  0.59656  1.0000
  C   C33       1.0  0.59631  0.93196  0.41384  1.0000
  C   C34       1.0  0.58516  0.40360  0.06825  1.0000
  C   C35       1.0  0.06828  0.58488  0.40345  1.0000
  C   C36       1.0  0.40369  0.06804  0.58616  1.0000
  N   N1        1.0  0.11962  0.65229  0.06830  1.0000
  N   N2        1.0  0.06817  0.11892  0.65252  1.0000
  N   N3        1.0  0.65243  0.06794  0.11938  1.0000
  N   N4        1.0  0.88038  0.34771  0.93170  1.0000
  N   N5        1.0  0.93184  0.88109  0.34748  1.0000
  N   N6        1.0  0.34757  0.93206  0.88062  1.0000
  N   N7        1.0  0.13563  0.56995  0.97701  1.0000
  N   N8        1.0  0.97704  0.13574  0.57048  1.0000
  N   N9        1.0  0.56989  0.97679  0.13549  1.0000
  N   N10       1.0  0.86437  0.43005  0.02299  1.0000
  N   N11       1.0  0.02297  0.86426  0.42952  1.0000
  N   N12       1.0  0.43011  0.02322  0.86451  1.0000
  N   N13       1.0  0.27807  0.75670  0.03416  1.0000
  N   N14       1.0  0.03393  0.27800  0.75626  1.0000
  N   N15       1.0  0.75650  0.03548  0.27886  1.0000
  N   N16       1.0  0.72193  0.24330  0.96585  1.0000
  N   N17       1.0  0.96607  0.72200  0.24373  1.0000
  N   N18       1.0  0.24350  0.96452  0.72114  1.0000
