data_image0
_chemical_formula_structural       Co2Si2H48C40N16F12
_chemical_formula_sum              "Co2 Si2 H48 C40 N16 F12"
_cell_length_a       7.92907
_cell_length_b       11.9539
_cell_length_c       12.594
_cell_angle_alpha    90
_cell_angle_beta     90
_cell_angle_gamma    90

_space_group_name_H-M_alt    "P 1"
_space_group_IT_number       1

loop_
  _space_group_symop_operation_xyz
  'x, y, z'

loop_
  _atom_site_type_symbol
  _atom_site_label
  _atom_site_symmetry_multiplicity
  _atom_site_fract_x
  _atom_site_fract_y
  _atom_site_fract_z
  _atom_site_occupancy
  Co  Co1       1.0  0.74497  0.25000  0.25000  1.0000
  Co  Co2       1.0  0.25503  0.75000  0.75000  1.0000
  Si  Si1       1.0  0.24663  0.25000  0.25000  1.0000
  Si  Si2       1.0  0.75337  0.75000  0.75000  1.0000
  H   H1        1.0  0.01741  0.07135  0.19968  1.0000
  H   H2        1.0  0.52449  0.80097  0.57595  1.0000
  H   H3        1.0  0.01740  0.42866  0.30032  1.0000
  H   H4        1.0  0.52449  0.69903  0.92405  1.0000
  H   H5        1.0  0.98260  0.92866  0.80032  1.0000
  H   H6        1.0  0.47551  0.19903  0.42405  1.0000
  H   H7        1.0  0.98260  0.57134  0.69968  1.0000
  H   H8        1.0  0.47551  0.30097  0.07594  1.0000
  H   H9        1.0  0.49611  0.07832  0.13085  1.0000
  H   H10       1.0  0.00268  0.87106  0.58693  1.0000
  H   H11       1.0  0.49610  0.42168  0.36915  1.0000
  H   H12       1.0  0.00268  0.62894  0.91307  1.0000
  H   H13       1.0  0.50390  0.92168  0.86915  1.0000
  H   H14       1.0  0.99732  0.12893  0.41306  1.0000
  H   H15       1.0  0.50390  0.57832  0.63085  1.0000
  H   H16       1.0  0.99732  0.37107  0.08693  1.0000
  H   H17       1.0  0.63841  0.88615  0.03983  1.0000
  H   H18       1.0  0.13676  0.95732  0.39757  1.0000
  H   H19       1.0  0.63840  0.61385  0.46017  1.0000
  H   H20       1.0  0.13675  0.54269  0.10243  1.0000
  H   H21       1.0  0.36159  0.11384  0.96017  1.0000
  H   H22       1.0  0.86324  0.04268  0.60243  1.0000
  H   H23       1.0  0.36159  0.38615  0.53983  1.0000
  H   H24       1.0  0.86324  0.45733  0.89757  1.0000
  H   H25       1.0  0.93318  0.81076  0.02681  1.0000
  H   H26       1.0  0.42293  0.96699  0.31936  1.0000
  H   H27       1.0  0.93317  0.68923  0.47319  1.0000
  H   H28       1.0  0.42294  0.53301  0.18064  1.0000
  H   H29       1.0  0.06683  0.18924  0.97319  1.0000
  H   H30       1.0  0.57706  0.03300  0.68064  1.0000
  H   H31       1.0  0.06683  0.31077  0.52681  1.0000
  H   H32       1.0  0.57706  0.46700  0.81936  1.0000
  H   H33       1.0  0.22904  0.80853  0.08572  1.0000
  H   H34       1.0  0.71955  0.90689  0.31197  1.0000
  H   H35       1.0  0.22904  0.69146  0.41428  1.0000
  H   H36       1.0  0.71956  0.59310  0.18803  1.0000
  H   H37       1.0  0.77096  0.19147  0.91428  1.0000
  H   H38       1.0  0.28044  0.09311  0.68803  1.0000
  H   H39       1.0  0.77096  0.30853  0.58572  1.0000
  H   H40       1.0  0.28044  0.40690  0.81197  1.0000
  H   H41       1.0  0.19533  0.93601  0.16792  1.0000
  H   H42       1.0  0.69677  0.82919  0.43937  1.0000
  H   H43       1.0  0.19532  0.56399  0.33208  1.0000
  H   H44       1.0  0.69676  0.67081  0.06063  1.0000
  H   H45       1.0  0.80467  0.06399  0.83208  1.0000
  H   H46       1.0  0.30324  0.17081  0.56062  1.0000
  H   H47       1.0  0.80467  0.43600  0.66792  1.0000
  H   H48       1.0  0.30324  0.32920  0.93938  1.0000
  C   C1        1.0  0.89412  0.04764  0.17026  1.0000
  C   C2        1.0  0.40006  0.83042  0.55391  1.0000
  C   C3        1.0  0.89412  0.45236  0.32974  1.0000
  C   C4        1.0  0.40006  0.66958  0.94609  1.0000
  C   C5        1.0  0.10588  0.95236  0.82974  1.0000
  C   C6        1.0  0.59994  0.16958  0.44609  1.0000
  C   C7        1.0  0.10588  0.54764  0.67026  1.0000
  C   C8        1.0  0.59994  0.33042  0.05390  1.0000
  C   C9        1.0  0.62500  0.04803  0.13064  1.0000
  C   C10       1.0  0.13061  0.87107  0.55656  1.0000
  C   C11       1.0  0.62499  0.45197  0.36936  1.0000
  C   C12       1.0  0.13061  0.62893  0.94344  1.0000
  C   C13       1.0  0.37501  0.95197  0.86936  1.0000
  C   C14       1.0  0.86938  0.12892  0.44343  1.0000
  C   C15       1.0  0.37500  0.54803  0.63064  1.0000
  C   C16       1.0  0.86939  0.37108  0.05656  1.0000
  C   C17       1.0  0.69267  0.95278  0.08692  1.0000
  C   C18       1.0  0.19407  0.91252  0.46298  1.0000
  C   C19       1.0  0.69266  0.54722  0.41308  1.0000
  C   C20       1.0  0.19407  0.58748  0.03702  1.0000
  C   C21       1.0  0.30734  0.04723  0.91308  1.0000
  C   C22       1.0  0.80592  0.08747  0.53701  1.0000
  C   C23       1.0  0.30733  0.45278  0.58692  1.0000
  C   C24       1.0  0.80593  0.41254  0.96298  1.0000
  C   C25       1.0  0.98354  0.87233  0.08213  1.0000
  C   C26       1.0  0.47900  0.91340  0.37981  1.0000
  C   C27       1.0  0.98353  0.62767  0.41788  1.0000
  C   C28       1.0  0.47900  0.58660  0.12019  1.0000
  C   C29       1.0  0.01647  0.12767  0.91788  1.0000
  C   C30       1.0  0.52099  0.08660  0.62019  1.0000
  C   C31       1.0  0.01647  0.37233  0.58212  1.0000
  C   C32       1.0  0.52100  0.41341  0.87981  1.0000
  C   C33       1.0  0.14391  0.87281  0.11463  1.0000
  C   C34       1.0  0.63985  0.88033  0.37742  1.0000
  C   C35       1.0  0.14390  0.62719  0.38537  1.0000
  C   C36       1.0  0.63985  0.61967  0.12258  1.0000
  C   C37       1.0  0.85610  0.12719  0.88537  1.0000
  C   C38       1.0  0.36015  0.11967  0.62258  1.0000
  C   C39       1.0  0.85610  0.37281  0.61462  1.0000
  C   C40       1.0  0.36015  0.38034  0.87742  1.0000
  N   N1        1.0  0.75254  0.10616  0.18198  1.0000
  N   N2        1.0  0.26078  0.82051  0.61229  1.0000
  N   N3        1.0  0.75253  0.39385  0.31802  1.0000
  N   N4        1.0  0.26078  0.67949  0.88771  1.0000
  N   N5        1.0  0.24747  0.89385  0.81802  1.0000
  N   N6        1.0  0.73922  0.17948  0.38770  1.0000
  N   N7        1.0  0.24747  0.60615  0.68199  1.0000
  N   N8        1.0  0.73922  0.32052  0.11229  1.0000
  N   N9        1.0  0.86281  0.95316  0.11290  1.0000
  N   N10       1.0  0.36435  0.88578  0.46179  1.0000
  N   N11       1.0  0.86280  0.54684  0.38710  1.0000
  N   N12       1.0  0.36435  0.61422  0.03821  1.0000
  N   N13       1.0  0.13720  0.04684  0.88710  1.0000
  N   N14       1.0  0.63565  0.11421  0.53821  1.0000
  N   N15       1.0  0.13720  0.45316  0.61290  1.0000
  N   N16       1.0  0.63566  0.38579  0.96179  1.0000
  F   F1        1.0  0.46265  0.25000  0.24999  1.0000
  F   F2        1.0  0.96953  0.75000  0.75002  1.0000
  F   F3        1.0  0.53735  0.74999  0.74999  1.0000
  F   F4        1.0  0.03048  0.25000  0.25002  1.0000
  F   F5        1.0  0.24500  0.39120  0.22313  1.0000
  F   F6        1.0  0.75190  0.77821  0.88403  1.0000
  F   F7        1.0  0.24500  0.10880  0.27686  1.0000
  F   F8        1.0  0.75194  0.72178  0.61599  1.0000
  F   F9        1.0  0.75500  0.60880  0.77687  1.0000
  F   F10       1.0  0.24806  0.22179  0.11598  1.0000
  F   F11       1.0  0.75500  0.89119  0.72314  1.0000
  F   F12       1.0  0.24810  0.27821  0.38402  1.0000
