data_image0
_chemical_formula_structural       Mn2H12C8O12
_chemical_formula_sum              "Mn2 H12 C8 O12"
_cell_length_a       7.14615
_cell_length_b       7.56318
_cell_length_c       7.56325
_cell_angle_alpha    111.991
_cell_angle_beta     103.608
_cell_angle_gamma    103.611

_space_group_name_H-M_alt    "P 1"
_space_group_IT_number       1

loop_
  _space_group_symop_operation_xyz
  'x, y, z'

loop_
  _atom_site_type_symbol
  _atom_site_label
  _atom_site_symmetry_multiplicity
  _atom_site_fract_x
  _atom_site_fract_y
  _atom_site_fract_z
  _atom_site_occupancy
  Mn  Mn1       1.0  0.75802  0.85667  0.15086  1.0000
  Mn  Mn2       1.0  0.25803  0.15086  0.85666  1.0000
  H   H1        1.0  0.95790  0.54474  0.28519  1.0000
  H   H2        1.0  0.45790  0.28519  0.54476  1.0000
  H   H3        1.0  0.04578  0.54694  0.60498  1.0000
  H   H4        1.0  0.54578  0.60498  0.54694  1.0000
  H   H5        1.0  0.38349  0.58007  0.82271  1.0000
  H   H6        1.0  0.88350  0.82270  0.58008  1.0000
  H   H7        1.0  0.39817  0.81444  0.94258  1.0000
  H   H8        1.0  0.89818  0.94256  0.81444  1.0000
  H   H9        1.0  0.96700  0.56705  0.97836  1.0000
  H   H10       1.0  0.46700  0.97835  0.56704  1.0000
  H   H11       1.0  0.95824  0.71746  0.87780  1.0000
  H   H12       1.0  0.45826  0.87781  0.71747  1.0000
  C   C1        1.0  0.95973  0.25045  0.09231  1.0000
  C   C2        1.0  0.45971  0.09230  0.25044  1.0000
  C   C3        1.0  0.97358  0.40657  0.29012  1.0000
  C   C4        1.0  0.47356  0.29014  0.40657  1.0000
  C   C5        1.0  0.02586  0.40858  0.47343  1.0000
  C   C6        1.0  0.52586  0.47345  0.40857  1.0000
  C   C7        1.0  0.09109  0.25667  0.52434  1.0000
  C   C8        1.0  0.59108  0.52437  0.25670  1.0000
  O   O1        1.0  0.06479  0.31919  0.00237  1.0000
  O   O2        1.0  0.56478  0.00237  0.31921  1.0000
  O   O3        1.0  0.84564  0.06235  0.01773  1.0000
  O   O4        1.0  0.34563  0.01774  0.06235  1.0000
  O   O5        1.0  0.02692  0.06854  0.40261  1.0000
  O   O6        1.0  0.52693  0.40265  0.06856  1.0000
  O   O7        1.0  0.22814  0.33296  0.70481  1.0000
  O   O8        1.0  0.72814  0.70482  0.33298  1.0000
  O   O9        1.0  0.47410  0.72670  0.87950  1.0000
  O   O10       1.0  0.97411  0.87950  0.72670  1.0000
  O   O11       1.0  0.90255  0.66388  0.96234  1.0000
  O   O12       1.0  0.40256  0.96235  0.66389  1.0000
