data_image0
_chemical_formula_structural       Ca2H28C36N8O16
_chemical_formula_sum              "Ca2 H28 C36 N8 O16"
_cell_length_a       5.51399
_cell_length_b       12.5177
_cell_length_c       14.9947
_cell_angle_alpha    113.071
_cell_angle_beta     95.4238
_cell_angle_gamma    97.4417

_space_group_name_H-M_alt    "P 1"
_space_group_IT_number       1

loop_
  _space_group_symop_operation_xyz
  'x, y, z'

loop_
  _atom_site_type_symbol
  _atom_site_label
  _atom_site_symmetry_multiplicity
  _atom_site_fract_x
  _atom_site_fract_y
  _atom_site_fract_z
  _atom_site_occupancy
  Ca  Ca1       1.0  0.63084  0.36145  0.48851  1.0000
  Ca  Ca2       1.0  0.36918  0.63854  0.51148  1.0000
  H   H1        1.0  0.32941  0.45118  0.26423  1.0000
  H   H2        1.0  0.67059  0.54881  0.73576  1.0000
  H   H3        1.0  0.16440  0.49407  0.12238  1.0000
  H   H4        1.0  0.83561  0.50594  0.87761  1.0000
  H   H5        1.0  0.87327  0.70231  0.14670  1.0000
  H   H6        1.0  0.12673  0.29770  0.85332  1.0000
  H   H7        1.0  0.04243  0.65240  0.28483  1.0000
  H   H8        1.0  0.95757  0.34761  0.71518  1.0000
  H   H9        1.0  0.75504  0.28624  0.21268  1.0000
  H   H10       1.0  0.24497  0.71377  0.78734  1.0000
  H   H11       1.0  0.77415  0.22999  0.03454  1.0000
  H   H12       1.0  0.22584  0.77003  0.96548  1.0000
  H   H13       1.0  0.42342  0.08022  0.06330  1.0000
  H   H14       1.0  0.57660  0.91977  0.93669  1.0000
  H   H15       1.0  0.41404  0.14554  0.24296  1.0000
  H   H16       1.0  0.58598  0.85444  0.75703  1.0000
  H   H17       1.0  0.33437  0.21271  0.63625  1.0000
  H   H18       1.0  0.66562  0.78729  0.36375  1.0000
  H   H19       1.0  0.97308  0.14988  0.50480  1.0000
  H   H20       1.0  0.02693  0.85011  0.49520  1.0000
  H   H21       1.0  0.30431  0.08046  0.72126  1.0000
  H   H22       1.0  0.69566  0.91954  0.27874  1.0000
  H   H23       1.0  0.59763  0.05884  0.76449  1.0000
  H   H24       1.0  0.40234  0.94115  0.23551  1.0000
  H   H25       1.0  0.40852  0.94565  0.65662  1.0000
  H   H26       1.0  0.59146  0.05434  0.34338  1.0000
  H   H27       1.0  0.88900  0.00440  0.60593  1.0000
  H   H28       1.0  0.11099  0.99558  0.39407  1.0000
  C   C1        1.0  0.79146  0.52852  0.37083  1.0000
  C   C2        1.0  0.20851  0.47148  0.62917  1.0000
  C   C3        1.0  0.69546  0.55025  0.28314  1.0000
  C   C4        1.0  0.30453  0.44975  0.71686  1.0000
  C   C5        1.0  0.44807  0.50506  0.23776  1.0000
  C   C6        1.0  0.55194  0.49494  0.76224  1.0000
  C   C7        1.0  0.35376  0.53018  0.16034  1.0000
  C   C8        1.0  0.64626  0.46982  0.83966  1.0000
  C   C9        1.0  0.50932  0.60314  0.13096  1.0000
  C   C10       1.0  0.49069  0.39688  0.86904  1.0000
  C   C11       1.0  0.75785  0.64732  0.17319  1.0000
  C   C12       1.0  0.24216  0.35267  0.82680  1.0000
  C   C13       1.0  0.85051  0.61914  0.24921  1.0000
  C   C14       1.0  0.14950  0.38086  0.75079  1.0000
  C   C15       1.0  0.05938  0.24575  0.34488  1.0000
  C   C16       1.0  0.94064  0.75424  0.65513  1.0000
  C   C17       1.0  0.08004  0.21727  0.23845  1.0000
  C   C18       1.0  0.91998  0.78272  0.76155  1.0000
  C   C19       1.0  0.90262  0.24256  0.17981  1.0000
  C   C20       1.0  0.09740  0.75746  0.82020  1.0000
  C   C21       1.0  0.91081  0.21046  0.08038  1.0000
  C   C22       1.0  0.08918  0.78956  0.91963  1.0000
  C   C23       1.0  0.09745  0.15065  0.04000  1.0000
  C   C24       1.0  0.90254  0.84936  0.96001  1.0000
  C   C25       1.0  0.27980  0.12647  0.09692  1.0000
  C   C26       1.0  0.72021  0.87352  0.90307  1.0000
  C   C27       1.0  0.27200  0.16181  0.19669  1.0000
  C   C28       1.0  0.72804  0.83819  0.80331  1.0000
  C   C29       1.0  0.49860  0.17787  0.61303  1.0000
  C   C30       1.0  0.50140  0.82212  0.38697  1.0000
  C   C31       1.0  0.79098  0.06994  0.59677  1.0000
  C   C32       1.0  0.20900  0.93004  0.40323  1.0000
  C   C33       1.0  0.82769  0.14109  0.54681  1.0000
  C   C34       1.0  0.17231  0.85890  0.45319  1.0000
  C   C35       1.0  0.46671  0.04127  0.69860  1.0000
  C   C36       1.0  0.53326  0.95872  0.30139  1.0000
  N   N1        1.0  0.40626  0.63288  0.05159  1.0000
  N   N2        1.0  0.59375  0.36713  0.94842  1.0000
  N   N3        1.0  0.10115  0.11093  0.93434  1.0000
  N   N4        1.0  0.89882  0.88908  0.06567  1.0000
  N   N5        1.0  0.64344  0.20848  0.55747  1.0000
  N   N6        1.0  0.35659  0.79152  0.44253  1.0000
  N   N7        1.0  0.58104  0.09464  0.63856  1.0000
  N   N8        1.0  0.41894  0.90536  0.36144  1.0000
  O   O1        1.0  0.62694  0.50308  0.41835  1.0000
  O   O2        1.0  0.37304  0.49690  0.58164  1.0000
  O   O3        1.0  0.02116  0.53738  0.39288  1.0000
  O   O4        1.0  0.97883  0.46262  0.60711  1.0000
  O   O5        1.0  0.17931  0.60449  0.02324  1.0000
  O   O6        1.0  0.82070  0.39554  0.97677  1.0000
  O   O7        1.0  0.55115  0.68410  0.01620  1.0000
  O   O8        1.0  0.44888  0.31591  0.98380  1.0000
  O   O9        1.0  0.25069  0.25007  0.40138  1.0000
  O   O10       1.0  0.74932  0.74991  0.59862  1.0000
  O   O11       1.0  0.84826  0.26017  0.36999  1.0000
  O   O12       1.0  0.15176  0.73982  0.63001  1.0000
  O   O13       1.0  0.94309  0.13696  0.88510  1.0000
  O   O14       1.0  0.05688  0.86307  0.11492  1.0000
  O   O15       1.0  0.26092  0.05279  0.89870  1.0000
  O   O16       1.0  0.73905  0.94724  0.10130  1.0000
