data_image0
_chemical_formula_structural       Cd2H16C10N2Cl4O6
_chemical_formula_sum              "Cd2 H16 C10 N2 Cl4 O6"
_cell_length_a       7.15365
_cell_length_b       7.74711
_cell_length_c       7.98299
_cell_angle_alpha    104.197
_cell_angle_beta     89.9959
_cell_angle_gamma    90.0066

_space_group_name_H-M_alt    "P 1"
_space_group_IT_number       1

loop_
  _space_group_symop_operation_xyz
  'x, y, z'

loop_
  _atom_site_type_symbol
  _atom_site_label
  _atom_site_symmetry_multiplicity
  _atom_site_fract_x
  _atom_site_fract_y
  _atom_site_fract_z
  _atom_site_occupancy
  Cd  Cd1       1.0  0.99844  0.98840  0.99744  1.0000
  Cd  Cd2       1.0  0.49844  0.01161  0.00255  1.0000
  H   H1        1.0  0.26829  0.41765  0.11182  1.0000
  H   H2        1.0  0.76838  0.58236  0.88816  1.0000
  H   H3        1.0  0.99849  0.47749  0.29248  1.0000
  H   H4        1.0  0.49850  0.52249  0.70761  1.0000
  H   H5        1.0  0.98969  0.69844  0.26570  1.0000
  H   H6        1.0  0.48970  0.30153  0.73435  1.0000
  H   H7        1.0  0.06628  0.78399  0.55144  1.0000
  H   H8        1.0  0.56618  0.21600  0.44864  1.0000
  H   H9        1.0  0.32983  0.87983  0.41006  1.0000
  H   H10       1.0  0.82979  0.12014  0.58990  1.0000
  H   H11       1.0  0.45395  0.76713  0.54852  1.0000
  H   H12       1.0  0.95388  0.23287  0.45139  1.0000
  H   H13       1.0  0.51382  0.67585  0.21839  1.0000
  H   H14       1.0  0.01382  0.32412  0.78152  1.0000
  H   H15       1.0  0.49425  0.51731  0.32757  1.0000
  H   H16       1.0  0.99431  0.48266  0.67234  1.0000
  C   C1        1.0  0.24894  0.66592  0.03434  1.0000
  C   C2        1.0  0.74902  0.33409  0.96568  1.0000
  C   C3        1.0  0.25155  0.55910  0.17613  1.0000
  C   C4        1.0  0.75161  0.44089  0.82387  1.0000
  C   C5        1.0  0.08157  0.59647  0.29565  1.0000
  C   C6        1.0  0.58156  0.40355  0.70445  1.0000
  C   C7        1.0  0.16273  0.67647  0.48467  1.0000
  C   C8        1.0  0.66268  0.32350  0.51531  1.0000
  C   C9        1.0  0.35155  0.75238  0.44431  1.0000
  C   C10       1.0  0.85151  0.24761  0.55567  1.0000
  N   N1        1.0  0.41950  0.61904  0.28802  1.0000
  N   N2        1.0  0.91951  0.38094  0.71192  1.0000
  Cl  Cl1       1.0  0.74509  0.93141  0.21647  1.0000
  Cl  Cl2       1.0  0.24515  0.06860  0.78350  1.0000
  Cl  Cl3       1.0  0.24406  0.11539  0.24219  1.0000
  Cl  Cl4       1.0  0.74408  0.88465  0.75780  1.0000
  O   O1        1.0  0.09207  0.69251  0.97252  1.0000
  O   O2        1.0  0.59208  0.30755  0.02757  1.0000
  O   O3        1.0  0.90710  0.28263  0.00513  1.0000
  O   O4        1.0  0.40709  0.71741  0.99482  1.0000
  O   O5        1.0  0.17961  0.54609  0.56873  1.0000
  O   O6        1.0  0.67952  0.45394  0.43136  1.0000
