data_image0
_chemical_formula_structural       Eu2H42C60N8O12
_chemical_formula_sum              "Eu2 H42 C60 N8 O12"
_cell_length_a       9.19661
_cell_length_b       10.4719
_cell_length_c       14.205
_cell_angle_alpha    105.453
_cell_angle_beta     91.7309
_cell_angle_gamma    105.609

_space_group_name_H-M_alt    "P 1"
_space_group_IT_number       1

loop_
  _space_group_symop_operation_xyz
  'x, y, z'

loop_
  _atom_site_type_symbol
  _atom_site_label
  _atom_site_symmetry_multiplicity
  _atom_site_fract_x
  _atom_site_fract_y
  _atom_site_fract_z
  _atom_site_occupancy
  Eu  Eu1       1.0  0.05049  0.18468  0.09830  1.0000
  Eu  Eu2       1.0  0.94951  0.81532  0.90170  1.0000
  H   H1        1.0  0.34670  0.37253  0.32320  1.0000
  H   H2        1.0  0.65330  0.62747  0.67681  1.0000
  H   H3        1.0  0.10297  0.10209  0.31249  1.0000
  H   H4        1.0  0.89703  0.89791  0.68751  1.0000
  H   H5        1.0  0.99547  0.07985  0.46863  1.0000
  H   H6        1.0  0.00453  0.92015  0.53137  1.0000
  H   H7        1.0  0.74997  0.13813  0.50321  1.0000
  H   H8        1.0  0.25003  0.86187  0.49679  1.0000
  H   H9        1.0  0.47080  0.42458  0.18141  1.0000
  H   H10       1.0  0.52920  0.57542  0.81859  1.0000
  H   H11       1.0  0.63191  0.46992  0.04729  1.0000
  H   H12       1.0  0.36809  0.53008  0.95271  1.0000
  H   H13       1.0  0.85885  0.38176  0.02699  1.0000
  H   H14       1.0  0.14115  0.61823  0.97300  1.0000
  H   H15       1.0  0.21604  0.46378  0.44612  1.0000
  H   H16       1.0  0.78396  0.53622  0.55388  1.0000
  H   H17       1.0  0.04484  0.51326  0.57417  1.0000
  H   H18       1.0  0.95516  0.48674  0.42583  1.0000
  H   H19       1.0  0.03002  0.41062  0.71206  1.0000
  H   H20       1.0  0.96998  0.58938  0.28794  1.0000
  H   H21       1.0  0.35369  0.19869  0.59444  1.0000
  H   H22       1.0  0.64631  0.80131  0.40556  1.0000
  H   H23       1.0  0.16963  0.30753  0.81671  1.0000
  H   H24       1.0  0.83037  0.69247  0.18329  1.0000
  H   H25       1.0  0.29043  0.20883  0.76061  1.0000
  H   H26       1.0  0.70957  0.79117  0.23939  1.0000
  H   H27       1.0  0.09066  0.14087  0.73488  1.0000
  H   H28       1.0  0.90934  0.85913  0.26512  1.0000
  H   H29       1.0  0.65105  0.96691  0.70190  1.0000
  H   H30       1.0  0.34895  0.03309  0.29810  1.0000
  H   H31       1.0  0.53747  0.08708  0.60240  1.0000
  H   H32       1.0  0.46253  0.91292  0.39760  1.0000
  H   H33       1.0  0.60575  0.34269  0.64976  1.0000
  H   H34       1.0  0.39425  0.65731  0.35024  1.0000
  H   H35       1.0  0.90809  0.36098  0.89314  1.0000
  H   H36       1.0  0.09191  0.63902  0.10686  1.0000
  H   H37       1.0  0.37286  0.05826  0.82867  1.0000
  H   H38       1.0  0.62714  0.94174  0.17133  1.0000
  H   H39       1.0  0.43941  0.99963  0.92213  1.0000
  H   H40       1.0  0.56059  0.00037  0.07787  1.0000
  H   H41       1.0  0.50716  0.17900  0.92776  1.0000
  H   H42       1.0  0.49284  0.82100  0.07224  1.0000
  C   C1        1.0  0.99826  0.12841  0.33035  1.0000
  C   C2        1.0  0.00174  0.87159  0.66965  1.0000
  C   C3        1.0  0.93543  0.11345  0.41700  1.0000
  C   C4        1.0  0.06457  0.88655  0.58300  1.0000
  C   C5        1.0  0.80146  0.14599  0.43611  1.0000
  C   C6        1.0  0.19854  0.85401  0.56388  1.0000
  C   C7        1.0  0.73364  0.19625  0.36889  1.0000
  C   C8        1.0  0.26636  0.80375  0.63111  1.0000
  C   C9        1.0  0.59944  0.23982  0.38348  1.0000
  C   C10       1.0  0.40056  0.76018  0.61652  1.0000
  C   C11       1.0  0.54304  0.29813  0.31756  1.0000
  C   C12       1.0  0.45696  0.70187  0.68244  1.0000
  C   C13       1.0  0.61563  0.31996  0.23374  1.0000
  C   C14       1.0  0.38437  0.68004  0.76627  1.0000
  C   C15       1.0  0.57182  0.38963  0.17064  1.0000
  C   C16       1.0  0.42818  0.61037  0.82936  1.0000
  C   C17       1.0  0.65940  0.41350  0.09633  1.0000
  C   C18       1.0  0.34060  0.58650  0.90366  1.0000
  C   C19       1.0  0.78702  0.36416  0.08431  1.0000
  C   C20       1.0  0.21298  0.63584  0.91569  1.0000
  C   C21       1.0  0.74809  0.27421  0.21694  1.0000
  C   C22       1.0  0.25191  0.72579  0.78306  1.0000
  C   C23       1.0  0.80655  0.21149  0.28385  1.0000
  C   C24       1.0  0.19345  0.78851  0.71615  1.0000
  C   C25       1.0  0.40692  0.29877  0.44378  1.0000
  C   C26       1.0  0.59308  0.70123  0.55622  1.0000
  C   C27       1.0  0.29648  0.32674  0.51208  1.0000
  C   C28       1.0  0.70352  0.67326  0.48792  1.0000
  C   C29       1.0  0.20811  0.41520  0.50562  1.0000
  C   C30       1.0  0.79189  0.58480  0.49438  1.0000
  C   C31       1.0  0.11161  0.44270  0.57737  1.0000
  C   C32       1.0  0.88839  0.55730  0.42263  1.0000
  C   C33       1.0  0.10306  0.38484  0.65547  1.0000
  C   C34       1.0  0.89694  0.61516  0.34453  1.0000
  C   C35       1.0  0.19057  0.29645  0.66351  1.0000
  C   C36       1.0  0.80943  0.70355  0.33649  1.0000
  C   C37       1.0  0.28489  0.26741  0.59060  1.0000
  C   C38       1.0  0.71511  0.73259  0.40940  1.0000
  C   C39       1.0  0.18545  0.23587  0.74848  1.0000
  C   C40       1.0  0.81455  0.76413  0.25152  1.0000
  C   C41       1.0  0.85919  0.09128  0.86764  1.0000
  C   C42       1.0  0.14081  0.90872  0.13236  1.0000
  C   C43       1.0  0.78665  0.15668  0.80461  1.0000
  C   C44       1.0  0.21335  0.84332  0.19539  1.0000
  C   C45       1.0  0.68202  0.07943  0.72205  1.0000
  C   C46       1.0  0.31798  0.92057  0.27795  1.0000
  C   C47       1.0  0.61782  0.14726  0.66723  1.0000
  C   C48       1.0  0.38218  0.85274  0.33277  1.0000
  C   C49       1.0  0.65560  0.29182  0.69428  1.0000
  C   C50       1.0  0.34440  0.70818  0.30572  1.0000
  C   C51       1.0  0.75794  0.36931  0.77782  1.0000
  C   C52       1.0  0.24206  0.63069  0.22218  1.0000
  C   C53       1.0  0.82389  0.30057  0.83090  1.0000
  C   C54       1.0  0.17612  0.69943  0.16910  1.0000
  C   C55       1.0  0.80452  0.52373  0.81550  1.0000
  C   C56       1.0  0.19548  0.47627  0.18450  1.0000
  C   C57       1.0  0.27868  0.11293  0.96516  1.0000
  C   C58       1.0  0.72132  0.88707  0.03484  1.0000
  C   C59       1.0  0.40830  0.08747  0.90779  1.0000
  C   C60       1.0  0.59170  0.91253  0.09221  1.0000
  N   N1        1.0  0.93642  0.17507  0.26513  1.0000
  N   N2        1.0  0.06358  0.82493  0.73487  1.0000
  N   N3        1.0  0.82914  0.29469  0.14143  1.0000
  N   N4        1.0  0.17086  0.70531  0.85857  1.0000
  N   N5        1.0  0.51411  0.24036  0.46098  1.0000
  N   N6        1.0  0.48589  0.75964  0.53902  1.0000
  N   N7        1.0  0.42025  0.33467  0.35704  1.0000
  N   N8        1.0  0.57975  0.66533  0.64296  1.0000
  O   O1        1.0  0.94233  0.17379  0.94449  1.0000
  O   O2        1.0  0.05767  0.82621  0.05551  1.0000
  O   O3        1.0  0.83344  0.96006  0.84072  1.0000
  O   O4        1.0  0.16656  0.03993  0.15928  1.0000
  O   O5        1.0  0.87113  0.57698  0.90260  1.0000
  O   O6        1.0  0.12887  0.42302  0.09740  1.0000
  O   O7        1.0  0.78246  0.60043  0.76240  1.0000
  O   O8        1.0  0.21754  0.39957  0.23760  1.0000
  O   O9        1.0  0.29479  0.22636  0.03033  1.0000
  O   O10       1.0  0.70521  0.77364  0.96967  1.0000
  O   O11       1.0  0.15169  0.01689  0.94743  1.0000
  O   O12       1.0  0.84831  0.98311  0.05257  1.0000
