data_image0
_chemical_formula_structural       Ni4H36C16N4O24
_chemical_formula_sum              "Ni4 H36 C16 N4 O24"
_cell_length_a       7.69071
_cell_length_b       9.12444
_cell_length_c       10.8898
_cell_angle_alpha    89.9998
_cell_angle_beta     90.0002
_cell_angle_gamma    89.9998

_space_group_name_H-M_alt    "P 1"
_space_group_IT_number       1

loop_
  _space_group_symop_operation_xyz
  'x, y, z'

loop_
  _atom_site_type_symbol
  _atom_site_label
  _atom_site_symmetry_multiplicity
  _atom_site_fract_x
  _atom_site_fract_y
  _atom_site_fract_z
  _atom_site_occupancy
  Ni  Ni1       1.0  0.85633  0.94958  0.90037  1.0000
  Ni  Ni2       1.0  0.14367  0.55042  0.40036  1.0000
  Ni  Ni3       1.0  0.64368  0.44958  0.09964  1.0000
  Ni  Ni4       1.0  0.35632  0.05042  0.59964  1.0000
  H   H1        1.0  0.13891  0.93576  0.77283  1.0000
  H   H2        1.0  0.86111  0.56425  0.27282  1.0000
  H   H3        1.0  0.36110  0.43577  0.22718  1.0000
  H   H4        1.0  0.63891  0.06424  0.72716  1.0000
  H   H5        1.0  0.17003  0.84404  0.90049  1.0000
  H   H6        1.0  0.82998  0.65596  0.40047  1.0000
  H   H7        1.0  0.32998  0.34405  0.09951  1.0000
  H   H8        1.0  0.67001  0.15596  0.59950  1.0000
  H   H9        1.0  0.12334  0.69789  0.70072  1.0000
  H   H10       1.0  0.87668  0.80211  0.20070  1.0000
  H   H11       1.0  0.37665  0.19790  0.29929  1.0000
  H   H12       1.0  0.62333  0.30210  0.79928  1.0000
  H   H13       1.0  0.98067  0.50281  0.81908  1.0000
  H   H14       1.0  0.01934  0.99719  0.31907  1.0000
  H   H15       1.0  0.51933  0.00281  0.18094  1.0000
  H   H16       1.0  0.48063  0.49718  0.68093  1.0000
  H   H17       1.0  0.14773  0.58386  0.90246  1.0000
  H   H18       1.0  0.85227  0.91615  0.40245  1.0000
  H   H19       1.0  0.35227  0.08387  0.09754  1.0000
  H   H20       1.0  0.64771  0.41616  0.59754  1.0000
  H   H21       1.0  0.03510  0.17254  0.81348  1.0000
  H   H22       1.0  0.96489  0.32747  0.31348  1.0000
  H   H23       1.0  0.46490  0.67253  0.18652  1.0000
  H   H24       1.0  0.53510  0.82747  0.68652  1.0000
  H   H25       1.0  0.86276  0.22242  0.89142  1.0000
  H   H26       1.0  0.13724  0.27758  0.39142  1.0000
  H   H27       1.0  0.63724  0.72242  0.10858  1.0000
  H   H28       1.0  0.36276  0.77757  0.60858  1.0000
  H   H29       1.0  0.05773  0.95738  0.09196  1.0000
  H   H30       1.0  0.94229  0.54262  0.59196  1.0000
  H   H31       1.0  0.44230  0.45737  0.90804  1.0000
  H   H32       1.0  0.55769  0.04263  0.40804  1.0000
  H   H33       1.0  0.99561  0.12677  0.07222  1.0000
  H   H34       1.0  0.00439  0.37322  0.57222  1.0000
  H   H35       1.0  0.50440  0.62678  0.92777  1.0000
  H   H36       1.0  0.49558  0.87322  0.42777  1.0000
  C   C1        1.0  0.85302  0.75148  0.70489  1.0000
  C   C2        1.0  0.14699  0.74851  0.20489  1.0000
  C   C3        1.0  0.64697  0.25148  0.29513  1.0000
  C   C4        1.0  0.35303  0.24850  0.79510  1.0000
  C   C5        1.0  0.02822  0.72950  0.77101  1.0000
  C   C6        1.0  0.97179  0.77049  0.27101  1.0000
  C   C7        1.0  0.47178  0.22951  0.22899  1.0000
  C   C8        1.0  0.52822  0.27049  0.72898  1.0000
  C   C9        1.0  0.01758  0.60546  0.86466  1.0000
  C   C10       1.0  0.98242  0.89454  0.36464  1.0000
  C   C11       1.0  0.48243  0.10546  0.13536  1.0000
  C   C12       1.0  0.51756  0.39454  0.63535  1.0000
  C   C13       1.0  0.89426  0.62664  0.97210  1.0000
  C   C14       1.0  0.10575  0.87336  0.47209  1.0000
  C   C15       1.0  0.60576  0.12661  0.02791  1.0000
  C   C16       1.0  0.39424  0.37338  0.52790  1.0000
  N   N1        1.0  0.08036  0.86564  0.83334  1.0000
  N   N2        1.0  0.91965  0.63436  0.33333  1.0000
  N   N3        1.0  0.41965  0.36565  0.16666  1.0000
  N   N4        1.0  0.58035  0.13436  0.66666  1.0000
  O   O1        1.0  0.75498  0.85637  0.74163  1.0000
  O   O2        1.0  0.24502  0.64362  0.24163  1.0000
  O   O3        1.0  0.74500  0.35637  0.25839  1.0000
  O   O4        1.0  0.25498  0.14363  0.75838  1.0000
  O   O5        1.0  0.80959  0.66510  0.61956  1.0000
  O   O6        1.0  0.19044  0.83490  0.11957  1.0000
  O   O7        1.0  0.69041  0.16510  0.38045  1.0000
  O   O8        1.0  0.30959  0.33489  0.88044  1.0000
  O   O9        1.0  0.80893  0.74601  0.98722  1.0000
  O   O10       1.0  0.19107  0.75400  0.48722  1.0000
  O   O11       1.0  0.69109  0.24601  0.01279  1.0000
  O   O12       1.0  0.30891  0.25399  0.51278  1.0000
  O   O13       1.0  0.88160  0.51659  0.04323  1.0000
  O   O14       1.0  0.11841  0.98341  0.54322  1.0000
  O   O15       1.0  0.61842  0.01659  0.95680  1.0000
  O   O16       1.0  0.38159  0.48340  0.45678  1.0000
  O   O17       1.0  0.90755  0.15961  0.82434  1.0000
  O   O18       1.0  0.09245  0.34039  0.32434  1.0000
  O   O19       1.0  0.59245  0.65961  0.17566  1.0000
  O   O20       1.0  0.40755  0.84039  0.67566  1.0000
  O   O21       1.0  0.95680  0.02537  0.06922  1.0000
  O   O22       1.0  0.04322  0.47462  0.56922  1.0000
  O   O23       1.0  0.54322  0.52537  0.93078  1.0000
  O   O24       1.0  0.45677  0.97463  0.43078  1.0000
