data_image0
_chemical_formula_structural       Ni4H36C16N4O24
_chemical_formula_sum              "Ni4 H36 C16 N4 O24"
_cell_length_a       7.52977
_cell_length_b       8.78045
_cell_length_c       11.8194
_cell_angle_alpha    90.0002
_cell_angle_beta     90
_cell_angle_gamma    90.0002

_space_group_name_H-M_alt    "P 1"
_space_group_IT_number       1

loop_
  _space_group_symop_operation_xyz
  'x, y, z'

loop_
  _atom_site_type_symbol
  _atom_site_label
  _atom_site_symmetry_multiplicity
  _atom_site_fract_x
  _atom_site_fract_y
  _atom_site_fract_z
  _atom_site_occupancy
  Ni  Ni1       1.0  0.89824  0.93171  0.92408  1.0000
  Ni  Ni2       1.0  0.10176  0.56829  0.42408  1.0000
  Ni  Ni3       1.0  0.60176  0.43171  0.07593  1.0000
  Ni  Ni4       1.0  0.39824  0.06829  0.57592  1.0000
  H   H1        1.0  0.12065  0.93993  0.75785  1.0000
  H   H2        1.0  0.87935  0.56006  0.25784  1.0000
  H   H3        1.0  0.37935  0.43994  0.24216  1.0000
  H   H4        1.0  0.62066  0.06007  0.74215  1.0000
  H   H5        1.0  0.19630  0.80893  0.84367  1.0000
  H   H6        1.0  0.80369  0.69106  0.34366  1.0000
  H   H7        1.0  0.30369  0.30894  0.15634  1.0000
  H   H8        1.0  0.69631  0.19107  0.65633  1.0000
  H   H9        1.0  0.06211  0.70510  0.66636  1.0000
  H   H10       1.0  0.93788  0.79490  0.16636  1.0000
  H   H11       1.0  0.43788  0.20509  0.33364  1.0000
  H   H12       1.0  0.56212  0.29490  0.83364  1.0000
  H   H13       1.0  0.92994  0.49056  0.76078  1.0000
  H   H14       1.0  0.07006  0.00944  0.26079  1.0000
  H   H15       1.0  0.57005  0.99056  0.23921  1.0000
  H   H16       1.0  0.42994  0.50944  0.73922  1.0000
  H   H17       1.0  0.11723  0.55012  0.83719  1.0000
  H   H18       1.0  0.88276  0.94987  0.33720  1.0000
  H   H19       1.0  0.38275  0.05013  0.16280  1.0000
  H   H20       1.0  0.61724  0.44989  0.66281  1.0000
  H   H21       1.0  0.81031  0.20817  0.91894  1.0000
  H   H22       1.0  0.18970  0.29184  0.41894  1.0000
  H   H23       1.0  0.68971  0.70816  0.08106  1.0000
  H   H24       1.0  0.31030  0.79183  0.58105  1.0000
  H   H25       1.0  0.00911  0.20503  0.86911  1.0000
  H   H26       1.0  0.99090  0.29496  0.36910  1.0000
  H   H27       1.0  0.49091  0.70504  0.13090  1.0000
  H   H28       1.0  0.50911  0.79497  0.63089  1.0000
  H   H29       1.0  0.17790  0.91063  0.06238  1.0000
  H   H30       1.0  0.82209  0.58936  0.56237  1.0000
  H   H31       1.0  0.32209  0.41064  0.93763  1.0000
  H   H32       1.0  0.67790  0.08937  0.43762  1.0000
  H   H33       1.0  0.18457  0.06952  0.99270  1.0000
  H   H34       1.0  0.81543  0.43047  0.49269  1.0000
  H   H35       1.0  0.31543  0.56953  0.00731  1.0000
  H   H36       1.0  0.68457  0.93048  0.50730  1.0000
  C   C1        1.0  0.80408  0.78735  0.71579  1.0000
  C   C2        1.0  0.19592  0.71264  0.21580  1.0000
  C   C3        1.0  0.69592  0.28736  0.28419  1.0000
  C   C4        1.0  0.30408  0.21265  0.78421  1.0000
  C   C5        1.0  0.99101  0.73064  0.74518  1.0000
  C   C6        1.0  0.00899  0.76936  0.24518  1.0000
  C   C7        1.0  0.50898  0.23064  0.25482  1.0000
  C   C8        1.0  0.49102  0.26936  0.75482  1.0000
  C   C9        1.0  0.98048  0.58273  0.81432  1.0000
  C   C10       1.0  0.01952  0.91727  0.31432  1.0000
  C   C11       1.0  0.51951  0.08273  0.18568  1.0000
  C   C12       1.0  0.48049  0.41727  0.68569  1.0000
  C   C13       1.0  0.87228  0.58830  0.92334  1.0000
  C   C14       1.0  0.12772  0.91169  0.42335  1.0000
  C   C15       1.0  0.62771  0.08831  0.07665  1.0000
  C   C16       1.0  0.37228  0.41171  0.57665  1.0000
  N   N1        1.0  0.08163  0.85157  0.80970  1.0000
  N   N2        1.0  0.91837  0.64843  0.30970  1.0000
  N   N3        1.0  0.41837  0.35157  0.19030  1.0000
  N   N4        1.0  0.58164  0.14843  0.69030  1.0000
  O   O1        1.0  0.72726  0.87322  0.78722  1.0000
  O   O2        1.0  0.27275  0.62679  0.28722  1.0000
  O   O3        1.0  0.77274  0.37321  0.21278  1.0000
  O   O4        1.0  0.22726  0.12678  0.71277  1.0000
  O   O5        1.0  0.73245  0.74508  0.62273  1.0000
  O   O6        1.0  0.26756  0.75492  0.12272  1.0000
  O   O7        1.0  0.76756  0.24508  0.37727  1.0000
  O   O8        1.0  0.23245  0.25492  0.87727  1.0000
  O   O9        1.0  0.87109  0.70909  0.98404  1.0000
  O   O10       1.0  0.12890  0.79091  0.48403  1.0000
  O   O11       1.0  0.62890  0.20909  0.01596  1.0000
  O   O12       1.0  0.37111  0.29091  0.51596  1.0000
  O   O13       1.0  0.79093  0.46743  0.95061  1.0000
  O   O14       1.0  0.20906  0.03257  0.45062  1.0000
  O   O15       1.0  0.70905  0.96743  0.04938  1.0000
  O   O16       1.0  0.29094  0.53256  0.54939  1.0000
  O   O17       1.0  0.89011  0.15594  0.86437  1.0000
  O   O18       1.0  0.10991  0.34406  0.36437  1.0000
  O   O19       1.0  0.60991  0.65594  0.13564  1.0000
  O   O20       1.0  0.39011  0.84407  0.63563  1.0000
  O   O21       1.0  0.10886  0.00366  0.03910  1.0000
  O   O22       1.0  0.89113  0.49633  0.53909  1.0000
  O   O23       1.0  0.39114  0.50367  0.96092  1.0000
  O   O24       1.0  0.60886  0.99634  0.46090  1.0000
