data_image0
_chemical_formula_structural       Mn6H28C16N72O8
_chemical_formula_sum              "Mn6 H28 C16 N72 O8"
_cell_length_a       9.40917
_cell_length_b       11.6759
_cell_length_c       14.9543
_cell_angle_alpha    112.995
_cell_angle_beta     108.338
_cell_angle_gamma    89.9962

_space_group_name_H-M_alt    "P 1"
_space_group_IT_number       1

loop_
  _space_group_symop_operation_xyz
  'x, y, z'

loop_
  _atom_site_type_symbol
  _atom_site_label
  _atom_site_symmetry_multiplicity
  _atom_site_fract_x
  _atom_site_fract_y
  _atom_site_fract_z
  _atom_site_occupancy
  Mn  Mn1       1.0  1.00000  0.50000  1.00000  1.0000
  Mn  Mn2       1.0  0.50000  0.00000  0.00000  1.0000
  Mn  Mn3       1.0  0.68768  0.68783  0.37552  1.0000
  Mn  Mn4       1.0  0.81237  0.81201  0.62443  1.0000
  Mn  Mn5       1.0  0.31232  0.31217  0.62448  1.0000
  Mn  Mn6       1.0  0.18763  0.18799  0.37557  1.0000
  H   H1        1.0  0.40011  0.27530  0.21132  1.0000
  H   H2        1.0  0.81105  0.93625  0.21133  1.0000
  H   H3        1.0  0.09973  0.56390  0.78884  1.0000
  H   H4        1.0  0.68892  0.22461  0.78861  1.0000
  H   H5        1.0  0.59989  0.72470  0.78868  1.0000
  H   H6        1.0  0.18895  0.06375  0.78866  1.0000
  H   H7        1.0  0.90027  0.43610  0.21116  1.0000
  H   H8        1.0  0.31108  0.77539  0.21140  1.0000
  H   H9        1.0  0.58725  0.23594  0.35542  1.0000
  H   H10       1.0  0.76804  0.11979  0.35567  1.0000
  H   H11       1.0  0.91258  0.38034  0.64465  1.0000
  H   H12       1.0  0.73198  0.26386  0.64445  1.0000
  H   H13       1.0  0.41276  0.76406  0.64458  1.0000
  H   H14       1.0  0.23197  0.88021  0.64433  1.0000
  H   H15       1.0  0.08743  0.61966  0.35535  1.0000
  H   H16       1.0  0.26802  0.73614  0.35555  1.0000
  H   H17       1.0  0.51123  0.75031  0.50012  1.0000
  H   H18       1.0  0.98884  0.74988  0.49987  1.0000
  H   H19       1.0  0.48877  0.24969  0.49988  1.0000
  H   H20       1.0  0.01116  0.25013  0.50012  1.0000
  H   H21       1.0  0.83835  0.27184  0.99972  1.0000
  H   H22       1.0  0.16164  0.72815  0.00027  1.0000
  H   H23       1.0  0.66168  0.77221  0.00033  1.0000
  H   H24       1.0  0.33833  0.22779  0.99968  1.0000
  H   H25       1.0  0.00681  0.26360  0.00010  1.0000
  H   H26       1.0  0.99319  0.73640  0.99989  1.0000
  H   H27       1.0  0.49316  0.76346  0.99981  1.0000
  H   H28       1.0  0.50684  0.23654  0.00020  1.0000
  C   C1        1.0  0.39364  0.44927  0.20372  1.0000
  C   C2        1.0  0.80984  0.75460  0.20357  1.0000
  C   C3        1.0  0.10625  0.74549  0.79646  1.0000
  C   C4        1.0  0.69013  0.05071  0.79632  1.0000
  C   C5        1.0  0.60636  0.55073  0.79628  1.0000
  C   C6        1.0  0.19016  0.24541  0.79642  1.0000
  C   C7        1.0  0.89375  0.25451  0.20353  1.0000
  C   C8        1.0  0.30987  0.94929  0.20368  1.0000
  C   C9        1.0  0.59926  0.38682  0.31059  1.0000
  C   C10       1.0  0.71127  0.92396  0.31062  1.0000
  C   C11       1.0  0.90067  0.57611  0.68952  1.0000
  C   C12       1.0  0.78876  0.11302  0.68935  1.0000
  C   C13       1.0  0.40074  0.61317  0.68940  1.0000
  C   C14       1.0  0.28873  0.07604  0.68938  1.0000
  C   C15       1.0  0.09933  0.42389  0.31048  1.0000
  C   C16       1.0  0.21124  0.88698  0.31065  1.0000
  N   N1        1.0  0.44517  0.57214  0.23856  1.0000
  N   N2        1.0  0.79339  0.66659  0.23847  1.0000
  N   N3        1.0  0.05479  0.83347  0.76157  1.0000
  N   N4        1.0  0.70665  0.92780  0.76145  1.0000
  N   N5        1.0  0.55483  0.42786  0.76145  1.0000
  N   N6        1.0  0.20661  0.33341  0.76153  1.0000
  N   N7        1.0  0.94522  0.16653  0.23842  1.0000
  N   N8        1.0  0.29335  0.07220  0.23855  1.0000
  N   N9        1.0  0.33430  0.61472  0.18189  1.0000
  N   N10       1.0  0.84747  0.56731  0.18168  1.0000
  N   N11       1.0  0.16571  0.93271  0.81823  1.0000
  N   N12       1.0  0.65260  0.88534  0.81824  1.0000
  N   N13       1.0  0.66570  0.38528  0.81811  1.0000
  N   N14       1.0  0.15253  0.43269  0.81832  1.0000
  N   N15       1.0  0.83430  0.06729  0.18178  1.0000
  N   N16       1.0  0.34740  0.11466  0.18176  1.0000
  N   N17       1.0  0.22434  0.52090  0.11740  1.0000
  N   N18       1.0  0.89264  0.59659  0.11707  1.0000
  N   N19       1.0  0.27563  0.90343  0.88275  1.0000
  N   N20       1.0  0.60737  0.97925  0.88283  1.0000
  N   N21       1.0  0.77566  0.47910  0.88260  1.0000
  N   N22       1.0  0.10736  0.40341  0.88293  1.0000
  N   N23       1.0  0.72437  0.09657  0.11725  1.0000
  N   N24       1.0  0.39263  0.02075  0.11717  1.0000
  N   N25       1.0  0.25819  0.41418  0.12797  1.0000
  N   N26       1.0  0.86927  0.71390  0.12768  1.0000
  N   N27       1.0  0.24171  0.78616  0.87221  1.0000
  N   N28       1.0  0.63068  0.08593  0.87221  1.0000
  N   N29       1.0  0.74181  0.58582  0.87203  1.0000
  N   N30       1.0  0.13073  0.28610  0.87231  1.0000
  N   N31       1.0  0.75828  0.21384  0.12779  1.0000
  N   N32       1.0  0.36932  0.91407  0.12780  1.0000
  N   N33       1.0  0.46125  0.36469  0.23941  1.0000
  N   N34       1.0  0.77799  0.87494  0.23938  1.0000
  N   N35       1.0  0.03860  0.62518  0.76077  1.0000
  N   N36       1.0  0.72197  0.13523  0.76054  1.0000
  N   N37       1.0  0.53875  0.63532  0.76059  1.0000
  N   N38       1.0  0.22201  0.12506  0.76061  1.0000
  N   N39       1.0  0.96140  0.37482  0.23923  1.0000
  N   N40       1.0  0.27803  0.86477  0.23946  1.0000
  N   N41       1.0  0.65003  0.30388  0.35157  1.0000
  N   N42       1.0  0.70139  0.04791  0.35170  1.0000
  N   N43       1.0  0.84983  0.45214  0.64847  1.0000
  N   N44       1.0  0.79863  0.19594  0.64835  1.0000
  N   N45       1.0  0.34997  0.69612  0.64843  1.0000
  N   N46       1.0  0.29860  0.95208  0.64830  1.0000
  N   N47       1.0  0.15018  0.54786  0.35153  1.0000
  N   N48       1.0  0.20137  0.80406  0.35165  1.0000
  N   N49       1.0  0.79749  0.34620  0.41411  1.0000
  N   N50       1.0  0.61658  0.06801  0.41429  1.0000
  N   N51       1.0  0.70245  0.43193  0.58580  1.0000
  N   N52       1.0  0.88350  0.15353  0.58579  1.0000
  N   N53       1.0  0.20251  0.65380  0.58589  1.0000
  N   N54       1.0  0.38342  0.93198  0.58571  1.0000
  N   N55       1.0  0.29755  0.56807  0.41420  1.0000
  N   N56       1.0  0.11650  0.84647  0.41421  1.0000
  N   N57       1.0  0.83248  0.45121  0.41124  1.0000
  N   N58       1.0  0.57883  0.96007  0.41136  1.0000
  N   N59       1.0  0.66755  0.53983  0.58865  1.0000
  N   N60       1.0  0.92129  0.04850  0.58867  1.0000
  N   N61       1.0  0.16752  0.54879  0.58875  1.0000
  N   N62       1.0  0.42117  0.03992  0.58864  1.0000
  N   N63       1.0  0.33245  0.46017  0.41135  1.0000
  N   N64       1.0  0.07871  0.95150  0.41133  1.0000
  N   N65       1.0  0.71154  0.48154  0.34848  1.0000
  N   N66       1.0  0.63699  0.86705  0.34851  1.0000
  N   N67       1.0  0.78848  0.63293  0.65152  1.0000
  N   N68       1.0  0.86310  0.01825  0.65145  1.0000
  N   N69       1.0  0.28846  0.51846  0.65152  1.0000
  N   N70       1.0  0.36300  0.13295  0.65149  1.0000
  N   N71       1.0  0.21152  0.36707  0.34848  1.0000
  N   N72       1.0  0.13690  0.98175  0.34855  1.0000
  O   O1        1.0  0.61419  0.74998  0.50004  1.0000
  O   O2        1.0  0.88586  0.74983  0.49991  1.0000
  O   O3        1.0  0.38581  0.25002  0.49996  1.0000
  O   O4        1.0  0.11414  0.25016  0.50009  1.0000
  O   O5        1.0  0.92661  0.31639  0.99993  1.0000
  O   O6        1.0  0.07339  0.68361  0.00008  1.0000
  O   O7        1.0  0.57335  0.81648  0.00004  1.0000
  O   O8        1.0  0.42664  0.18352  0.99996  1.0000
