data_image0
_chemical_formula_structural       Mn4H12C8N36O4
_chemical_formula_sum              "Mn4 H12 C8 N36 O4"
_cell_length_a       6.41184
_cell_length_b       9.70885
_cell_length_c       10.4627
_cell_angle_alpha    89.9998
_cell_angle_beta     95.7136
_cell_angle_gamma    89.9991

_space_group_name_H-M_alt    "P 1"
_space_group_IT_number       1

loop_
  _space_group_symop_operation_xyz
  'x, y, z'

loop_
  _atom_site_type_symbol
  _atom_site_label
  _atom_site_symmetry_multiplicity
  _atom_site_fract_x
  _atom_site_fract_y
  _atom_site_fract_z
  _atom_site_occupancy
  Mn  Mn1       1.0  0.53170  0.16403  0.37025  1.0000
  Mn  Mn2       1.0  0.96830  0.66403  0.12975  1.0000
  Mn  Mn3       1.0  0.46830  0.83597  0.62975  1.0000
  Mn  Mn4       1.0  0.03170  0.33597  0.87025  1.0000
  H   H1        1.0  0.24092  0.47948  0.62861  1.0000
  H   H2        1.0  0.25908  0.97948  0.87140  1.0000
  H   H3        1.0  0.75908  0.52052  0.37139  1.0000
  H   H4        1.0  0.74092  0.02052  0.12860  1.0000
  H   H5        1.0  0.82038  0.13238  0.57843  1.0000
  H   H6        1.0  0.67962  0.63238  0.92157  1.0000
  H   H7        1.0  0.17962  0.86762  0.42157  1.0000
  H   H8        1.0  0.32038  0.36762  0.07843  1.0000
  H   H9        1.0  0.82423  0.28715  0.53610  1.0000
  H   H10       1.0  0.67577  0.78715  0.96390  1.0000
  H   H11       1.0  0.17577  0.71285  0.46390  1.0000
  H   H12       1.0  0.32423  0.21285  0.03610  1.0000
  C   C1        1.0  0.28951  0.27150  0.60973  1.0000
  C   C2        1.0  0.21050  0.77150  0.89027  1.0000
  C   C3        1.0  0.71049  0.72850  0.39027  1.0000
  C   C4        1.0  0.78951  0.22850  0.10973  1.0000
  C   C5        1.0  0.27364  0.43787  0.43770  1.0000
  C   C6        1.0  0.22636  0.93787  0.06230  1.0000
  C   C7        1.0  0.72636  0.56213  0.56230  1.0000
  C   C8        1.0  0.77363  0.06213  0.93770  1.0000
  N   N1        1.0  0.36425  0.16152  0.55019  1.0000
  N   N2        1.0  0.13576  0.66152  0.94981  1.0000
  N   N3        1.0  0.63575  0.83849  0.44981  1.0000
  N   N4        1.0  0.86424  0.33848  0.05019  1.0000
  N   N5        1.0  0.35346  0.05719  0.63514  1.0000
  N   N6        1.0  0.14654  0.55719  0.86486  1.0000
  N   N7        1.0  0.64654  0.94281  0.36486  1.0000
  N   N8        1.0  0.85346  0.44281  0.13514  1.0000
  N   N9        1.0  0.27804  0.10168  0.73890  1.0000
  N   N10       1.0  0.22196  0.60169  0.76110  1.0000
  N   N11       1.0  0.72196  0.89832  0.26111  1.0000
  N   N12       1.0  0.77804  0.39831  0.23890  1.0000
  N   N13       1.0  0.23190  0.23659  0.72603  1.0000
  N   N14       1.0  0.26811  0.73659  0.77397  1.0000
  N   N15       1.0  0.76810  0.76341  0.27397  1.0000
  N   N16       1.0  0.73189  0.26341  0.22603  1.0000
  N   N17       1.0  0.27392  0.40276  0.56396  1.0000
  N   N18       1.0  0.22609  0.90276  0.93604  1.0000
  N   N19       1.0  0.72608  0.59724  0.43605  1.0000
  N   N20       1.0  0.77391  0.09724  0.06396  1.0000
  N   N21       1.0  0.34730  0.36101  0.34460  1.0000
  N   N22       1.0  0.15270  0.86101  0.15540  1.0000
  N   N23       1.0  0.65270  0.63899  0.65541  1.0000
  N   N24       1.0  0.84730  0.13899  0.84460  1.0000
  N   N25       1.0  0.31200  0.43776  0.23663  1.0000
  N   N26       1.0  0.18800  0.93776  0.26337  1.0000
  N   N27       1.0  0.68800  0.56224  0.76337  1.0000
  N   N28       1.0  0.81200  0.06224  0.73663  1.0000
  N   N29       1.0  0.22532  0.55464  0.26480  1.0000
  N   N30       1.0  0.27468  0.05464  0.23520  1.0000
  N   N31       1.0  0.77468  0.44536  0.73520  1.0000
  N   N32       1.0  0.72532  0.94536  0.76480  1.0000
  N   N33       1.0  0.19828  0.55868  0.39099  1.0000
  N   N34       1.0  0.30171  0.05868  0.10901  1.0000
  N   N35       1.0  0.80172  0.44132  0.60901  1.0000
  N   N36       1.0  0.69828  0.94132  0.89099  1.0000
  O   O1        1.0  0.81540  0.19105  0.49970  1.0000
  O   O2        1.0  0.68460  0.69106  0.00030  1.0000
  O   O3        1.0  0.18460  0.80895  0.50030  1.0000
  O   O4        1.0  0.31540  0.30894  0.99970  1.0000
