data_image0
_chemical_formula_structural       Li4P2H48C44S4O18F6
_chemical_formula_sum              "Li4 P2 H48 C44 S4 O18 F6"
_cell_length_a       10.0751
_cell_length_b       10.7492
_cell_length_c       13.1228
_cell_angle_alpha    104.792
_cell_angle_beta     91.9537
_cell_angle_gamma    109.185

_space_group_name_H-M_alt    "P 1"
_space_group_IT_number       1

loop_
  _space_group_symop_operation_xyz
  'x, y, z'

loop_
  _atom_site_type_symbol
  _atom_site_label
  _atom_site_symmetry_multiplicity
  _atom_site_fract_x
  _atom_site_fract_y
  _atom_site_fract_z
  _atom_site_occupancy
  Li  Li1       1.0  0.32892  0.28859  0.45499  1.0000
  Li  Li2       1.0  0.67108  0.71141  0.54501  1.0000
  Li  Li3       1.0  0.89476  0.27878  0.46819  1.0000
  Li  Li4       1.0  0.10524  0.72122  0.53181  1.0000
  P   P1        1.0  0.42193  0.48831  0.71957  1.0000
  P   P2        1.0  0.57807  0.51169  0.28043  1.0000
  H   H1        1.0  0.08010  0.45090  0.40858  1.0000
  H   H2        1.0  0.91990  0.54910  0.59142  1.0000
  H   H3        1.0  0.84101  0.02285  0.41007  1.0000
  H   H4        1.0  0.15899  0.97715  0.58993  1.0000
  H   H5        1.0  0.95641  0.18485  0.78533  1.0000
  H   H6        1.0  0.04359  0.81515  0.21467  1.0000
  H   H7        1.0  0.97062  0.32352  0.97246  1.0000
  H   H8        1.0  0.02938  0.67648  0.02753  1.0000
  H   H9        1.0  0.18059  0.53832  0.04812  1.0000
  H   H10       1.0  0.81941  0.46168  0.95188  1.0000
  H   H11       1.0  0.37258  0.60591  0.94144  1.0000
  H   H12       1.0  0.62742  0.39409  0.05856  1.0000
  H   H13       1.0  0.43003  0.76208  0.74338  1.0000
  H   H14       1.0  0.56997  0.23792  0.25662  1.0000
  H   H15       1.0  0.55766  0.98717  0.87267  1.0000
  H   H16       1.0  0.44234  0.01283  0.12733  1.0000
  H   H17       1.0  0.79470  0.80126  0.02681  1.0000
  H   H18       1.0  0.20530  0.19874  0.97319  1.0000
  H   H19       1.0  0.66150  0.57580  0.90101  1.0000
  H   H20       1.0  0.33850  0.42420  0.09899  1.0000
  H   H21       1.0  0.42186  0.34005  0.88124  1.0000
  H   H22       1.0  0.57814  0.65995  0.11876  1.0000
  H   H23       1.0  0.54863  0.19244  0.91458  1.0000
  H   H24       1.0  0.45137  0.80756  0.08542  1.0000
  H   H25       1.0  0.72314  0.13935  0.79440  1.0000
  H   H26       1.0  0.27686  0.86065  0.20560  1.0000
  H   H27       1.0  0.76829  0.24058  0.64315  1.0000
  H   H28       1.0  0.23171  0.75942  0.35685  1.0000
  H   H29       1.0  0.01407  0.36134  0.21268  1.0000
  H   H30       1.0  0.98593  0.63866  0.78732  1.0000
  H   H31       1.0  0.95778  0.49682  0.28592  1.0000
  H   H32       1.0  0.04222  0.50318  0.71408  1.0000
  H   H33       1.0  0.83923  0.32314  0.24957  1.0000
  H   H34       1.0  0.16077  0.67686  0.75043  1.0000
  H   H35       1.0  0.61126  0.95193  0.31581  1.0000
  H   H36       1.0  0.38874  0.04807  0.68419  1.0000
  H   H37       1.0  0.58823  0.09267  0.41162  1.0000
  H   H38       1.0  0.41177  0.90733  0.58838  1.0000
  H   H39       1.0  0.60296  0.94952  0.45110  1.0000
  H   H40       1.0  0.39704  0.05048  0.54890  1.0000
  H   H41       1.0  0.13395  0.04946  0.37759  1.0000
  H   H42       1.0  0.86605  0.95054  0.62241  1.0000
  H   H43       1.0  0.10775  0.03549  0.19026  1.0000
  H   H44       1.0  0.89225  0.96451  0.80974  1.0000
  H   H45       1.0  0.18325  0.21841  0.23797  1.0000
  H   H46       1.0  0.81675  0.78159  0.76203  1.0000
  H   H47       1.0  0.01740  0.13045  0.27522  1.0000
  H   H48       1.0  0.98260  0.86955  0.72478  1.0000
  C   C1        1.0  0.27640  0.43714  0.80079  1.0000
  C   C2        1.0  0.72360  0.56286  0.19921  1.0000
  C   C3        1.0  0.15470  0.31918  0.75888  1.0000
  C   C4        1.0  0.84531  0.68082  0.24112  1.0000
  C   C5        1.0  0.04670  0.27835  0.82044  1.0000
  C   C6        1.0  0.95330  0.72165  0.17956  1.0000
  C   C7        1.0  0.05478  0.35604  0.92473  1.0000
  C   C8        1.0  0.94522  0.64396  0.07527  1.0000
  C   C9        1.0  0.17194  0.47555  0.96679  1.0000
  C   C10       1.0  0.82806  0.52445  0.03321  1.0000
  C   C11       1.0  0.28077  0.51420  0.90579  1.0000
  C   C12       1.0  0.71923  0.48580  0.09421  1.0000
  C   C13       1.0  0.53343  0.65196  0.81477  1.0000
  C   C14       1.0  0.46657  0.34804  0.18523  1.0000
  C   C15       1.0  0.50787  0.77001  0.80688  1.0000
  C   C16       1.0  0.49213  0.22999  0.19312  1.0000
  C   C17       1.0  0.58096  0.89744  0.87918  1.0000
  C   C18       1.0  0.41904  0.10256  0.12082  1.0000
  C   C19       1.0  0.68349  0.90888  0.95893  1.0000
  C   C20       1.0  0.31651  0.09112  0.04107  1.0000
  C   C21       1.0  0.71347  0.79273  0.96571  1.0000
  C   C22       1.0  0.28653  0.20727  0.03429  1.0000
  C   C23       1.0  0.63857  0.66564  0.89411  1.0000
  C   C24       1.0  0.36143  0.33436  0.10589  1.0000
  C   C25       1.0  0.76384  0.04376  0.03868  1.0000
  C   C26       1.0  0.23616  0.95624  0.96132  1.0000
  C   C27       1.0  0.51938  0.37611  0.74272  1.0000
  C   C28       1.0  0.48062  0.62389  0.25728  1.0000
  C   C29       1.0  0.49722  0.31858  0.82809  1.0000
  C   C30       1.0  0.50279  0.68142  0.17191  1.0000
  C   C31       1.0  0.56957  0.23473  0.84724  1.0000
  C   C32       1.0  0.43043  0.76527  0.15276  1.0000
  C   C33       1.0  0.66741  0.20625  0.78097  1.0000
  C   C34       1.0  0.33260  0.79375  0.21903  1.0000
  C   C35       1.0  0.69208  0.26207  0.69550  1.0000
  C   C36       1.0  0.30792  0.73793  0.30450  1.0000
  C   C37       1.0  0.61859  0.34580  0.67653  1.0000
  C   C38       1.0  0.38141  0.65421  0.32347  1.0000
  C   C39       1.0  0.95023  0.38990  0.27519  1.0000
  C   C40       1.0  0.04977  0.61009  0.72481  1.0000
  C   C41       1.0  0.63994  0.01566  0.39876  1.0000
  C   C42       1.0  0.36006  0.98434  0.60124  1.0000
  C   C43       1.0  0.12172  0.12533  0.25834  1.0000
  C   C44       1.0  0.87828  0.87467  0.74166  1.0000
  S   S1        1.0  0.12040  0.22209  0.62231  1.0000
  S   S2        1.0  0.87960  0.77791  0.37769  1.0000
  S   S3        1.0  0.64881  0.40536  0.56089  1.0000
  S   S4        1.0  0.35119  0.59464  0.43911  1.0000
  O   O1        1.0  0.03794  0.28548  0.57245  1.0000
  O   O2        1.0  0.96206  0.71452  0.42755  1.0000
  O   O3        1.0  0.04124  0.07874  0.61946  1.0000
  O   O4        1.0  0.95876  0.92125  0.38054  1.0000
  O   O5        1.0  0.25806  0.23628  0.58333  1.0000
  O   O6        1.0  0.74194  0.76372  0.41667  1.0000
  O   O7        1.0  0.52969  0.31417  0.47965  1.0000
  O   O8        1.0  0.47031  0.68583  0.52035  1.0000
  O   O9        1.0  0.66065  0.54993  0.59349  1.0000
  O   O10       1.0  0.33935  0.45007  0.40651  1.0000
  O   O11       1.0  0.78434  0.39092  0.53109  1.0000
  O   O12       1.0  0.21566  0.60908  0.46890  1.0000
  O   O13       1.0  0.99513  0.37084  0.37276  1.0000
  O   O14       1.0  0.00487  0.62916  0.62724  1.0000
  O   O15       1.0  0.78978  0.08824  0.42221  1.0000
  O   O16       1.0  0.21022  0.91176  0.57779  1.0000
  O   O17       1.0  0.19951  0.12000  0.35008  1.0000
  O   O18       1.0  0.80049  0.88000  0.64992  1.0000
  F   F1        1.0  0.73417  0.15160  0.01883  1.0000
  F   F2        1.0  0.26583  0.84840  0.98117  1.0000
  F   F3        1.0  0.90774  0.07662  0.04185  1.0000
  F   F4        1.0  0.09226  0.92338  0.95815  1.0000
  F   F5        1.0  0.73475  0.04336  0.14013  1.0000
  F   F6        1.0  0.26525  0.95664  0.85987  1.0000
