data_image0
_chemical_formula_structural       Ag4H48C26S6N12O8
_chemical_formula_sum              "Ag4 H48 C26 S6 N12 O8"
_cell_length_a       8.10718
_cell_length_b       8.12286
_cell_length_c       16.965
_cell_angle_alpha    84.1045
_cell_angle_beta     84.093
_cell_angle_gamma    66.6475

_space_group_name_H-M_alt    "P 1"
_space_group_IT_number       1

loop_
  _space_group_symop_operation_xyz
  'x, y, z'

loop_
  _atom_site_type_symbol
  _atom_site_label
  _atom_site_symmetry_multiplicity
  _atom_site_fract_x
  _atom_site_fract_y
  _atom_site_fract_z
  _atom_site_occupancy
  Ag  Ag1       1.0  0.21367  0.16565  0.73845  1.0000
  Ag  Ag2       1.0  0.83396  0.78497  0.76152  1.0000
  Ag  Ag3       1.0  0.78633  0.83436  0.26155  1.0000
  Ag  Ag4       1.0  0.16604  0.21503  0.23848  1.0000
  H   H1        1.0  0.36676  0.79741  0.84402  1.0000
  H   H2        1.0  0.20271  0.63302  0.65599  1.0000
  H   H3        1.0  0.63324  0.20259  0.15598  1.0000
  H   H4        1.0  0.79729  0.36699  0.34401  1.0000
  H   H5        1.0  0.85560  0.83576  0.57596  1.0000
  H   H6        1.0  0.16347  0.14406  0.92350  1.0000
  H   H7        1.0  0.14440  0.16424  0.42404  1.0000
  H   H8        1.0  0.83654  0.85594  0.07650  1.0000
  H   H9        1.0  0.37381  0.27588  0.58110  1.0000
  H   H10       1.0  0.72457  0.62683  0.91938  1.0000
  H   H11       1.0  0.62618  0.72412  0.41890  1.0000
  H   H12       1.0  0.27543  0.37317  0.08062  1.0000
  H   H13       1.0  0.57037  0.45428  0.83289  1.0000
  H   H14       1.0  0.54602  0.42870  0.66780  1.0000
  H   H15       1.0  0.42963  0.54573  0.16711  1.0000
  H   H16       1.0  0.45398  0.57131  0.33220  1.0000
  H   H17       1.0  0.63486  0.58807  0.75674  1.0000
  H   H18       1.0  0.41083  0.36568  0.74385  1.0000
  H   H19       1.0  0.36514  0.41194  0.24326  1.0000
  H   H20       1.0  0.58917  0.63433  0.25615  1.0000
  H   H21       1.0  0.79015  0.97636  0.43192  1.0000
  H   H22       1.0  0.02369  0.20856  0.06756  1.0000
  H   H23       1.0  0.20984  0.02363  0.56808  1.0000
  H   H24       1.0  0.97632  0.79144  0.93244  1.0000
  H   H25       1.0  0.88184  0.10300  0.47969  1.0000
  H   H26       1.0  0.89515  0.11869  0.01991  1.0000
  H   H27       1.0  0.11815  0.89700  0.52031  1.0000
  H   H28       1.0  0.10486  0.88130  0.98009  1.0000
  H   H29       1.0  0.60551  0.35016  0.47176  1.0000
  H   H30       1.0  0.64878  0.39524  0.02802  1.0000
  H   H31       1.0  0.39448  0.64984  0.52824  1.0000
  H   H32       1.0  0.35122  0.60476  0.97198  1.0000
  H   H33       1.0  0.49875  0.21694  0.44003  1.0000
  H   H34       1.0  0.78319  0.49988  0.06047  1.0000
  H   H35       1.0  0.50124  0.78305  0.55997  1.0000
  H   H36       1.0  0.21681  0.50012  0.93953  1.0000
  H   H37       1.0  0.73053  0.59859  0.62338  1.0000
  H   H38       1.0  0.40205  0.26870  0.87662  1.0000
  H   H39       1.0  0.26946  0.40142  0.37662  1.0000
  H   H40       1.0  0.59795  0.73129  0.12338  1.0000
  H   H41       1.0  0.83590  0.35680  0.63594  1.0000
  H   H42       1.0  0.64429  0.16309  0.86389  1.0000
  H   H43       1.0  0.16409  0.64321  0.36406  1.0000
  H   H44       1.0  0.35571  0.83691  0.13611  1.0000
  H   H45       1.0  0.81271  0.46591  0.53923  1.0000
  H   H46       1.0  0.53524  0.18653  0.96068  1.0000
  H   H47       1.0  0.18728  0.53410  0.46078  1.0000
  H   H48       1.0  0.46477  0.81346  0.03932  1.0000
  C   C1        1.0  0.24297  0.75687  0.74999  1.0000
  C   C2        1.0  0.75703  0.24313  0.25001  1.0000
  C   C3        1.0  0.52314  0.54946  0.78163  1.0000
  C   C4        1.0  0.45027  0.47660  0.71888  1.0000
  C   C5        1.0  0.47686  0.45054  0.21837  1.0000
  C   C6        1.0  0.54973  0.52341  0.28112  1.0000
  C   C7        1.0  0.76937  0.05949  0.48205  1.0000
  C   C8        1.0  0.93973  0.23024  0.01760  1.0000
  C   C9        1.0  0.23063  0.94051  0.51795  1.0000
  C   C10       1.0  0.06028  0.76976  0.98239  1.0000
  C   C11       1.0  0.58724  0.22274  0.48360  1.0000
  C   C12       1.0  0.77690  0.41268  0.01647  1.0000
  C   C13       1.0  0.41275  0.77725  0.51640  1.0000
  C   C14       1.0  0.22310  0.58732  0.98353  1.0000
  C   C15       1.0  0.60787  0.04943  0.60204  1.0000
  C   C16       1.0  0.95024  0.39229  0.89791  1.0000
  C   C17       1.0  0.39213  0.95057  0.39796  1.0000
  C   C18       1.0  0.04977  0.60771  0.10209  1.0000
  C   C19       1.0  0.02044  0.48462  0.60078  1.0000
  C   C20       1.0  0.51582  0.97937  0.89926  1.0000
  C   C21       1.0  0.97955  0.51539  0.39922  1.0000
  C   C22       1.0  0.48419  0.02063  0.10074  1.0000
  C   C23       1.0  0.83703  0.47730  0.60062  1.0000
  C   C24       1.0  0.52354  0.16231  0.89933  1.0000
  C   C25       1.0  0.16296  0.52271  0.39939  1.0000
  C   C26       1.0  0.47647  0.83769  0.10067  1.0000
  S   S1        1.0  0.05068  0.94889  0.74983  1.0000
  S   S2        1.0  0.94932  0.05111  0.25017  1.0000
  S   S3        1.0  0.54509  0.97152  0.69353  1.0000
  S   S4        1.0  0.02853  0.45475  0.80644  1.0000
  S   S5        1.0  0.45490  0.02848  0.30647  1.0000
  S   S6        1.0  0.97148  0.54525  0.19356  1.0000
  N   N1        1.0  0.36573  0.70871  0.80425  1.0000
  N   N2        1.0  0.29135  0.63399  0.69587  1.0000
  N   N3        1.0  0.63427  0.29129  0.19575  1.0000
  N   N4        1.0  0.70865  0.36601  0.30413  1.0000
  N   N5        1.0  0.75646  0.95871  0.55779  1.0000
  N   N6        1.0  0.04032  0.24295  0.94174  1.0000
  N   N7        1.0  0.24353  0.04130  0.44221  1.0000
  N   N8        1.0  0.95968  0.75705  0.05826  1.0000
  N   N9        1.0  0.51068  0.20789  0.56495  1.0000
  N   N10       1.0  0.79233  0.49010  0.93538  1.0000
  N   N11       1.0  0.48931  0.79211  0.43505  1.0000
  N   N12       1.0  0.20768  0.50989  0.06462  1.0000
  O   O1        1.0  0.15562  0.33532  0.60359  1.0000
  O   O2        1.0  0.66532  0.84427  0.89676  1.0000
  O   O3        1.0  0.84437  0.66468  0.39641  1.0000
  O   O4        1.0  0.33468  0.15572  0.10324  1.0000
  O   O5        1.0  0.03303  0.63729  0.59737  1.0000
  O   O6        1.0  0.36277  0.96707  0.90242  1.0000
  O   O7        1.0  0.96697  0.36272  0.40263  1.0000
  O   O8        1.0  0.63723  0.03292  0.09758  1.0000
