data_image0
_chemical_formula_structural       Ag4H24C12S4N8Cl4
_chemical_formula_sum              "Ag4 H24 C12 S4 N8 Cl4"
_cell_length_a       7.99303
_cell_length_b       7.93364
_cell_length_c       10.4572
_cell_angle_alpha    89.9999
_cell_angle_beta     90
_cell_angle_gamma    89.9999

_space_group_name_H-M_alt    "P 1"
_space_group_IT_number       1

loop_
  _space_group_symop_operation_xyz
  'x, y, z'

loop_
  _atom_site_type_symbol
  _atom_site_label
  _atom_site_symmetry_multiplicity
  _atom_site_fract_x
  _atom_site_fract_y
  _atom_site_fract_z
  _atom_site_occupancy
  Ag  Ag1       1.0  0.06106  0.75189  0.64454  1.0000
  Ag  Ag2       1.0  0.43894  0.24811  0.14455  1.0000
  Ag  Ag3       1.0  0.56106  0.74811  0.35545  1.0000
  Ag  Ag4       1.0  0.93894  0.25189  0.85545  1.0000
  H   H1        1.0  0.33283  0.95791  0.53827  1.0000
  H   H2        1.0  0.16717  0.04209  0.03827  1.0000
  H   H3        1.0  0.83283  0.54209  0.46173  1.0000
  H   H4        1.0  0.66717  0.45791  0.96173  1.0000
  H   H5        1.0  0.30803  0.31522  0.81654  1.0000
  H   H6        1.0  0.19197  0.68478  0.31654  1.0000
  H   H7        1.0  0.80803  0.18478  0.18346  1.0000
  H   H8        1.0  0.69197  0.81522  0.68346  1.0000
  H   H9        1.0  0.44277  0.25518  0.46196  1.0000
  H   H10       1.0  0.05723  0.74482  0.96196  1.0000
  H   H11       1.0  0.94277  0.24482  0.53804  1.0000
  H   H12       1.0  0.55724  0.75518  0.03804  1.0000
  H   H13       1.0  0.60923  0.12717  0.52331  1.0000
  H   H14       1.0  0.89077  0.87283  0.02331  1.0000
  H   H15       1.0  0.10923  0.37283  0.47669  1.0000
  H   H16       1.0  0.39078  0.62717  0.97669  1.0000
  H   H17       1.0  0.60400  0.27143  0.72777  1.0000
  H   H18       1.0  0.89600  0.72857  0.22777  1.0000
  H   H19       1.0  0.10400  0.22857  0.27223  1.0000
  H   H20       1.0  0.39600  0.77143  0.77223  1.0000
  H   H21       1.0  0.50790  0.43759  0.63675  1.0000
  H   H22       1.0  0.99210  0.56241  0.13675  1.0000
  H   H23       1.0  0.00790  0.06240  0.36325  1.0000
  H   H24       1.0  0.49210  0.93759  0.86325  1.0000
  C   C1        1.0  0.48976  0.18770  0.54675  1.0000
  C   C2        1.0  0.01024  0.81231  0.04675  1.0000
  C   C3        1.0  0.98976  0.31230  0.45325  1.0000
  C   C4        1.0  0.51024  0.68770  0.95325  1.0000
  C   C5        1.0  0.49930  0.30452  0.66401  1.0000
  C   C6        1.0  0.00070  0.69548  0.16401  1.0000
  C   C7        1.0  0.99930  0.19548  0.33599  1.0000
  C   C8        1.0  0.50070  0.80452  0.83599  1.0000
  C   C9        1.0  0.27681  0.12110  0.68805  1.0000
  C   C10       1.0  0.22319  0.87890  0.18805  1.0000
  C   C11       1.0  0.77681  0.37890  0.31195  1.0000
  C   C12       1.0  0.72319  0.62110  0.81195  1.0000
  S   S1        1.0  0.10923  0.02185  0.75643  1.0000
  S   S2        1.0  0.39077  0.97815  0.25642  1.0000
  S   S3        1.0  0.60923  0.47815  0.24358  1.0000
  S   S4        1.0  0.89077  0.52185  0.74357  1.0000
  N   N1        1.0  0.36651  0.06220  0.58941  1.0000
  N   N2        1.0  0.13349  0.93780  0.08941  1.0000
  N   N3        1.0  0.86651  0.43780  0.41059  1.0000
  N   N4        1.0  0.63349  0.56220  0.91058  1.0000
  N   N5        1.0  0.33948  0.26902  0.72789  1.0000
  N   N6        1.0  0.16052  0.73099  0.22789  1.0000
  N   N7        1.0  0.83948  0.23099  0.27211  1.0000
  N   N8        1.0  0.66052  0.76902  0.77211  1.0000
  Cl  Cl1       1.0  0.30077  0.64679  0.51090  1.0000
  Cl  Cl2       1.0  0.19923  0.35321  0.01090  1.0000
  Cl  Cl3       1.0  0.80077  0.85321  0.48910  1.0000
  Cl  Cl4       1.0  0.69923  0.14679  0.98910  1.0000
