data_image0
_chemical_formula_structural       Tb2H30C30N2O16
_chemical_formula_sum              "Tb2 H30 C30 N2 O16"
_cell_length_a       8.33636
_cell_length_b       10.2927
_cell_length_c       11.0859
_cell_angle_alpha    65.8197
_cell_angle_beta     70.8262
_cell_angle_gamma    79.6011

_space_group_name_H-M_alt    "P 1"
_space_group_IT_number       1

loop_
  _space_group_symop_operation_xyz
  'x, y, z'

loop_
  _atom_site_type_symbol
  _atom_site_label
  _atom_site_symmetry_multiplicity
  _atom_site_fract_x
  _atom_site_fract_y
  _atom_site_fract_z
  _atom_site_occupancy
  Tb  Tb1       1.0  0.14647  0.93950  0.15055  1.0000
  Tb  Tb2       1.0  0.85353  0.06050  0.84945  1.0000
  H   H1        1.0  0.40213  0.09457  0.88102  1.0000
  H   H2        1.0  0.59786  0.90543  0.11898  1.0000
  H   H3        1.0  0.46187  0.93677  0.92085  1.0000
  H   H4        1.0  0.53813  0.06323  0.07915  1.0000
  H   H5        1.0  0.19915  0.57803  0.58432  1.0000
  H   H6        1.0  0.80086  0.42196  0.41568  1.0000
  H   H7        1.0  0.66030  0.62378  0.25408  1.0000
  H   H8        1.0  0.33970  0.37622  0.74591  1.0000
  H   H9        1.0  0.05530  0.73549  0.80474  1.0000
  H   H10       1.0  0.94470  0.26451  0.19525  1.0000
  H   H11       1.0  0.99547  0.47717  0.23277  1.0000
  H   H12       1.0  0.00453  0.52283  0.76723  1.0000
  H   H13       1.0  0.55816  0.83512  0.37664  1.0000
  H   H14       1.0  0.44184  0.16488  0.62336  1.0000
  H   H15       1.0  0.73924  0.13026  0.47854  1.0000
  H   H16       1.0  0.26076  0.86974  0.52146  1.0000
  H   H17       1.0  0.14492  0.15497  0.32195  1.0000
  H   H18       1.0  0.85507  0.84503  0.67805  1.0000
  H   H19       1.0  0.51261  0.31746  0.02565  1.0000
  H   H20       1.0  0.48739  0.68254  0.97435  1.0000
  H   H21       1.0  0.61683  0.22408  0.15671  1.0000
  H   H22       1.0  0.38317  0.77592  0.84329  1.0000
  H   H23       1.0  0.55846  0.40939  0.11640  1.0000
  H   H24       1.0  0.44154  0.59060  0.88361  1.0000
  H   H25       1.0  0.17527  0.31195  0.39766  1.0000
  H   H26       1.0  0.82473  0.68805  0.60234  1.0000
  H   H27       1.0  0.27313  0.46793  0.26019  1.0000
  H   H28       1.0  0.72687  0.53207  0.73981  1.0000
  H   H29       1.0  0.38874  0.34286  0.37453  1.0000
  H   H30       1.0  0.61126  0.65714  0.62547  1.0000
  C   C1        1.0  0.42096  0.61167  0.41112  1.0000
  C   C2        1.0  0.57904  0.38833  0.58888  1.0000
  C   C3        1.0  0.33096  0.54232  0.54947  1.0000
  C   C4        1.0  0.66904  0.45768  0.45053  1.0000
  C   C5        1.0  0.59093  0.56878  0.36161  1.0000
  C   C6        1.0  0.40907  0.43121  0.63839  1.0000
  C   C7        1.0  0.33451  0.73266  0.31908  1.0000
  C   C8        1.0  0.66549  0.26734  0.68092  1.0000
  C   C9        1.0  0.02582  0.61797  0.02170  1.0000
  C   C10       1.0  0.97418  0.38203  0.97830  1.0000
  C   C11       1.0  0.02950  0.63229  0.88963  1.0000
  C   C12       1.0  0.97050  0.36771  0.11036  1.0000
  C   C13       1.0  0.99711  0.48557  0.13123  1.0000
  C   C14       1.0  0.00290  0.51444  0.86876  1.0000
  C   C15       1.0  0.05560  0.74240  0.04639  1.0000
  C   C16       1.0  0.94440  0.25760  0.95360  1.0000
  C   C17       1.0  0.66321  0.98062  0.41943  1.0000
  C   C18       1.0  0.33679  0.01938  0.58057  1.0000
  C   C19       1.0  0.52951  0.90687  0.43150  1.0000
  C   C20       1.0  0.47049  0.09313  0.56849  1.0000
  C   C21       1.0  0.63361  0.07449  0.48799  1.0000
  C   C22       1.0  0.36639  0.92552  0.51201  1.0000
  C   C23       1.0  0.83672  0.95846  0.33268  1.0000
  C   C24       1.0  0.16328  0.04154  0.66732  1.0000
  C   C25       1.0  0.26616  0.17504  0.23994  1.0000
  C   C26       1.0  0.73383  0.82496  0.76007  1.0000
  C   C27       1.0  0.52042  0.30861  0.12564  1.0000
  C   C28       1.0  0.47958  0.69139  0.87436  1.0000
  C   C29       1.0  0.29462  0.35432  0.32058  1.0000
  C   C30       1.0  0.70538  0.64568  0.67942  1.0000
  N   N1        1.0  0.35591  0.27526  0.22943  1.0000
  N   N2        1.0  0.64409  0.72474  0.77057  1.0000
  O   O1        1.0  0.41498  0.79686  0.19187  1.0000
  O   O2        1.0  0.58502  0.20315  0.80813  1.0000
  O   O3        1.0  0.18132  0.77138  0.36817  1.0000
  O   O4        1.0  0.81868  0.22862  0.63183  1.0000
  O   O5        1.0  0.14483  0.72041  0.12723  1.0000
  O   O6        1.0  0.85517  0.27959  0.87277  1.0000
  O   O7        1.0  0.99309  0.86619  0.98634  1.0000
  O   O8        1.0  0.00691  0.13381  0.01366  1.0000
  O   O9        1.0  0.95596  0.03488  0.31261  1.0000
  O   O10       1.0  0.04404  0.96512  0.68739  1.0000
  O   O11       1.0  0.86425  0.86629  0.27778  1.0000
  O   O12       1.0  0.13575  0.13371  0.72222  1.0000
  O   O13       1.0  0.31276  0.10528  0.16163  1.0000
  O   O14       1.0  0.68724  0.89472  0.83838  1.0000
  O   O15       1.0  0.35687  0.99835  0.93245  1.0000
  O   O16       1.0  0.64313  0.00165  0.06755  1.0000
