data_image0
_chemical_formula_structural       Cd2H36C40N8O8
_chemical_formula_sum              "Cd2 H36 C40 N8 O8"
_cell_length_a       8.16023
_cell_length_b       8.16022
_cell_length_c       14.0758
_cell_angle_alpha    90.8163
_cell_angle_beta     90.8166
_cell_angle_gamma    90.5921

_space_group_name_H-M_alt    "P 1"
_space_group_IT_number       1

loop_
  _space_group_symop_operation_xyz
  'x, y, z'

loop_
  _atom_site_type_symbol
  _atom_site_label
  _atom_site_symmetry_multiplicity
  _atom_site_fract_x
  _atom_site_fract_y
  _atom_site_fract_z
  _atom_site_occupancy
  Cd  Cd1       1.0  0.79660  0.20339  0.75000  1.0000
  Cd  Cd2       1.0  0.20339  0.79661  0.25000  1.0000
  H   H1        1.0  0.81987  0.70640  0.38805  1.0000
  H   H2        1.0  0.29361  0.18014  0.11195  1.0000
  H   H3        1.0  0.18014  0.29361  0.61195  1.0000
  H   H4        1.0  0.70640  0.81986  0.88805  1.0000
  H   H5        1.0  0.64286  0.50831  0.29627  1.0000
  H   H6        1.0  0.49169  0.35714  0.20373  1.0000
  H   H7        1.0  0.35714  0.49169  0.70373  1.0000
  H   H8        1.0  0.50832  0.64285  0.79627  1.0000
  H   H9        1.0  0.52740  0.25967  0.37253  1.0000
  H   H10       1.0  0.74034  0.47260  0.12747  1.0000
  H   H11       1.0  0.47261  0.74033  0.62747  1.0000
  H   H12       1.0  0.25967  0.52739  0.87253  1.0000
  H   H13       1.0  0.59111  0.19895  0.54171  1.0000
  H   H14       1.0  0.80105  0.40889  0.95829  1.0000
  H   H15       1.0  0.40890  0.80105  0.45829  1.0000
  H   H16       1.0  0.19895  0.59111  0.04170  1.0000
  H   H17       1.0  0.97204  0.83515  0.50159  1.0000
  H   H18       1.0  0.16485  0.02796  0.99841  1.0000
  H   H19       1.0  0.02796  0.16485  0.49841  1.0000
  H   H20       1.0  0.83515  0.97204  0.00159  1.0000
  H   H21       1.0  0.09394  0.79563  0.60270  1.0000
  H   H22       1.0  0.20437  0.90606  0.89730  1.0000
  H   H23       1.0  0.90606  0.20436  0.39730  1.0000
  H   H24       1.0  0.79563  0.09395  0.10270  1.0000
  H   H25       1.0  0.95165  0.52155  0.81182  1.0000
  H   H26       1.0  0.47845  0.04834  0.68818  1.0000
  H   H27       1.0  0.04835  0.47845  0.18818  1.0000
  H   H28       1.0  0.52155  0.95165  0.31182  1.0000
  H   H29       1.0  0.88914  0.72820  0.78936  1.0000
  H   H30       1.0  0.27180  0.11086  0.71064  1.0000
  H   H31       1.0  0.11086  0.27180  0.21064  1.0000
  H   H32       1.0  0.72820  0.88914  0.28935  1.0000
  H   H33       1.0  0.07949  0.65689  0.74808  1.0000
  H   H34       1.0  0.34311  0.92051  0.75192  1.0000
  H   H35       1.0  0.92051  0.34311  0.25192  1.0000
  H   H36       1.0  0.65688  0.07949  0.24808  1.0000
  C   C1        1.0  0.76854  0.59796  0.42134  1.0000
  C   C2        1.0  0.40204  0.23147  0.07867  1.0000
  C   C3        1.0  0.23147  0.40204  0.57866  1.0000
  C   C4        1.0  0.59796  0.76853  0.92134  1.0000
  C   C5        1.0  0.67126  0.48460  0.37068  1.0000
  C   C6        1.0  0.51541  0.32874  0.12932  1.0000
  C   C7        1.0  0.32874  0.51540  0.62932  1.0000
  C   C8        1.0  0.48460  0.67125  0.87068  1.0000
  C   C9        1.0  0.60686  0.34321  0.41370  1.0000
  C   C10       1.0  0.65680  0.39314  0.08630  1.0000
  C   C11       1.0  0.39314  0.65680  0.58630  1.0000
  C   C12       1.0  0.34320  0.60686  0.91370  1.0000
  C   C13       1.0  0.63968  0.30912  0.50886  1.0000
  C   C14       1.0  0.69088  0.36032  0.99114  1.0000
  C   C15       1.0  0.36032  0.69088  0.49114  1.0000
  C   C16       1.0  0.30912  0.63968  0.00886  1.0000
  C   C17       1.0  0.73615  0.42221  0.56090  1.0000
  C   C18       1.0  0.57779  0.26385  0.93910  1.0000
  C   C19       1.0  0.26385  0.57779  0.43910  1.0000
  C   C20       1.0  0.42221  0.73615  0.06090  1.0000
  C   C21       1.0  0.79683  0.56502  0.51706  1.0000
  C   C22       1.0  0.43498  0.20317  0.98294  1.0000
  C   C23       1.0  0.20317  0.43498  0.48294  1.0000
  C   C24       1.0  0.56502  0.79683  0.01706  1.0000
  C   C25       1.0  0.87308  0.56394  0.66978  1.0000
  C   C26       1.0  0.43606  0.12692  0.83022  1.0000
  C   C27       1.0  0.12692  0.43606  0.33022  1.0000
  C   C28       1.0  0.56394  0.87308  0.16978  1.0000
  C   C29       1.0  0.96655  0.80653  0.57763  1.0000
  C   C30       1.0  0.19347  0.03345  0.92237  1.0000
  C   C31       1.0  0.03345  0.19347  0.42237  1.0000
  C   C32       1.0  0.80652  0.96655  0.07763  1.0000
  C   C33       1.0  0.88855  0.95039  0.62994  1.0000
  C   C34       1.0  0.04961  0.11146  0.87007  1.0000
  C   C35       1.0  0.11145  0.04961  0.37007  1.0000
  C   C36       1.0  0.95039  0.88855  0.12993  1.0000
  C   C37       1.0  0.95150  0.62035  0.76005  1.0000
  C   C38       1.0  0.37965  0.04850  0.73995  1.0000
  C   C39       1.0  0.04851  0.37966  0.23995  1.0000
  C   C40       1.0  0.62034  0.95149  0.26005  1.0000
  N   N1        1.0  0.88205  0.65130  0.58789  1.0000
  N   N2        1.0  0.34870  0.11795  0.91211  1.0000
  N   N3        1.0  0.11795  0.34870  0.41211  1.0000
  N   N4        1.0  0.65129  0.88205  0.08789  1.0000
  N   N5        1.0  0.78678  0.42522  0.65585  1.0000
  N   N6        1.0  0.57478  0.21322  0.84415  1.0000
  N   N7        1.0  0.21322  0.57478  0.34415  1.0000
  N   N8        1.0  0.42522  0.78678  0.15585  1.0000
  O   O1        1.0  0.97989  0.07759  0.63922  1.0000
  O   O2        1.0  0.92241  0.02011  0.86078  1.0000
  O   O3        1.0  0.02011  0.92241  0.36078  1.0000
  O   O4        1.0  0.07758  0.97990  0.13922  1.0000
  O   O5        1.0  0.74431  0.93947  0.66158  1.0000
  O   O6        1.0  0.06053  0.25569  0.83842  1.0000
  O   O7        1.0  0.25569  0.06053  0.33842  1.0000
  O   O8        1.0  0.93946  0.74432  0.16158  1.0000
