data_image0
_chemical_formula_structural       Fe2H36C52S4N20
_chemical_formula_sum              "Fe2 H36 C52 S4 N20"
_cell_length_a       8.62037
_cell_length_b       8.68479
_cell_length_c       17.5736
_cell_angle_alpha    97.0629
_cell_angle_beta     103.839
_cell_angle_gamma    94.4694

_space_group_name_H-M_alt    "P 1"
_space_group_IT_number       1

loop_
  _space_group_symop_operation_xyz
  'x, y, z'

loop_
  _atom_site_type_symbol
  _atom_site_label
  _atom_site_symmetry_multiplicity
  _atom_site_fract_x
  _atom_site_fract_y
  _atom_site_fract_z
  _atom_site_occupancy
  Fe  Fe1       1.0  0.99128  0.47881  0.50074  1.0000
  Fe  Fe2       1.0  0.50938  0.02247  0.00301  1.0000
  H   H1        1.0  0.23026  0.77644  0.72982  1.0000
  H   H2        1.0  0.76617  0.22200  0.27098  1.0000
  H   H3        1.0  0.17386  0.53903  0.79630  1.0000
  H   H4        1.0  0.83556  0.45091  0.20958  1.0000
  H   H5        1.0  0.24101  0.04875  0.65378  1.0000
  H   H6        1.0  0.76527  0.94979  0.34277  1.0000
  H   H7        1.0  0.50056  0.89201  0.52320  1.0000
  H   H8        1.0  0.49181  0.11855  0.48054  1.0000
  H   H9        1.0  0.73823  0.70571  0.53512  1.0000
  H   H10       1.0  0.25540  0.30293  0.47381  1.0000
  H   H11       1.0  0.12890  0.99641  0.98073  1.0000
  H   H12       1.0  0.84921  0.01054  0.00842  1.0000
  H   H13       1.0  0.87477  0.82336  0.90677  1.0000
  H   H14       1.0  0.11130  0.16015  0.08700  1.0000
  H   H15       1.0  0.89806  0.58681  0.81706  1.0000
  H   H16       1.0  0.10667  0.39080  0.18490  1.0000
  H   H17       1.0  0.52815  0.81619  0.38352  1.0000
  H   H18       1.0  0.47347  0.20500  0.62121  1.0000
  H   H19       1.0  0.89333  0.60022  0.09930  1.0000
  H   H20       1.0  0.11138  0.38076  0.89508  1.0000
  H   H21       1.0  0.59390  0.46655  0.86082  1.0000
  H   H22       1.0  0.38741  0.53139  0.13677  1.0000
  H   H23       1.0  0.72531  0.97032  0.60643  1.0000
  H   H24       1.0  0.28016  0.04800  0.39850  1.0000
  H   H25       1.0  0.32923  0.61081  0.29346  1.0000
  H   H26       1.0  0.68526  0.40466  0.70719  1.0000
  H   H27       1.0  0.98424  0.14627  0.66643  1.0000
  H   H28       1.0  0.02882  0.86426  0.33222  1.0000
  H   H29       1.0  0.81256  0.40803  0.97146  1.0000
  H   H30       1.0  0.16966  0.57605  0.02194  1.0000
  H   H31       1.0  0.77263  0.72717  0.70736  1.0000
  H   H32       1.0  0.22347  0.27055  0.29271  1.0000
  H   H33       1.0  0.74435  0.83341  0.10962  1.0000
  H   H34       1.0  0.28056  0.16350  0.88940  1.0000
  H   H35       1.0  0.11071  0.48262  0.34653  1.0000
  H   H36       1.0  0.90554  0.51480  0.65100  1.0000
  C   C1        1.0  0.35169  0.76376  0.72495  1.0000
  C   C2        1.0  0.64485  0.23524  0.27578  1.0000
  C   C3        1.0  0.12467  0.82390  0.58987  1.0000
  C   C4        1.0  0.87134  0.17313  0.41092  1.0000
  C   C5        1.0  0.28802  0.74728  0.87497  1.0000
  C   C6        1.0  0.70871  0.25612  0.12571  1.0000
  C   C7        1.0  0.56470  0.68593  0.92556  1.0000
  C   C8        1.0  0.43632  0.31748  0.07542  1.0000
  C   C9        1.0  0.39138  0.76073  0.65230  1.0000
  C   C10       1.0  0.60359  0.23351  0.34774  1.0000
  C   C11       1.0  0.15496  0.64093  0.83471  1.0000
  C   C12       1.0  0.84810  0.35109  0.16800  1.0000
  C   C13       1.0  0.29625  0.72308  0.50675  1.0000
  C   C14       1.0  0.70289  0.27436  0.49318  1.0000
  C   C15       1.0  0.12750  0.97533  0.62816  1.0000
  C   C16       1.0  0.87628  0.02595  0.37045  1.0000
  C   C17       1.0  0.21711  0.39528  0.65107  1.0000
  C   C18       1.0  0.78114  0.58874  0.35247  1.0000
  C   C19       1.0  0.41945  0.80055  0.48190  1.0000
  C   C20       1.0  0.57801  0.20783  0.52055  1.0000
  C   C21       1.0  0.84677  0.78529  0.56247  1.0000
  C   C22       1.0  0.14987  0.22190  0.44352  1.0000
  C   C23       1.0  0.47241  0.73666  0.78920  1.0000
  C   C24       1.0  0.52583  0.26825  0.21241  1.0000
  C   C25       1.0  0.13081  0.89519  0.93797  1.0000
  C   C26       1.0  0.85400  0.10614  0.05520  1.0000
  C   C27       1.0  0.99174  0.79824  0.89841  1.0000
  C   C28       1.0  0.99769  0.19141  0.09762  1.0000
  C   C29       1.0  0.00472  0.66764  0.84646  1.0000
  C   C30       1.0  0.99518  0.31838  0.15414  1.0000
  C   C31       1.0  0.43337  0.75904  0.40507  1.0000
  C   C32       1.0  0.56881  0.25494  0.59760  1.0000
  C   C33       1.0  0.79860  0.61900  0.04920  1.0000
  C   C34       1.0  0.20482  0.36892  0.94718  1.0000
  C   C35       1.0  0.63379  0.54643  0.91632  1.0000
  C   C36       1.0  0.35588  0.45007  0.08166  1.0000
  C   C37       1.0  0.84020  0.93336  0.60106  1.0000
  C   C38       1.0  0.16236  0.07821  0.40266  1.0000
  C   C39       1.0  0.32197  0.64327  0.35424  1.0000
  C   C40       1.0  0.68743  0.36745  0.64605  1.0000
  C   C41       1.0  0.98338  0.02984  0.63503  1.0000
  C   C42       1.0  0.02363  0.97783  0.36501  1.0000
  C   C43       1.0  0.75473  0.51437  0.97857  1.0000
  C   C44       1.0  0.23579  0.47471  0.01719  1.0000
  C   C45       1.0  0.64870  0.73153  0.71182  1.0000
  C   C46       1.0  0.34771  0.26740  0.28862  1.0000
  C   C47       1.0  0.71872  0.75096  0.05503  1.0000
  C   C48       1.0  0.29558  0.24481  0.94355  1.0000
  C   C49       1.0  0.20269  0.57231  0.38323  1.0000
  C   C50       1.0  0.80879  0.42870  0.61559  1.0000
  C   C51       1.0  0.65703  0.10963  0.86894  1.0000
  C   C52       1.0  0.35069  0.90742  0.12905  1.0000
  S   S1        1.0  0.32077  0.33712  0.73029  1.0000
  S   S2        1.0  0.68662  0.65888  0.27488  1.0000
  S   S3        1.0  0.76123  0.16535  0.80975  1.0000
  S   S4        1.0  0.24249  0.83677  0.18323  1.0000
  N   N1        1.0  0.98695  0.72996  0.55889  1.0000
  N   N2        1.0  0.00576  0.27257  0.44660  1.0000
  N   N3        1.0  0.44294  0.72487  0.86265  1.0000
  N   N4        1.0  0.55782  0.28612  0.13990  1.0000
  N   N5        1.0  0.19243  0.60865  0.45849  1.0000
  N   N6        1.0  0.81667  0.38633  0.53946  1.0000
  N   N7        1.0  0.27250  0.76771  0.58345  1.0000
  N   N8        1.0  0.72101  0.22155  0.41663  1.0000
  N   N9        1.0  0.27583  0.87163  0.92553  1.0000
  N   N10       1.0  0.70910  0.13545  0.06873  1.0000
  N   N11       1.0  0.60761  0.78638  0.99343  1.0000
  N   N12       1.0  0.40667  0.21456  0.00759  1.0000
  N   N13       1.0  0.62400  0.72306  0.78308  1.0000
  N   N14       1.0  0.37433  0.28211  0.21828  1.0000
  N   N15       1.0  0.14190  0.43883  0.59324  1.0000
  N   N16       1.0  0.85006  0.53624  0.40877  1.0000
  N   N17       1.0  0.54135  0.74497  0.64492  1.0000
  N   N18       1.0  0.45369  0.24876  0.35499  1.0000
  N   N19       1.0  0.58029  0.06682  0.91193  1.0000
  N   N20       1.0  0.42952  0.95970  0.08930  1.0000
