data_image0
_chemical_formula_structural       Cd2H32C52N4O12F12
_chemical_formula_sum              "Cd2 H32 C52 N4 O12 F12"
_cell_length_a       7.80113
_cell_length_b       7.78859
_cell_length_c       21.583
_cell_angle_alpha    93.1659
_cell_angle_beta     93.1608
_cell_angle_gamma    98.3285

_space_group_name_H-M_alt    "P 1"
_space_group_IT_number       1

loop_
  _space_group_symop_operation_xyz
  'x, y, z'

loop_
  _atom_site_type_symbol
  _atom_site_label
  _atom_site_symmetry_multiplicity
  _atom_site_fract_x
  _atom_site_fract_y
  _atom_site_fract_z
  _atom_site_occupancy
  Cd  Cd1       1.0  0.36658  0.63339  0.75000  1.0000
  Cd  Cd2       1.0  0.63342  0.36661  0.25000  1.0000
  H   H1        1.0  0.45716  0.75625  0.96480  1.0000
  H   H2        1.0  0.24376  0.54294  0.53520  1.0000
  H   H3        1.0  0.54284  0.24376  0.03521  1.0000
  H   H4        1.0  0.75625  0.45706  0.46480  1.0000
  H   H5        1.0  0.19497  0.44121  0.09024  1.0000
  H   H6        1.0  0.55883  0.80505  0.40977  1.0000
  H   H7        1.0  0.80503  0.55879  0.90976  1.0000
  H   H8        1.0  0.44117  0.19495  0.59023  1.0000
  H   H9        1.0  0.99457  0.17392  0.01785  1.0000
  H   H10       1.0  0.82598  0.00534  0.48216  1.0000
  H   H11       1.0  0.00544  0.82608  0.98215  1.0000
  H   H12       1.0  0.17402  0.99466  0.51784  1.0000
  H   H13       1.0  0.06714  0.24410  0.89870  1.0000
  H   H14       1.0  0.75580  0.93278  0.60130  1.0000
  H   H15       1.0  0.93287  0.75590  0.10130  1.0000
  H   H16       1.0  0.24421  0.06721  0.39870  1.0000
  H   H17       1.0  0.97089  0.65184  0.70617  1.0000
  H   H18       1.0  0.34763  0.02924  0.79379  1.0000
  H   H19       1.0  0.02911  0.34816  0.29383  1.0000
  H   H20       1.0  0.65237  0.97076  0.20621  1.0000
  H   H21       1.0  0.74970  0.84876  0.70708  1.0000
  H   H22       1.0  0.15094  0.25064  0.79294  1.0000
  H   H23       1.0  0.25030  0.15124  0.29292  1.0000
  H   H24       1.0  0.84906  0.74936  0.20706  1.0000
  H   H25       1.0  0.39885  0.25126  0.69455  1.0000
  H   H26       1.0  0.74860  0.60161  0.80551  1.0000
  H   H27       1.0  0.60115  0.74873  0.30545  1.0000
  H   H28       1.0  0.25140  0.39839  0.19449  1.0000
  H   H29       1.0  0.59874  0.03046  0.69239  1.0000
  H   H30       1.0  0.96922  0.40150  0.80759  1.0000
  H   H31       1.0  0.40126  0.96954  0.30761  1.0000
  H   H32       1.0  0.03078  0.59850  0.19241  1.0000
  C   C1        1.0  0.53637  0.83182  0.87685  1.0000
  C   C2        1.0  0.16820  0.46367  0.62314  1.0000
  C   C3        1.0  0.46363  0.16818  0.12315  1.0000
  C   C4        1.0  0.83180  0.53633  0.37686  1.0000
  C   C5        1.0  0.43861  0.72370  0.91504  1.0000
  C   C6        1.0  0.27628  0.56147  0.58495  1.0000
  C   C7        1.0  0.56140  0.27630  0.08496  1.0000
  C   C8        1.0  0.72372  0.43853  0.41505  1.0000
  C   C9        1.0  0.31740  0.57194  0.89594  1.0000
  C   C10       1.0  0.42802  0.68259  0.60405  1.0000
  C   C11       1.0  0.68260  0.42806  0.10406  1.0000
  C   C12       1.0  0.57198  0.31741  0.39594  1.0000
  C   C13       1.0  0.23784  0.47027  0.94433  1.0000
  C   C14       1.0  0.52971  0.76212  0.55567  1.0000
  C   C15       1.0  0.76216  0.52973  0.05567  1.0000
  C   C16       1.0  0.47029  0.23788  0.44433  1.0000
  C   C17       1.0  0.17969  0.41272  0.04042  1.0000
  C   C18       1.0  0.58729  0.82029  0.45959  1.0000
  C   C19       1.0  0.82030  0.58728  0.95958  1.0000
  C   C20       1.0  0.41271  0.17972  0.54041  1.0000
  C   C21       1.0  0.08253  0.28233  0.00286  1.0000
  C   C22       1.0  0.71761  0.91740  0.49715  1.0000
  C   C23       1.0  0.91747  0.71767  0.99714  1.0000
  C   C24       1.0  0.28239  0.08260  0.50285  1.0000
  C   C25       1.0  0.12013  0.31916  0.94091  1.0000
  C   C26       1.0  0.68076  0.87979  0.55909  1.0000
  C   C27       1.0  0.87987  0.68084  0.05909  1.0000
  C   C28       1.0  0.31924  0.12021  0.44091  1.0000
  C   C29       1.0  0.65411  0.99335  0.90800  1.0000
  C   C30       1.0  0.00675  0.34593  0.59200  1.0000
  C   C31       1.0  0.34589  0.00665  0.09200  1.0000
  C   C32       1.0  0.99325  0.65407  0.40800  1.0000
  C   C33       1.0  0.00384  0.78537  0.72579  1.0000
  C   C34       1.0  0.21430  0.99621  0.77418  1.0000
  C   C35       1.0  0.99616  0.21463  0.27422  1.0000
  C   C36       1.0  0.78570  0.00379  0.22582  1.0000
  C   C37       1.0  0.88128  0.89810  0.72582  1.0000
  C   C38       1.0  0.10165  0.11888  0.77416  1.0000
  C   C39       1.0  0.11872  0.10190  0.27418  1.0000
  C   C40       1.0  0.89835  0.88112  0.22584  1.0000
  C   C41       1.0  0.92952  0.07048  0.75000  1.0000
  C   C42       1.0  0.07048  0.92952  0.25000  1.0000
  C   C43       1.0  0.52726  0.27781  0.71888  1.0000
  C   C44       1.0  0.72212  0.47302  0.78117  1.0000
  C   C45       1.0  0.47274  0.72219  0.28112  1.0000
  C   C46       1.0  0.27788  0.52698  0.21883  1.0000
  C   C47       1.0  0.64044  0.15560  0.71797  1.0000
  C   C48       1.0  0.84423  0.35977  0.78204  1.0000
  C   C49       1.0  0.35956  0.84439  0.28203  1.0000
  C   C50       1.0  0.15577  0.64023  0.21796  1.0000
  C   C51       1.0  0.80436  0.19563  0.74999  1.0000
  C   C52       1.0  0.19564  0.80437  0.25000  1.0000
  N   N1        1.0  0.16773  0.83207  0.74997  1.0000
  N   N2        1.0  0.83227  0.16793  0.25003  1.0000
  N   N3        1.0  0.56612  0.43403  0.75004  1.0000
  N   N4        1.0  0.43388  0.56596  0.24996  1.0000
  O   O1        1.0  0.54810  0.82291  0.81794  1.0000
  O   O2        1.0  0.17714  0.45181  0.68204  1.0000
  O   O3        1.0  0.45190  0.17709  0.18206  1.0000
  O   O4        1.0  0.82286  0.54820  0.31796  1.0000
  O   O5        1.0  0.26880  0.51534  0.83999  1.0000
  O   O6        1.0  0.48461  0.73115  0.66000  1.0000
  O   O7        1.0  0.73120  0.48466  0.16001  1.0000
  O   O8        1.0  0.51539  0.26885  0.34000  1.0000
  O   O9        1.0  0.27527  0.52763  0.00599  1.0000
  O   O10       1.0  0.47242  0.72474  0.49401  1.0000
  O   O11       1.0  0.72473  0.47237  0.99401  1.0000
  O   O12       1.0  0.52758  0.27527  0.50599  1.0000
  F   F1        1.0  0.59837  0.14193  0.88880  1.0000
  F   F2        1.0  0.85845  0.40186  0.61121  1.0000
  F   F3        1.0  0.40163  0.85807  0.11120  1.0000
  F   F4        1.0  0.14154  0.59814  0.38878  1.0000
  F   F5        1.0  0.82105  0.99771  0.89052  1.0000
  F   F6        1.0  0.00227  0.17871  0.60948  1.0000
  F   F7        1.0  0.17895  0.00229  0.10949  1.0000
  F   F8        1.0  0.99773  0.82129  0.39052  1.0000
  F   F9        1.0  0.66284  0.00499  0.97120  1.0000
  F   F10       1.0  0.99508  0.33717  0.52879  1.0000
  F   F11       1.0  0.33716  0.99501  0.02880  1.0000
  F   F12       1.0  0.00492  0.66283  0.47120  1.0000
