data_image0
_chemical_formula_structural       Cu2H12C24S2N8Cl4O4
_chemical_formula_sum              "Cu2 H12 C24 S2 N8 Cl4 O4"
_cell_length_a       7.81678
_cell_length_b       8.05517
_cell_length_c       14.7828
_cell_angle_alpha    74.4114
_cell_angle_beta     92.384
_cell_angle_gamma    64.5572

_space_group_name_H-M_alt    "P 1"
_space_group_IT_number       1

loop_
  _space_group_symop_operation_xyz
  'x, y, z'

loop_
  _atom_site_type_symbol
  _atom_site_label
  _atom_site_symmetry_multiplicity
  _atom_site_fract_x
  _atom_site_fract_y
  _atom_site_fract_z
  _atom_site_occupancy
  Cu  Cu1       1.0  0.99997  0.50002  0.49999  1.0000
  Cu  Cu2       1.0  0.00003  0.49997  0.00001  1.0000
  H   H1        1.0  0.62684  0.09737  0.86995  1.0000
  H   H2        1.0  0.37316  0.90263  0.13005  1.0000
  H   H3        1.0  0.65445  0.06720  0.73895  1.0000
  H   H4        1.0  0.34557  0.93278  0.26106  1.0000
  H   H5        1.0  0.63995  0.10302  0.03625  1.0000
  H   H6        1.0  0.36013  0.89690  0.96376  1.0000
  H   H7        1.0  0.83051  0.25009  0.09456  1.0000
  H   H8        1.0  0.16957  0.74985  0.90545  1.0000
  H   H9        1.0  0.65747  0.08330  0.56867  1.0000
  H   H10       1.0  0.34251  0.91671  0.43133  1.0000
  H   H11       1.0  0.80584  0.27173  0.46917  1.0000
  H   H12       1.0  0.19409  0.72832  0.53081  1.0000
  C   C1        1.0  0.91041  0.31876  0.87389  1.0000
  C   C2        1.0  0.08961  0.68123  0.12610  1.0000
  C   C3        1.0  0.80962  0.23738  0.83476  1.0000
  C   C4        1.0  0.19038  0.76261  0.16523  1.0000
  C   C5        1.0  0.00794  0.40934  0.81397  1.0000
  C   C6        1.0  0.99207  0.59064  0.18602  1.0000
  C   C7        1.0  0.88983  0.33917  0.67300  1.0000
  C   C8        1.0  0.11015  0.66085  0.32700  1.0000
  C   C9        1.0  0.70990  0.16005  0.89515  1.0000
  C   C10       1.0  0.29011  0.83994  0.10485  1.0000
  C   C11       1.0  0.99132  0.42613  0.71092  1.0000
  C   C12       1.0  0.00866  0.57389  0.28909  1.0000
  C   C13       1.0  0.71830  0.14931  0.69516  1.0000
  C   C14       1.0  0.28170  0.85068  0.30485  1.0000
  C   C15       1.0  0.80506  0.24097  0.73438  1.0000
  C   C16       1.0  0.19491  0.75904  0.26563  1.0000
  C   C17       1.0  0.71892  0.16026  0.98915  1.0000
  C   C18       1.0  0.28112  0.83971  0.01086  1.0000
  C   C19       1.0  0.82268  0.24331  0.02197  1.0000
  C   C20       1.0  0.17739  0.75663  0.97804  1.0000
  C   C21       1.0  0.71941  0.15740  0.60009  1.0000
  C   C22       1.0  0.28056  0.84262  0.39991  1.0000
  C   C23       1.0  0.80251  0.26142  0.54396  1.0000
  C   C24       1.0  0.19743  0.73862  0.45604  1.0000
  S   S1        1.0  0.18061  0.58235  0.74218  1.0000
  S   S2        1.0  0.81931  0.41769  0.25781  1.0000
  N   N1        1.0  0.07686  0.51881  0.66262  1.0000
  N   N2        1.0  0.92313  0.48125  0.33740  1.0000
  N   N3        1.0  0.10860  0.48606  0.84167  1.0000
  N   N4        1.0  0.89145  0.51393  0.15831  1.0000
  N   N5        1.0  0.91412  0.32265  0.96490  1.0000
  N   N6        1.0  0.08594  0.67731  0.03510  1.0000
  N   N7        1.0  0.88451  0.35074  0.57984  1.0000
  N   N8        1.0  0.11544  0.64930  0.42015  1.0000
  Cl  Cl1       1.0  0.72655  0.78054  0.47452  1.0000
  Cl  Cl2       1.0  0.27339  0.21951  0.52547  1.0000
  Cl  Cl3       1.0  0.70825  0.74745  0.91104  1.0000
  Cl  Cl4       1.0  0.29179  0.25250  0.08898  1.0000
  O   O1        1.0  0.09073  0.78961  0.71956  1.0000
  O   O2        1.0  0.90925  0.21038  0.28046  1.0000
  O   O3        1.0  0.38621  0.47876  0.75209  1.0000
  O   O4        1.0  0.61376  0.52131  0.24789  1.0000
