data_image0
_chemical_formula_structural       Zn4H40C56S8N8O16
_chemical_formula_sum              "Zn4 H40 C56 S8 N8 O16"
_cell_length_a       11.2871
_cell_length_b       15.4356
_cell_length_c       15.3563
_cell_angle_alpha    98.4459
_cell_angle_beta     108.758
_cell_angle_gamma    107.693

_space_group_name_H-M_alt    "P 1"
_space_group_IT_number       1

loop_
  _space_group_symop_operation_xyz
  'x, y, z'

loop_
  _atom_site_type_symbol
  _atom_site_label
  _atom_site_symmetry_multiplicity
  _atom_site_fract_x
  _atom_site_fract_y
  _atom_site_fract_z
  _atom_site_occupancy
  Zn  Zn1       1.0  0.35299  0.54895  0.92213  1.0000
  Zn  Zn2       1.0  0.14870  0.07588  0.44963  1.0000
  Zn  Zn3       1.0  0.64701  0.45105  0.07787  1.0000
  Zn  Zn4       1.0  0.85130  0.92412  0.55037  1.0000
  H   H1        1.0  0.14269  0.23550  0.82646  1.0000
  H   H2        1.0  0.35921  0.17536  0.76726  1.0000
  H   H3        1.0  0.85731  0.76450  0.17354  1.0000
  H   H4        1.0  0.64080  0.82465  0.23274  1.0000
  H   H5        1.0  0.02531  0.24145  0.61769  1.0000
  H   H6        1.0  0.47229  0.37996  0.75630  1.0000
  H   H7        1.0  0.97469  0.75855  0.38231  1.0000
  H   H8        1.0  0.52771  0.62005  0.24370  1.0000
  H   H9        1.0  0.33911  0.51565  0.72353  1.0000
  H   H10       1.0  0.16081  0.27315  0.48254  1.0000
  H   H11       1.0  0.66089  0.48435  0.27647  1.0000
  H   H12       1.0  0.83919  0.72685  0.51746  1.0000
  H   H13       1.0  0.49258  0.56955  0.63841  1.0000
  H   H14       1.0  0.00474  0.35827  0.42930  1.0000
  H   H15       1.0  0.50743  0.43045  0.36159  1.0000
  H   H16       1.0  0.99526  0.64172  0.57070  1.0000
  H   H17       1.0  0.81465  0.71904  0.91644  1.0000
  H   H18       1.0  0.68305  0.08410  0.28060  1.0000
  H   H19       1.0  0.18535  0.28096  0.08356  1.0000
  H   H20       1.0  0.31694  0.91589  0.71940  1.0000
  H   H21       1.0  0.64770  0.66000  0.98874  1.0000
  H   H22       1.0  0.85245  0.01156  0.33902  1.0000
  H   H23       1.0  0.35230  0.34000  0.01126  1.0000
  H   H24       1.0  0.14755  0.98843  0.66098  1.0000
  H   H25       1.0  0.06612  0.49905  0.79801  1.0000
  H   H26       1.0  0.43405  0.20052  0.50160  1.0000
  H   H27       1.0  0.93388  0.50095  0.20199  1.0000
  H   H28       1.0  0.56595  0.79948  0.49840  1.0000
  H   H29       1.0  0.89975  0.57692  0.75114  1.0000
  H   H30       1.0  0.59779  0.24800  0.42362  1.0000
  H   H31       1.0  0.10026  0.42308  0.24885  1.0000
  H   H32       1.0  0.40221  0.75201  0.57638  1.0000
  H   H33       1.0  0.22239  0.84245  0.92906  1.0000
  H   H34       1.0  0.27559  0.06975  0.15485  1.0000
  H   H35       1.0  0.77761  0.15755  0.07095  1.0000
  H   H36       1.0  0.72441  0.93026  0.84515  1.0000
  H   H37       1.0  0.37201  0.75079  0.97436  1.0000
  H   H38       1.0  0.12890  0.02370  0.24690  1.0000
  H   H39       1.0  0.62799  0.24921  0.02564  1.0000
  H   H40       1.0  0.87110  0.97630  0.75310  1.0000
  C   C1        1.0  0.17875  0.37186  0.78986  1.0000
  C   C2        1.0  0.32171  0.20797  0.62778  1.0000
  C   C3        1.0  0.82126  0.62814  0.21014  1.0000
  C   C4        1.0  0.67830  0.79204  0.37222  1.0000
  C   C5        1.0  0.12017  0.26702  0.76702  1.0000
  C   C6        1.0  0.38037  0.23281  0.73385  1.0000
  C   C7        1.0  0.87983  0.73298  0.23297  1.0000
  C   C8        1.0  0.61964  0.76720  0.26615  1.0000
  C   C9        1.0  0.04693  0.21102  0.67799  1.0000
  C   C10       1.0  0.45203  0.32161  0.78862  1.0000
  C   C11       1.0  0.95306  0.78898  0.32201  1.0000
  C   C12       1.0  0.54797  0.67839  0.21137  1.0000
  C   C13       1.0  0.99566  0.10637  0.65782  1.0000
  C   C14       1.0  0.50316  0.34378  0.89444  1.0000
  C   C15       1.0  0.00433  0.89363  0.34218  1.0000
  C   C16       1.0  0.49684  0.65623  0.10556  1.0000
  C   C17       1.0  0.44508  0.56222  0.76251  1.0000
  C   C18       1.0  0.05424  0.23495  0.43619  1.0000
  C   C19       1.0  0.55493  0.43778  0.23749  1.0000
  C   C20       1.0  0.94576  0.76505  0.56381  1.0000
  C   C21       1.0  0.53114  0.59178  0.71619  1.0000
  C   C22       1.0  0.96678  0.28132  0.40702  1.0000
  C   C23       1.0  0.46886  0.40821  0.28381  1.0000
  C   C24       1.0  0.03321  0.71867  0.59297  1.0000
  C   C25       1.0  0.66616  0.65086  0.77124  1.0000
  C   C26       1.0  0.83106  0.22736  0.34835  1.0000
  C   C27       1.0  0.33384  0.34914  0.22877  1.0000
  C   C28       1.0  0.16894  0.77263  0.65165  1.0000
  C   C29       1.0  0.71019  0.67495  0.87068  1.0000
  C   C30       1.0  0.78795  0.12899  0.32427  1.0000
  C   C31       1.0  0.28981  0.32505  0.12932  1.0000
  C   C32       1.0  0.21204  0.87101  0.67574  1.0000
  C   C33       1.0  0.61754  0.64243  0.91150  1.0000
  C   C34       1.0  0.88205  0.08804  0.35647  1.0000
  C   C35       1.0  0.38246  0.35757  0.08850  1.0000
  C   C36       1.0  0.11794  0.91195  0.64353  1.0000
  C   C37       1.0  0.09492  0.57454  0.82737  1.0000
  C   C38       1.0  0.40491  0.17107  0.42545  1.0000
  C   C39       1.0  0.90508  0.42546  0.17263  1.0000
  C   C40       1.0  0.59509  0.82893  0.57455  1.0000
  C   C41       1.0  0.00352  0.61849  0.80029  1.0000
  C   C42       1.0  0.49473  0.19857  0.38140  1.0000
  C   C43       1.0  0.99648  0.38151  0.19971  1.0000
  C   C44       1.0  0.50527  0.80143  0.61860  1.0000
  C   C45       1.0  0.04793  0.71630  0.83594  1.0000
  C   C46       1.0  0.44954  0.16314  0.28257  1.0000
  C   C47       1.0  0.95207  0.28370  0.16406  1.0000
  C   C48       1.0  0.55046  0.83686  0.71743  1.0000
  C   C49       1.0  0.18265  0.76603  0.89946  1.0000
  C   C50       1.0  0.31581  0.09927  0.23207  1.0000
  C   C51       1.0  0.81735  0.23397  0.10054  1.0000
  C   C52       1.0  0.68419  0.90074  0.76793  1.0000
  C   C53       1.0  0.26681  0.71638  0.92411  1.0000
  C   C54       1.0  0.23324  0.07414  0.28191  1.0000
  C   C55       1.0  0.73319  0.28362  0.07589  1.0000
  C   C56       1.0  0.76675  0.92586  0.71809  1.0000
  S   S1        1.0  0.76640  0.69058  0.70623  1.0000
  S   S2        1.0  0.72845  0.29223  0.30942  1.0000
  S   S3        1.0  0.23360  0.30942  0.29377  1.0000
  S   S4        1.0  0.27155  0.70777  0.69058  1.0000
  S   S5        1.0  0.94718  0.78389  0.80480  1.0000
  S   S6        1.0  0.54774  0.19526  0.21454  1.0000
  S   S7        1.0  0.05282  0.21611  0.19520  1.0000
  S   S8        1.0  0.45225  0.80475  0.78546  1.0000
  N   N1        1.0  0.48673  0.58850  0.85852  1.0000
  N   N2        1.0  0.01335  0.13990  0.41000  1.0000
  N   N3        1.0  0.51328  0.41150  0.14148  1.0000
  N   N4        1.0  0.98665  0.86010  0.59000  1.0000
  N   N5        1.0  0.22433  0.62202  0.88824  1.0000
  N   N6        1.0  0.27632  0.10995  0.37717  1.0000
  N   N7        1.0  0.77567  0.37798  0.11176  1.0000
  N   N8        1.0  0.72367  0.89005  0.62283  1.0000
  O   O1        1.0  0.24771  0.41248  0.88092  1.0000
  O   O2        1.0  0.25376  0.11776  0.58813  1.0000
  O   O3        1.0  0.75229  0.58752  0.11908  1.0000
  O   O4        1.0  0.74624  0.88225  0.41187  1.0000
  O   O5        1.0  0.16212  0.41477  0.72630  1.0000
  O   O6        1.0  0.33746  0.26957  0.58303  1.0000
  O   O7        1.0  0.83788  0.58522  0.27370  1.0000
  O   O8        1.0  0.66254  0.73044  0.41697  1.0000
  O   O9        1.0  0.92253  0.06130  0.56829  1.0000
  O   O10       1.0  0.57533  0.43251  0.93886  1.0000
  O   O11       1.0  0.07747  0.93870  0.43171  1.0000
  O   O12       1.0  0.42469  0.56750  0.06114  1.0000
  O   O13       1.0  0.02251  0.06651  0.72323  1.0000
  O   O14       1.0  0.47703  0.28035  0.93592  1.0000
  O   O15       1.0  0.97749  0.93349  0.27677  1.0000
  O   O16       1.0  0.52297  0.71966  0.06408  1.0000
