data_image0
_chemical_formula_structural       Sn4H68C52S8N4O8
_chemical_formula_sum              "Sn4 H68 C52 S8 N4 O8"
_cell_length_a       9.80097
_cell_length_b       10.5249
_cell_length_c       21.045
_cell_angle_alpha    90
_cell_angle_beta     90
_cell_angle_gamma    101.408

_space_group_name_H-M_alt    "P 1"
_space_group_IT_number       1

loop_
  _space_group_symop_operation_xyz
  'x, y, z'

loop_
  _atom_site_type_symbol
  _atom_site_label
  _atom_site_symmetry_multiplicity
  _atom_site_fract_x
  _atom_site_fract_y
  _atom_site_fract_z
  _atom_site_occupancy
  Sn  Sn1       1.0  0.69266  0.22234  0.73679  1.0000
  Sn  Sn2       1.0  0.30734  0.27766  0.23679  1.0000
  Sn  Sn3       1.0  0.30734  0.77766  0.26321  1.0000
  Sn  Sn4       1.0  0.69266  0.72234  0.76321  1.0000
  H   H1        1.0  0.07753  0.06509  0.64163  1.0000
  H   H2        1.0  0.92247  0.43491  0.14164  1.0000
  H   H3        1.0  0.92247  0.93491  0.35836  1.0000
  H   H4        1.0  0.07753  0.56509  0.85836  1.0000
  H   H5        1.0  0.18539  0.21020  0.67096  1.0000
  H   H6        1.0  0.81461  0.28980  0.17096  1.0000
  H   H7        1.0  0.81461  0.78980  0.32904  1.0000
  H   H8        1.0  0.18539  0.71020  0.82904  1.0000
  H   H9        1.0  0.04364  0.97744  0.75175  1.0000
  H   H10       1.0  0.95636  0.52257  0.25175  1.0000
  H   H11       1.0  0.95636  0.02257  0.24825  1.0000
  H   H12       1.0  0.04364  0.47744  0.74825  1.0000
  H   H13       1.0  0.15687  0.12089  0.78180  1.0000
  H   H14       1.0  0.84313  0.37911  0.28181  1.0000
  H   H15       1.0  0.84313  0.87911  0.21820  1.0000
  H   H16       1.0  0.15687  0.62089  0.71820  1.0000
  H   H17       1.0  0.15183  0.85587  0.67043  1.0000
  H   H18       1.0  0.84817  0.64413  0.17043  1.0000
  H   H19       1.0  0.84817  0.14414  0.32957  1.0000
  H   H20       1.0  0.15183  0.35587  0.82957  1.0000
  H   H21       1.0  0.33241  0.86812  0.65662  1.0000
  H   H22       1.0  0.66759  0.63188  0.15662  1.0000
  H   H23       1.0  0.66758  0.13188  0.34338  1.0000
  H   H24       1.0  0.33241  0.36812  0.84338  1.0000
  H   H25       1.0  0.41256  0.05112  0.55665  1.0000
  H   H26       1.0  0.58744  0.44888  0.05665  1.0000
  H   H27       1.0  0.58743  0.94888  0.44335  1.0000
  H   H28       1.0  0.41256  0.55112  0.94335  1.0000
  H   H29       1.0  0.37227  0.05892  0.44036  1.0000
  H   H30       1.0  0.62774  0.44109  0.94035  1.0000
  H   H31       1.0  0.62773  0.94108  0.55964  1.0000
  H   H32       1.0  0.37227  0.55892  0.05964  1.0000
  H   H33       1.0  0.15568  0.93289  0.39280  1.0000
  H   H34       1.0  0.84432  0.56713  0.89280  1.0000
  H   H35       1.0  0.84432  0.06711  0.60719  1.0000
  H   H36       1.0  0.15569  0.43288  0.10720  1.0000
  H   H37       1.0  0.97573  0.79995  0.46275  1.0000
  H   H38       1.0  0.02427  0.70005  0.96275  1.0000
  H   H39       1.0  0.02427  0.20005  0.53725  1.0000
  H   H40       1.0  0.97573  0.29995  0.03725  1.0000
  H   H41       1.0  0.01679  0.79156  0.57927  1.0000
  H   H42       1.0  0.98322  0.70844  0.07927  1.0000
  H   H43       1.0  0.98321  0.20845  0.42073  1.0000
  H   H44       1.0  0.01679  0.29155  0.92073  1.0000
  H   H45       1.0  0.75614  0.32203  0.85284  1.0000
  H   H46       1.0  0.24386  0.17797  0.35284  1.0000
  H   H47       1.0  0.24386  0.67797  0.14716  1.0000
  H   H48       1.0  0.75614  0.82203  0.64716  1.0000
  H   H49       1.0  0.72915  0.14888  0.85755  1.0000
  H   H50       1.0  0.27085  0.35112  0.35755  1.0000
  H   H51       1.0  0.27085  0.85112  0.14245  1.0000
  H   H52       1.0  0.72915  0.64888  0.64245  1.0000
  H   H53       1.0  0.58130  0.22710  0.85460  1.0000
  H   H54       1.0  0.41870  0.27290  0.35460  1.0000
  H   H55       1.0  0.41869  0.77290  0.14540  1.0000
  H   H56       1.0  0.58130  0.72710  0.64540  1.0000
  H   H57       1.0  0.75479  0.45062  0.67619  1.0000
  H   H58       1.0  0.24521  0.04938  0.17619  1.0000
  H   H59       1.0  0.24521  0.54938  0.32381  1.0000
  H   H60       1.0  0.75479  0.95061  0.82381  1.0000
  H   H61       1.0  0.70424  0.32197  0.61928  1.0000
  H   H62       1.0  0.29576  0.17803  0.11928  1.0000
  H   H63       1.0  0.29576  0.67803  0.38072  1.0000
  H   H64       1.0  0.70424  0.82197  0.88072  1.0000
  H   H65       1.0  0.87726  0.35277  0.65262  1.0000
  H   H66       1.0  0.12274  0.14723  0.15262  1.0000
  H   H67       1.0  0.12274  0.64723  0.34738  1.0000
  H   H68       1.0  0.87726  0.85277  0.84738  1.0000
  C   C1        1.0  0.39697  0.10420  0.69409  1.0000
  C   C2        1.0  0.60303  0.39580  0.19409  1.0000
  C   C3        1.0  0.60303  0.89580  0.30591  1.0000
  C   C4        1.0  0.39697  0.60420  0.80591  1.0000
  C   C5        1.0  0.15042  0.10587  0.67941  1.0000
  C   C6        1.0  0.84958  0.39412  0.17941  1.0000
  C   C7        1.0  0.84958  0.89412  0.32059  1.0000
  C   C8        1.0  0.15042  0.60588  0.82059  1.0000
  C   C9        1.0  0.08060  0.08202  0.74498  1.0000
  C   C10       1.0  0.91940  0.41798  0.24498  1.0000
  C   C11       1.0  0.91940  0.91798  0.25502  1.0000
  C   C12       1.0  0.08060  0.58202  0.75501  1.0000
  C   C13       1.0  0.95942  0.15130  0.74856  1.0000
  C   C14       1.0  0.04058  0.34870  0.24856  1.0000
  C   C15       1.0  0.04058  0.84869  0.25144  1.0000
  C   C16       1.0  0.95942  0.65131  0.75143  1.0000
  C   C17       1.0  0.24297  0.91322  0.64608  1.0000
  C   C18       1.0  0.75703  0.58678  0.14608  1.0000
  C   C19       1.0  0.75703  0.08678  0.35392  1.0000
  C   C20       1.0  0.24297  0.41322  0.85392  1.0000
  C   C21       1.0  0.21793  0.91903  0.57540  1.0000
  C   C22       1.0  0.78207  0.58097  0.07540  1.0000
  C   C23       1.0  0.78207  0.08097  0.42460  1.0000
  C   C24       1.0  0.21794  0.41903  0.92460  1.0000
  C   C25       1.0  0.31698  0.99546  0.53600  1.0000
  C   C26       1.0  0.68302  0.50454  0.03599  1.0000
  C   C27       1.0  0.68302  0.00454  0.46400  1.0000
  C   C28       1.0  0.31698  0.49546  0.96400  1.0000
  C   C29       1.0  0.29422  0.00030  0.47077  1.0000
  C   C30       1.0  0.70579  0.49971  0.97076  1.0000
  C   C31       1.0  0.70579  0.99970  0.52923  1.0000
  C   C32       1.0  0.29421  0.50029  0.02923  1.0000
  C   C33       1.0  0.17204  0.92911  0.44401  1.0000
  C   C34       1.0  0.82796  0.57089  0.94401  1.0000
  C   C35       1.0  0.82796  0.07089  0.55599  1.0000
  C   C36       1.0  0.17204  0.42911  0.05599  1.0000
  C   C37       1.0  0.07244  0.85393  0.48303  1.0000
  C   C38       1.0  0.92756  0.64607  0.98303  1.0000
  C   C39       1.0  0.92755  0.14607  0.51697  1.0000
  C   C40       1.0  0.07245  0.35393  0.01697  1.0000
  C   C41       1.0  0.09515  0.84911  0.54850  1.0000
  C   C42       1.0  0.90485  0.65089  0.04850  1.0000
  C   C43       1.0  0.90484  0.15090  0.45150  1.0000
  C   C44       1.0  0.09515  0.34911  0.95150  1.0000
  C   C45       1.0  0.68829  0.23089  0.83868  1.0000
  C   C46       1.0  0.31171  0.26911  0.33868  1.0000
  C   C47       1.0  0.31171  0.76911  0.16132  1.0000
  C   C48       1.0  0.68829  0.73089  0.66132  1.0000
  C   C49       1.0  0.76746  0.35408  0.66135  1.0000
  C   C50       1.0  0.23254  0.14592  0.16135  1.0000
  C   C51       1.0  0.23254  0.64592  0.33866  1.0000
  C   C52       1.0  0.76746  0.85407  0.83866  1.0000
  S   S1        1.0  0.53733  0.02617  0.68892  1.0000
  S   S2        1.0  0.46267  0.47383  0.18892  1.0000
  S   S3        1.0  0.46267  0.97382  0.31108  1.0000
  S   S4        1.0  0.53733  0.52618  0.81108  1.0000
  S   S5        1.0  0.42518  0.25808  0.72435  1.0000
  S   S6        1.0  0.57482  0.24192  0.22435  1.0000
  S   S7        1.0  0.57482  0.74192  0.27565  1.0000
  S   S8        1.0  0.42518  0.75808  0.77565  1.0000
  N   N1        1.0  0.27093  0.04361  0.67440  1.0000
  N   N2        1.0  0.72906  0.45638  0.17440  1.0000
  N   N3        1.0  0.72906  0.95638  0.32560  1.0000
  N   N4        1.0  0.27094  0.54362  0.82560  1.0000
  O   O1        1.0  0.84145  0.08957  0.72526  1.0000
  O   O2        1.0  0.15855  0.41044  0.22526  1.0000
  O   O3        1.0  0.15855  0.91044  0.27474  1.0000
  O   O4        1.0  0.84145  0.58957  0.77474  1.0000
  O   O5        1.0  0.97315  0.26340  0.77106  1.0000
  O   O6        1.0  0.02685  0.23660  0.27106  1.0000
  O   O7        1.0  0.02685  0.73660  0.22894  1.0000
  O   O8        1.0  0.97314  0.76340  0.72894  1.0000
