data_image0
_chemical_formula_structural       Y2H4C8N2Cl6
_chemical_formula_sum              "Y2 H4 C8 N2 Cl6"
_cell_length_a       6.66436
_cell_length_b       6.87546
_cell_length_c       9.10335
_cell_angle_alpha    81.8564
_cell_angle_beta     76.4066
_cell_angle_gamma    71.8306

_space_group_name_H-M_alt    "P 1"
_space_group_IT_number       1

loop_
  _space_group_symop_operation_xyz
  'x, y, z'

loop_
  _atom_site_type_symbol
  _atom_site_label
  _atom_site_symmetry_multiplicity
  _atom_site_fract_x
  _atom_site_fract_y
  _atom_site_fract_z
  _atom_site_occupancy
  Y   Y1        1.0  0.17611  0.18213  0.53200  1.0000
  Y   Y2        1.0  0.82387  0.81787  0.46800  1.0000
  H   H1        1.0  0.19430  0.66231  0.86606  1.0000
  H   H2        1.0  0.80574  0.33769  0.13395  1.0000
  H   H3        1.0  0.67891  0.12263  0.99876  1.0000
  H   H4        1.0  0.32107  0.87741  0.00125  1.0000
  C   C1        1.0  0.32656  0.59331  0.92550  1.0000
  C   C2        1.0  0.67343  0.40666  0.07447  1.0000
  C   C3        1.0  0.42871  0.38049  0.92643  1.0000
  C   C4        1.0  0.57130  0.61947  0.07354  1.0000
  C   C5        1.0  0.60131  0.28681  0.00057  1.0000
  C   C6        1.0  0.39869  0.71314  0.99941  1.0000
  C   C7        1.0  0.35622  0.26478  0.84402  1.0000
  C   C8        1.0  0.64378  0.73525  0.15599  1.0000
  N   N1        1.0  0.28958  0.18271  0.77106  1.0000
  N   N2        1.0  0.71043  0.81730  0.22897  1.0000
  Cl  Cl1       1.0  0.56924  0.21631  0.43255  1.0000
  Cl  Cl2       1.0  0.43074  0.78369  0.56745  1.0000
  Cl  Cl3       1.0  0.88909  0.99215  0.69492  1.0000
  Cl  Cl4       1.0  0.11089  0.00787  0.30509  1.0000
  Cl  Cl5       1.0  0.90007  0.50407  0.68097  1.0000
  Cl  Cl6       1.0  0.09993  0.49594  0.31904  1.0000
