data_image0
_chemical_formula_structural       Sm4H16C32N8Cl12
_chemical_formula_sum              "Sm4 H16 C32 N8 Cl12"
_cell_length_a       6.30209
_cell_length_b       7.15751
_cell_length_c       22.1562
_cell_angle_alpha    89.9995
_cell_angle_beta     90.0003
_cell_angle_gamma    89.9999

_space_group_name_H-M_alt    "P 1"
_space_group_IT_number       1

loop_
  _space_group_symop_operation_xyz
  'x, y, z'

loop_
  _atom_site_type_symbol
  _atom_site_label
  _atom_site_symmetry_multiplicity
  _atom_site_fract_x
  _atom_site_fract_y
  _atom_site_fract_z
  _atom_site_occupancy
  Sm  Sm1       1.0  0.45106  0.48959  0.25000  1.0000
  Sm  Sm2       1.0  0.95106  0.01042  0.75000  1.0000
  Sm  Sm3       1.0  0.04894  0.98959  0.25000  1.0000
  Sm  Sm4       1.0  0.54894  0.51041  0.75000  1.0000
  H   H1        1.0  0.12276  0.60959  0.10132  1.0000
  H   H2        1.0  0.62281  0.89041  0.89868  1.0000
  H   H3        1.0  0.37723  0.10958  0.39869  1.0000
  H   H4        1.0  0.87722  0.39042  0.60131  1.0000
  H   H5        1.0  0.87721  0.39042  0.89868  1.0000
  H   H6        1.0  0.37721  0.10957  0.10131  1.0000
  H   H7        1.0  0.62279  0.89041  0.60132  1.0000
  H   H8        1.0  0.12279  0.60960  0.39869  1.0000
  H   H9        1.0  0.64303  0.35437  0.98783  1.0000
  H   H10       1.0  0.14301  0.14560  0.01216  1.0000
  H   H11       1.0  0.85698  0.85438  0.51217  1.0000
  H   H12       1.0  0.35699  0.64563  0.48784  1.0000
  H   H13       1.0  0.35697  0.64561  0.01217  1.0000
  H   H14       1.0  0.85696  0.85439  0.98784  1.0000
  H   H15       1.0  0.14303  0.14562  0.48783  1.0000
  H   H16       1.0  0.64306  0.35439  0.51217  1.0000
  C   C1        1.0  0.73408  0.46249  0.10137  1.0000
  C   C2        1.0  0.23412  0.03750  0.89863  1.0000
  C   C3        1.0  0.76591  0.96250  0.39863  1.0000
  C   C4        1.0  0.26589  0.53752  0.60138  1.0000
  C   C5        1.0  0.26589  0.53750  0.89863  1.0000
  C   C6        1.0  0.76591  0.96250  0.10138  1.0000
  C   C7        1.0  0.23412  0.03750  0.60137  1.0000
  C   C8        1.0  0.73410  0.46248  0.39863  1.0000
  C   C9        1.0  0.86843  0.47939  0.05000  1.0000
  C   C10       1.0  0.36845  0.02060  0.95000  1.0000
  C   C11       1.0  0.63156  0.97939  0.45000  1.0000
  C   C12       1.0  0.13153  0.52058  0.55000  1.0000
  C   C13       1.0  0.13155  0.52061  0.95001  1.0000
  C   C14       1.0  0.63155  0.97940  0.05000  1.0000
  C   C15       1.0  0.36843  0.02062  0.54999  1.0000
  C   C16       1.0  0.86841  0.47941  0.45001  1.0000
  C   C17       1.0  0.06988  0.56173  0.05708  1.0000
  C   C18       1.0  0.56990  0.93824  0.94292  1.0000
  C   C19       1.0  0.43009  0.06177  0.44292  1.0000
  C   C20       1.0  0.93011  0.43824  0.55708  1.0000
  C   C21       1.0  0.93012  0.43823  0.94291  1.0000
  C   C22       1.0  0.43011  0.06174  0.05708  1.0000
  C   C23       1.0  0.56991  0.93824  0.55709  1.0000
  C   C24       1.0  0.06989  0.56176  0.44292  1.0000
  C   C25       1.0  0.79919  0.41784  0.99292  1.0000
  C   C26       1.0  0.29920  0.08216  0.00707  1.0000
  C   C27       1.0  0.70076  0.91784  0.50708  1.0000
  C   C28       1.0  0.20078  0.58217  0.49292  1.0000
  C   C29       1.0  0.20078  0.58218  0.00707  1.0000
  C   C30       1.0  0.70079  0.91784  0.99292  1.0000
  C   C31       1.0  0.29922  0.08216  0.49293  1.0000
  C   C32       1.0  0.79921  0.41784  0.50707  1.0000
  N   N1        1.0  0.62584  0.45532  0.14387  1.0000
  N   N2        1.0  0.12586  0.04468  0.85613  1.0000
  N   N3        1.0  0.87417  0.95531  0.35613  1.0000
  N   N4        1.0  0.37417  0.54468  0.64387  1.0000
  N   N5        1.0  0.37416  0.54469  0.85613  1.0000
  N   N6        1.0  0.87417  0.95533  0.14388  1.0000
  N   N7        1.0  0.12586  0.04469  0.64387  1.0000
  N   N8        1.0  0.62585  0.45534  0.35613  1.0000
  Cl  Cl1       1.0  0.32604  0.78507  0.17583  1.0000
  Cl  Cl2       1.0  0.82604  0.71493  0.82417  1.0000
  Cl  Cl3       1.0  0.17396  0.28507  0.32417  1.0000
  Cl  Cl4       1.0  0.67396  0.21493  0.67583  1.0000
  Cl  Cl5       1.0  0.67396  0.21492  0.82417  1.0000
  Cl  Cl6       1.0  0.17396  0.28508  0.17583  1.0000
  Cl  Cl7       1.0  0.82604  0.71493  0.67583  1.0000
  Cl  Cl8       1.0  0.32604  0.78508  0.32417  1.0000
  Cl  Cl9       1.0  0.84687  0.65176  0.25000  1.0000
  Cl  Cl10      1.0  0.34687  0.84825  0.75000  1.0000
  Cl  Cl11      1.0  0.65313  0.15175  0.25000  1.0000
  Cl  Cl12      1.0  0.15313  0.34826  0.75000  1.0000
