data_image0
_chemical_formula_structural       Gd4H16C32N8Cl12
_chemical_formula_sum              "Gd4 H16 C32 N8 Cl12"
_cell_length_a       6.27243
_cell_length_b       7.08358
_cell_length_c       22.0536
_cell_angle_alpha    89.9998
_cell_angle_beta     90
_cell_angle_gamma    89.9995

_space_group_name_H-M_alt    "P 1"
_space_group_IT_number       1

loop_
  _space_group_symop_operation_xyz
  'x, y, z'

loop_
  _atom_site_type_symbol
  _atom_site_label
  _atom_site_symmetry_multiplicity
  _atom_site_fract_x
  _atom_site_fract_y
  _atom_site_fract_z
  _atom_site_occupancy
  Gd  Gd1       1.0  0.04774  0.50745  0.25000  1.0000
  Gd  Gd2       1.0  0.54775  0.99256  0.75000  1.0000
  Gd  Gd3       1.0  0.45228  0.00744  0.25000  1.0000
  Gd  Gd4       1.0  0.95226  0.49257  0.75000  1.0000
  H   H1        1.0  0.85949  0.64517  0.98773  1.0000
  H   H2        1.0  0.35952  0.85481  0.01229  1.0000
  H   H3        1.0  0.64052  0.14518  0.51229  1.0000
  H   H4        1.0  0.14046  0.35479  0.48772  1.0000
  H   H5        1.0  0.14047  0.35481  0.01228  1.0000
  H   H6        1.0  0.64053  0.14519  0.98771  1.0000
  H   H7        1.0  0.35952  0.85481  0.48771  1.0000
  H   H8        1.0  0.85947  0.64520  0.51228  1.0000
  H   H9        1.0  0.37655  0.38875  0.10168  1.0000
  H   H10       1.0  0.87663  0.11126  0.89830  1.0000
  H   H11       1.0  0.12340  0.88876  0.39831  1.0000
  H   H12       1.0  0.62339  0.61124  0.60168  1.0000
  H   H13       1.0  0.62341  0.61123  0.89832  1.0000
  H   H14       1.0  0.12341  0.88875  0.10169  1.0000
  H   H15       1.0  0.87662  0.11124  0.60169  1.0000
  H   H16       1.0  0.37654  0.38875  0.39832  1.0000
  C   C1        1.0  0.63260  0.51954  0.05020  1.0000
  C   C2        1.0  0.13267  0.98046  0.94980  1.0000
  C   C3        1.0  0.86737  0.01954  0.44980  1.0000
  C   C4        1.0  0.36733  0.48044  0.55019  1.0000
  C   C5        1.0  0.36735  0.48044  0.94980  1.0000
  C   C6        1.0  0.86739  0.01954  0.05020  1.0000
  C   C7        1.0  0.13265  0.98044  0.55019  1.0000
  C   C8        1.0  0.63259  0.51954  0.44981  1.0000
  C   C9        1.0  0.76779  0.53488  0.10182  1.0000
  C   C10       1.0  0.26784  0.96512  0.89818  1.0000
  C   C11       1.0  0.73218  0.03490  0.39818  1.0000
  C   C12       1.0  0.23215  0.46509  0.60182  1.0000
  C   C13       1.0  0.23216  0.46509  0.89819  1.0000
  C   C14       1.0  0.73220  0.03489  0.10182  1.0000
  C   C15       1.0  0.26785  0.96511  0.60182  1.0000
  C   C16       1.0  0.76781  0.53492  0.39819  1.0000
  C   C17       1.0  0.42970  0.43739  0.05730  1.0000
  C   C18       1.0  0.92975  0.06261  0.94271  1.0000
  C   C19       1.0  0.07029  0.93739  0.44271  1.0000
  C   C20       1.0  0.57026  0.56260  0.55729  1.0000
  C   C21       1.0  0.57027  0.56258  0.94272  1.0000
  C   C22       1.0  0.07029  0.93739  0.05730  1.0000
  C   C23       1.0  0.92974  0.06260  0.55729  1.0000
  C   C24       1.0  0.42971  0.43739  0.44271  1.0000
  C   C25       1.0  0.70225  0.58191  0.99291  1.0000
  C   C26       1.0  0.20226  0.91809  0.00709  1.0000
  C   C27       1.0  0.79774  0.08192  0.50711  1.0000
  C   C28       1.0  0.29771  0.41807  0.49291  1.0000
  C   C29       1.0  0.29772  0.41807  0.00710  1.0000
  C   C30       1.0  0.79775  0.08194  0.99289  1.0000
  C   C31       1.0  0.20226  0.91808  0.49290  1.0000
  C   C32       1.0  0.70225  0.58194  0.50710  1.0000
  N   N1        1.0  0.87606  0.54084  0.14465  1.0000
  N   N2        1.0  0.37606  0.95917  0.85535  1.0000
  N   N3        1.0  0.62394  0.04085  0.35535  1.0000
  N   N4        1.0  0.12394  0.45917  0.64465  1.0000
  N   N5        1.0  0.12397  0.45916  0.85535  1.0000
  N   N6        1.0  0.62394  0.04084  0.14464  1.0000
  N   N7        1.0  0.37609  0.95917  0.64464  1.0000
  N   N8        1.0  0.87604  0.54084  0.35535  1.0000
  Cl  Cl1       1.0  0.17615  0.21250  0.17669  1.0000
  Cl  Cl2       1.0  0.67615  0.28750  0.82331  1.0000
  Cl  Cl3       1.0  0.32386  0.71251  0.32331  1.0000
  Cl  Cl4       1.0  0.82386  0.78751  0.67669  1.0000
  Cl  Cl5       1.0  0.82386  0.78750  0.82331  1.0000
  Cl  Cl6       1.0  0.32387  0.71250  0.17669  1.0000
  Cl  Cl7       1.0  0.67615  0.28750  0.67669  1.0000
  Cl  Cl8       1.0  0.17615  0.21250  0.32331  1.0000
  Cl  Cl9       1.0  0.65636  0.34295  0.25000  1.0000
  Cl  Cl10      1.0  0.15637  0.15704  0.74999  1.0000
  Cl  Cl11      1.0  0.84365  0.84296  0.25000  1.0000
  Cl  Cl12      1.0  0.34366  0.65706  0.75000  1.0000
