data_image0
_chemical_formula_structural       Tb4H16C32N8Cl12
_chemical_formula_sum              "Tb4 H16 C32 N8 Cl12"
_cell_length_a       6.25894
_cell_length_b       7.05718
_cell_length_c       22.0627
_cell_angle_alpha    89.9981
_cell_angle_beta     90.0052
_cell_angle_gamma    90.0002

_space_group_name_H-M_alt    "P 1"
_space_group_IT_number       1

loop_
  _space_group_symop_operation_xyz
  'x, y, z'

loop_
  _atom_site_type_symbol
  _atom_site_label
  _atom_site_symmetry_multiplicity
  _atom_site_fract_x
  _atom_site_fract_y
  _atom_site_fract_z
  _atom_site_occupancy
  Tb  Tb1       1.0  0.45319  0.99165  0.25000  1.0000
  Tb  Tb2       1.0  0.95318  0.50835  0.75000  1.0000
  Tb  Tb3       1.0  0.04682  0.49165  0.25000  1.0000
  Tb  Tb4       1.0  0.54682  0.00834  0.75000  1.0000
  H   H1        1.0  0.12679  0.11007  0.10152  1.0000
  H   H2        1.0  0.62680  0.38993  0.89848  1.0000
  H   H3        1.0  0.37319  0.61008  0.39847  1.0000
  H   H4        1.0  0.87319  0.88994  0.60151  1.0000
  H   H5        1.0  0.87319  0.88993  0.89848  1.0000
  H   H6        1.0  0.37319  0.61008  0.10153  1.0000
  H   H7        1.0  0.62678  0.38994  0.60151  1.0000
  H   H8        1.0  0.12683  0.11006  0.39848  1.0000
  H   H9        1.0  0.63862  0.85610  0.98832  1.0000
  H   H10       1.0  0.13867  0.64387  0.01169  1.0000
  H   H11       1.0  0.86139  0.35612  0.51168  1.0000
  H   H12       1.0  0.36137  0.14388  0.48832  1.0000
  H   H13       1.0  0.36136  0.14387  0.01168  1.0000
  H   H14       1.0  0.86137  0.35611  0.98831  1.0000
  H   H15       1.0  0.13864  0.64388  0.48832  1.0000
  H   H16       1.0  0.63863  0.85612  0.51168  1.0000
  C   C1        1.0  0.86795  0.98027  0.05046  1.0000
  C   C2        1.0  0.36798  0.51972  0.94954  1.0000
  C   C3        1.0  0.63206  0.48028  0.44954  1.0000
  C   C4        1.0  0.13204  0.01974  0.55046  1.0000
  C   C5        1.0  0.13203  0.01971  0.94953  1.0000
  C   C6        1.0  0.63201  0.48027  0.05046  1.0000
  C   C7        1.0  0.36795  0.51973  0.55046  1.0000
  C   C8        1.0  0.86796  0.98027  0.44955  1.0000
  C   C9        1.0  0.73310  0.96477  0.10226  1.0000
  C   C10       1.0  0.23312  0.53521  0.89775  1.0000
  C   C11       1.0  0.76689  0.46477  0.39775  1.0000
  C   C12       1.0  0.26694  0.03526  0.60224  1.0000
  C   C13       1.0  0.26688  0.03524  0.89775  1.0000
  C   C14       1.0  0.76688  0.46478  0.10224  1.0000
  C   C15       1.0  0.23312  0.53522  0.60225  1.0000
  C   C16       1.0  0.73314  0.96476  0.39775  1.0000
  C   C17       1.0  0.79689  0.91862  0.99321  1.0000
  C   C18       1.0  0.29688  0.58139  0.00680  1.0000
  C   C19       1.0  0.70313  0.41863  0.50680  1.0000
  C   C20       1.0  0.20314  0.08138  0.49320  1.0000
  C   C21       1.0  0.20314  0.08139  0.00680  1.0000
  C   C22       1.0  0.70314  0.41861  0.99320  1.0000
  C   C23       1.0  0.29687  0.58140  0.49319  1.0000
  C   C24       1.0  0.79688  0.91861  0.50680  1.0000
  C   C25       1.0  0.07189  0.06204  0.05720  1.0000
  C   C26       1.0  0.57194  0.43793  0.94279  1.0000
  C   C27       1.0  0.42811  0.56207  0.44279  1.0000
  C   C28       1.0  0.92807  0.93795  0.55721  1.0000
  C   C29       1.0  0.92805  0.93793  0.94279  1.0000
  C   C30       1.0  0.42806  0.56207  0.05721  1.0000
  C   C31       1.0  0.57195  0.43795  0.55721  1.0000
  C   C32       1.0  0.07189  0.06207  0.44280  1.0000
  N   N1        1.0  0.62515  0.95880  0.14518  1.0000
  N   N2        1.0  0.12516  0.54119  0.85482  1.0000
  N   N3        1.0  0.87483  0.45882  0.35483  1.0000
  N   N4        1.0  0.37481  0.04118  0.64518  1.0000
  N   N5        1.0  0.37482  0.04117  0.85482  1.0000
  N   N6        1.0  0.87482  0.45881  0.14517  1.0000
  N   N7        1.0  0.12516  0.54119  0.64518  1.0000
  N   N8        1.0  0.62516  0.95881  0.35483  1.0000
  Cl  Cl1       1.0  0.32297  0.28641  0.17713  1.0000
  Cl  Cl2       1.0  0.82296  0.21358  0.82286  1.0000
  Cl  Cl3       1.0  0.17703  0.78641  0.32287  1.0000
  Cl  Cl4       1.0  0.67704  0.71358  0.67713  1.0000
  Cl  Cl5       1.0  0.67703  0.71358  0.82286  1.0000
  Cl  Cl6       1.0  0.17704  0.78642  0.17713  1.0000
  Cl  Cl7       1.0  0.82297  0.21358  0.67713  1.0000
  Cl  Cl8       1.0  0.32297  0.28642  0.32287  1.0000
  Cl  Cl9       1.0  0.84174  0.15796  0.25000  1.0000
  Cl  Cl10      1.0  0.34174  0.34204  0.75000  1.0000
  Cl  Cl11      1.0  0.65825  0.65796  0.25000  1.0000
  Cl  Cl12      1.0  0.15825  0.84203  0.75000  1.0000
