data_image0
_chemical_formula_structural       Zn3Si2H30C32O10
_chemical_formula_sum              "Zn3 Si2 H30 C32 O10"
_cell_length_a       6.24271
_cell_length_b       12.2292
_cell_length_c       14.2883
_cell_angle_alpha    112.806
_cell_angle_beta     97.1757
_cell_angle_gamma    103.657

_space_group_name_H-M_alt    "P 1"
_space_group_IT_number       1

loop_
  _space_group_symop_operation_xyz
  'x, y, z'

loop_
  _atom_site_type_symbol
  _atom_site_label
  _atom_site_symmetry_multiplicity
  _atom_site_fract_x
  _atom_site_fract_y
  _atom_site_fract_z
  _atom_site_occupancy
  Zn  Zn1       1.0  0.50001  0.50000  0.00000  1.0000
  Zn  Zn2       1.0  0.94674  0.44423  0.88272  1.0000
  Zn  Zn3       1.0  0.05327  0.55577  0.11727  1.0000
  Si  Si1       1.0  0.26954  0.76113  0.51551  1.0000
  Si  Si2       1.0  0.73045  0.23888  0.48450  1.0000
  H   H1        1.0  0.72996  0.34957  0.99286  1.0000
  H   H2        1.0  0.27005  0.65043  0.00712  1.0000
  H   H3        1.0  0.15816  0.73945  0.70252  1.0000
  H   H4        1.0  0.84185  0.26056  0.29747  1.0000
  H   H5        1.0  0.29318  0.64808  0.81621  1.0000
  H   H6        1.0  0.70682  0.35191  0.18378  1.0000
  H   H7        1.0  0.80021  0.56635  0.64574  1.0000
  H   H8        1.0  0.19980  0.43365  0.35425  1.0000
  H   H9        1.0  0.65838  0.65184  0.52792  1.0000
  H   H10       1.0  0.34162  0.34817  0.47208  1.0000
  H   H11       1.0  0.89863  0.88227  0.52076  1.0000
  H   H12       1.0  0.10135  0.11772  0.47925  1.0000
  H   H13       1.0  0.85799  0.08052  0.64417  1.0000
  H   H14       1.0  0.14197  0.91946  0.35586  1.0000
  H   H15       1.0  0.51188  0.16546  0.83995  1.0000
  H   H16       1.0  0.48811  0.83454  0.16007  1.0000
  H   H17       1.0  0.55645  0.96894  0.71617  1.0000
  H   H18       1.0  0.44355  0.03106  0.28383  1.0000
  H   H19       1.0  0.54044  0.72162  0.40110  1.0000
  H   H20       1.0  0.45956  0.27839  0.59890  1.0000
  H   H21       1.0  0.58440  0.88528  0.46812  1.0000
  H   H22       1.0  0.41560  0.11474  0.53188  1.0000
  H   H23       1.0  0.34802  0.78886  0.36050  1.0000
  H   H24       1.0  0.65197  0.21115  0.63950  1.0000
  H   H25       1.0  0.02872  0.57622  0.35782  1.0000
  H   H26       1.0  0.97129  0.42379  0.64217  1.0000
  H   H27       1.0  0.88250  0.68657  0.39802  1.0000
  H   H28       1.0  0.11749  0.31343  0.60197  1.0000
  H   H29       1.0  0.90045  0.58977  0.46388  1.0000
  H   H30       1.0  0.09955  0.41022  0.53611  1.0000
  C   C1        1.0  0.39606  0.70080  0.60493  1.0000
  C   C2        1.0  0.60393  0.29920  0.39506  1.0000
  C   C3        1.0  0.29775  0.70043  0.68843  1.0000
  C   C4        1.0  0.70224  0.29957  0.31157  1.0000
  C   C5        1.0  0.37435  0.65066  0.75361  1.0000
  C   C6        1.0  0.62564  0.34933  0.24639  1.0000
  C   C7        1.0  0.55574  0.60159  0.73844  1.0000
  C   C8        1.0  0.44426  0.39841  0.26155  1.0000
  C   C9        1.0  0.65914  0.60420  0.65750  1.0000
  C   C10       1.0  0.34085  0.39579  0.34249  1.0000
  C   C11       1.0  0.57859  0.65268  0.59157  1.0000
  C   C12       1.0  0.42140  0.34733  0.40842  1.0000
  C   C13       1.0  0.63061  0.54473  0.80711  1.0000
  C   C14       1.0  0.36941  0.45527  0.19289  1.0000
  C   C15       1.0  0.23022  0.91030  0.60827  1.0000
  C   C16       1.0  0.76978  0.08969  0.39174  1.0000
  C   C17       1.0  0.03453  0.94389  0.59041  1.0000
  C   C18       1.0  0.96547  0.05610  0.40960  1.0000
  C   C19       1.0  0.01000  0.05504  0.65961  1.0000
  C   C20       1.0  0.98996  0.94494  0.34040  1.0000
  C   C21       1.0  0.18134  0.13519  0.75047  1.0000
  C   C22       1.0  0.81864  0.86480  0.24955  1.0000
  C   C23       1.0  0.37809  0.10276  0.76963  1.0000
  C   C24       1.0  0.62190  0.89723  0.23038  1.0000
  C   C25       1.0  0.40218  0.99243  0.69941  1.0000
  C   C26       1.0  0.59781  0.00756  0.30059  1.0000
  C   C27       1.0  0.15775  0.25413  0.82619  1.0000
  C   C28       1.0  0.84226  0.74588  0.17382  1.0000
  C   C29       1.0  0.45554  0.79311  0.42964  1.0000
  C   C30       1.0  0.54445  0.20689  0.57036  1.0000
  C   C31       1.0  0.99342  0.64303  0.42702  1.0000
  C   C32       1.0  0.00659  0.35698  0.57297  1.0000
  O   O1        1.0  0.78664  0.43229  0.99557  1.0000
  O   O2        1.0  0.21337  0.56772  0.00442  1.0000
  O   O3        1.0  0.49976  0.51987  0.86173  1.0000
  O   O4        1.0  0.50028  0.48014  0.13827  1.0000
  O   O5        1.0  0.82347  0.52336  0.80407  1.0000
  O   O6        1.0  0.17655  0.47664  0.19590  1.0000
  O   O7        1.0  0.99144  0.28804  0.79562  1.0000
  O   O8        1.0  0.00857  0.71196  0.20439  1.0000
  O   O9        1.0  0.29765  0.31344  0.91469  1.0000
  O   O10       1.0  0.70240  0.68657  0.08532  1.0000
