data_image0
_chemical_formula_structural       Mn2H14C16N2O16
_chemical_formula_sum              "Mn2 H14 C16 N2 O16"
_cell_length_a       7.61076
_cell_length_b       7.74986
_cell_length_c       9.89853
_cell_angle_alpha    68.7692
_cell_angle_beta     79.0209
_cell_angle_gamma    62.7737

_space_group_name_H-M_alt    "P 1"
_space_group_IT_number       1

loop_
  _space_group_symop_operation_xyz
  'x, y, z'

loop_
  _atom_site_type_symbol
  _atom_site_label
  _atom_site_symmetry_multiplicity
  _atom_site_fract_x
  _atom_site_fract_y
  _atom_site_fract_z
  _atom_site_occupancy
  Mn  Mn1       1.0  0.79230  0.72075  0.02235  1.0000
  Mn  Mn2       1.0  0.20770  0.27926  0.97765  1.0000
  H   H1        1.0  0.14076  0.52905  0.64669  1.0000
  H   H2        1.0  0.85924  0.47095  0.35331  1.0000
  H   H3        1.0  0.25455  0.03433  0.62857  1.0000
  H   H4        1.0  0.74545  0.96567  0.37143  1.0000
  H   H5        1.0  0.35614  0.08143  0.37048  1.0000
  H   H6        1.0  0.64385  0.91857  0.62953  1.0000
  H   H7        1.0  0.63753  0.61528  0.83906  1.0000
  H   H8        1.0  0.36247  0.38472  0.16094  1.0000
  H   H9        1.0  0.45435  0.75967  0.91096  1.0000
  H   H10       1.0  0.54565  0.24033  0.08905  1.0000
  H   H11       1.0  0.08142  0.78344  0.05788  1.0000
  H   H12       1.0  0.91858  0.21656  0.94212  1.0000
  H   H13       1.0  0.90593  0.91186  0.14300  1.0000
  H   H14       1.0  0.09407  0.08814  0.85700  1.0000
  C   C1        1.0  0.40700  0.85089  0.21060  1.0000
  C   C2        1.0  0.59300  0.14910  0.78940  1.0000
  C   C3        1.0  0.32457  0.82258  0.36423  1.0000
  C   C4        1.0  0.67544  0.17742  0.63577  1.0000
  C   C5        1.0  0.26040  0.66969  0.44561  1.0000
  C   C6        1.0  0.73960  0.33031  0.55439  1.0000
  C   C7        1.0  0.18993  0.64871  0.58881  1.0000
  C   C8        1.0  0.81008  0.35129  0.41118  1.0000
  C   C9        1.0  0.19392  0.77592  0.65717  1.0000
  C   C10       1.0  0.80608  0.22407  0.34283  1.0000
  C   C11       1.0  0.25431  0.93187  0.57704  1.0000
  C   C12       1.0  0.74569  0.06813  0.42296  1.0000
  C   C13       1.0  0.31437  0.95700  0.43216  1.0000
  C   C14       1.0  0.68563  0.04301  0.56784  1.0000
  C   C15       1.0  0.14601  0.73851  0.81530  1.0000
  C   C16       1.0  0.85400  0.26148  0.18470  1.0000
  N   N1        1.0  0.27421  0.52140  0.38252  1.0000
  N   N2        1.0  0.72579  0.47860  0.61748  1.0000
  O   O1        1.0  0.59372  0.76292  0.19792  1.0000
  O   O2        1.0  0.40628  0.23708  0.80208  1.0000
  O   O3        1.0  0.28714  0.96915  0.10898  1.0000
  O   O4        1.0  0.71286  0.03085  0.89102  1.0000
  O   O5        1.0  0.19514  0.82138  0.88260  1.0000
  O   O6        1.0  0.80486  0.17861  0.11740  1.0000
  O   O7        1.0  0.05887  0.61919  0.87916  1.0000
  O   O8        1.0  0.94113  0.38081  0.12084  1.0000
  O   O9        1.0  0.35713  0.52992  0.25936  1.0000
  O   O10       1.0  0.64288  0.47008  0.74064  1.0000
  O   O11       1.0  0.20890  0.39333  0.45113  1.0000
  O   O12       1.0  0.79109  0.60668  0.54887  1.0000
  O   O13       1.0  0.59980  0.70355  0.90102  1.0000
  O   O14       1.0  0.40020  0.29645  0.09898  1.0000
  O   O15       1.0  0.97545  0.77333  0.13280  1.0000
  O   O16       1.0  0.02455  0.22667  0.86720  1.0000
