data_image0
_chemical_formula_structural       Eu2H32C54N4O14
_chemical_formula_sum              "Eu2 H32 C54 N4 O14"
_cell_length_a       10.5097
_cell_length_b       10.7978
_cell_length_c       11.7449
_cell_angle_alpha    76.8613
_cell_angle_beta     83.9693
_cell_angle_gamma    66.0417

_space_group_name_H-M_alt    "P 1"
_space_group_IT_number       1

loop_
  _space_group_symop_operation_xyz
  'x, y, z'

loop_
  _atom_site_type_symbol
  _atom_site_label
  _atom_site_symmetry_multiplicity
  _atom_site_fract_x
  _atom_site_fract_y
  _atom_site_fract_z
  _atom_site_occupancy
  Eu  Eu1       1.0  0.98791  0.25224  0.09975  1.0000
  Eu  Eu2       1.0  0.01209  0.74777  0.90025  1.0000
  H   H1        1.0  0.21098  0.40736  0.96816  1.0000
  H   H2        1.0  0.78901  0.59264  0.03184  1.0000
  H   H3        1.0  0.45935  0.36203  0.92971  1.0000
  H   H4        1.0  0.54065  0.63797  0.07029  1.0000
  H   H5        1.0  0.64203  0.13924  0.03658  1.0000
  H   H6        1.0  0.35797  0.86075  0.96342  1.0000
  H   H7        1.0  0.69423  0.91340  0.17291  1.0000
  H   H8        1.0  0.30577  0.08660  0.82709  1.0000
  H   H9        1.0  0.61143  0.74874  0.31046  1.0000
  H   H10       1.0  0.38857  0.25126  0.68954  1.0000
  H   H11       1.0  0.41188  0.69328  0.41100  1.0000
  H   H12       1.0  0.58812  0.30672  0.58900  1.0000
  H   H13       1.0  0.15382  0.76959  0.44624  1.0000
  H   H14       1.0  0.84618  0.23041  0.55376  1.0000
  H   H15       1.0  0.99456  0.00078  0.33342  1.0000
  H   H16       1.0  0.00544  0.99922  0.66658  1.0000
  H   H17       1.0  0.69951  0.13066  0.40460  1.0000
  H   H18       1.0  0.30049  0.86933  0.59540  1.0000
  H   H19       1.0  0.47430  0.11508  0.48744  1.0000
  H   H20       1.0  0.52569  0.88492  0.51256  1.0000
  H   H21       1.0  0.24856  0.46643  0.22334  1.0000
  H   H22       1.0  0.75144  0.53357  0.77666  1.0000
  H   H23       1.0  0.47237  0.47936  0.14092  1.0000
  H   H24       1.0  0.52763  0.52064  0.85908  1.0000
  H   H25       1.0  0.23290  0.49635  0.46884  1.0000
  H   H26       1.0  0.76710  0.50365  0.53116  1.0000
  H   H27       1.0  0.13014  0.57177  0.65615  1.0000
  H   H28       1.0  0.86986  0.42823  0.34385  1.0000
  H   H29       1.0  0.01373  0.22355  0.75694  1.0000
  H   H30       1.0  0.98626  0.77645  0.24306  1.0000
  H   H31       1.0  0.11370  0.14938  0.56688  1.0000
  H   H32       1.0  0.88631  0.85062  0.43313  1.0000
  C   C1        1.0  0.28996  0.31048  0.01180  1.0000
  C   C2        1.0  0.71004  0.68953  0.98820  1.0000
  C   C3        1.0  0.43180  0.28418  0.99053  1.0000
  C   C4        1.0  0.56820  0.71582  0.00948  1.0000
  C   C5        1.0  0.53093  0.16272  0.04849  1.0000
  C   C6        1.0  0.46908  0.83728  0.95151  1.0000
  C   C7        1.0  0.48693  0.06735  0.12756  1.0000
  C   C8        1.0  0.51307  0.93264  0.87244  1.0000
  C   C9        1.0  0.58343  0.93818  0.18958  1.0000
  C   C10       1.0  0.41657  0.06182  0.81042  1.0000
  C   C11       1.0  0.53746  0.84781  0.26468  1.0000
  C   C12       1.0  0.46254  0.15219  0.73532  1.0000
  C   C13       1.0  0.39159  0.88108  0.28526  1.0000
  C   C14       1.0  0.60841  0.11892  0.71474  1.0000
  C   C15       1.0  0.33911  0.79253  0.36425  1.0000
  C   C16       1.0  0.66089  0.20747  0.63575  1.0000
  C   C17       1.0  0.19709  0.83389  0.38345  1.0000
  C   C18       1.0  0.80291  0.16611  0.61655  1.0000
  C   C19       1.0  0.10750  0.96284  0.32123  1.0000
  C   C20       1.0  0.89250  0.03716  0.67877  1.0000
  C   C21       1.0  0.29291  0.00918  0.22568  1.0000
  C   C22       1.0  0.70709  0.99082  0.77432  1.0000
  C   C23       1.0  0.34146  0.10267  0.14386  1.0000
  C   C24       1.0  0.65854  0.89733  0.85614  1.0000
  C   C25       1.0  0.92667  0.00965  0.02648  1.0000
  C   C26       1.0  0.07333  0.99033  0.97351  1.0000
  C   C27       1.0  0.73369  0.31255  0.21883  1.0000
  C   C28       1.0  0.26630  0.68745  0.78118  1.0000
  C   C29       1.0  0.59921  0.30801  0.26986  1.0000
  C   C30       1.0  0.40079  0.69199  0.73014  1.0000
  C   C31       1.0  0.60002  0.20424  0.36672  1.0000
  C   C32       1.0  0.39998  0.79576  0.63328  1.0000
  C   C33       1.0  0.47592  0.19490  0.41217  1.0000
  C   C34       1.0  0.52409  0.80510  0.58783  1.0000
  C   C35       1.0  0.35049  0.29010  0.36010  1.0000
  C   C36       1.0  0.64951  0.70990  0.63990  1.0000
  C   C37       1.0  0.34706  0.39399  0.26351  1.0000
  C   C38       1.0  0.65294  0.60601  0.73649  1.0000
  C   C39       1.0  0.47230  0.40172  0.21847  1.0000
  C   C40       1.0  0.52770  0.59828  0.78153  1.0000
  C   C41       1.0  0.17746  0.31902  0.50811  1.0000
  C   C42       1.0  0.82254  0.68098  0.49189  1.0000
  C   C43       1.0  0.18479  0.43715  0.53234  1.0000
  C   C44       1.0  0.81521  0.56284  0.46766  1.0000
  C   C45       1.0  0.12769  0.47882  0.63639  1.0000
  C   C46       1.0  0.87231  0.52118  0.36360  1.0000
  C   C47       1.0  0.06535  0.40230  0.71762  1.0000
  C   C48       1.0  0.93465  0.59770  0.28238  1.0000
  C   C49       1.0  0.06005  0.28354  0.69239  1.0000
  C   C50       1.0  0.93995  0.71646  0.30761  1.0000
  C   C51       1.0  0.11513  0.24207  0.58785  1.0000
  C   C52       1.0  0.88487  0.75793  0.41215  1.0000
  C   C53       1.0  0.00867  0.44566  0.83051  1.0000
  C   C54       1.0  0.99133  0.55435  0.16949  1.0000
  N   N1        1.0  0.24520  0.22269  0.08562  1.0000
  N   N2        1.0  0.75480  0.77731  0.91438  1.0000
  N   N3        1.0  0.15328  0.04734  0.24384  1.0000
  N   N4        1.0  0.84672  0.95266  0.75616  1.0000
  O   O1        1.0  0.84658  0.23660  0.27578  1.0000
  O   O2        1.0  0.15342  0.76340  0.72422  1.0000
  O   O3        1.0  0.73567  0.38713  0.11784  1.0000
  O   O4        1.0  0.26433  0.61287  0.88216  1.0000
  O   O5        1.0  0.22768  0.27550  0.40447  1.0000
  O   O6        1.0  0.77232  0.72450  0.59553  1.0000
  O   O7        1.0  0.01126  0.55684  0.84681  1.0000
  O   O8        1.0  0.98874  0.44315  0.15319  1.0000
  O   O9        1.0  0.96091  0.36918  0.90607  1.0000
  O   O10       1.0  0.03909  0.63082  0.09393  1.0000
  O   O11       1.0  0.87509  0.92822  0.00942  1.0000
  O   O12       1.0  0.12492  0.07180  0.99058  1.0000
  O   O13       1.0  0.86991  0.10611  0.08291  1.0000
  O   O14       1.0  0.13008  0.89391  0.91710  1.0000
