data_image0
_chemical_formula_structural       Tb2H32C54N4O14
_chemical_formula_sum              "Tb2 H32 C54 N4 O14"
_cell_length_a       10.524
_cell_length_b       10.7228
_cell_length_c       11.7907
_cell_angle_alpha    76.9812
_cell_angle_beta     83.0677
_cell_angle_gamma    65.9433

_space_group_name_H-M_alt    "P 1"
_space_group_IT_number       1

loop_
  _space_group_symop_operation_xyz
  'x, y, z'

loop_
  _atom_site_type_symbol
  _atom_site_label
  _atom_site_symmetry_multiplicity
  _atom_site_fract_x
  _atom_site_fract_y
  _atom_site_fract_z
  _atom_site_occupancy
  Tb  Tb1       1.0  0.98961  0.25098  0.09911  1.0000
  Tb  Tb2       1.0  0.01039  0.74902  0.90089  1.0000
  H   H1        1.0  0.21157  0.40618  0.96659  1.0000
  H   H2        1.0  0.78843  0.59382  0.03341  1.0000
  H   H3        1.0  0.46012  0.36173  0.92829  1.0000
  H   H4        1.0  0.53988  0.63827  0.07171  1.0000
  H   H5        1.0  0.64166  0.14054  0.03637  1.0000
  H   H6        1.0  0.35834  0.85946  0.96363  1.0000
  H   H7        1.0  0.69261  0.91538  0.17391  1.0000
  H   H8        1.0  0.30739  0.08462  0.82609  1.0000
  H   H9        1.0  0.60843  0.75018  0.31140  1.0000
  H   H10       1.0  0.39157  0.24982  0.68860  1.0000
  H   H11       1.0  0.40753  0.69439  0.41152  1.0000
  H   H12       1.0  0.59247  0.30561  0.58848  1.0000
  H   H13       1.0  0.14884  0.77000  0.44523  1.0000
  H   H14       1.0  0.85116  0.23000  0.55477  1.0000
  H   H15       1.0  0.99121  0.00010  0.33099  1.0000
  H   H16       1.0  0.00880  0.99990  0.66901  1.0000
  H   H17       1.0  0.69979  0.13297  0.40304  1.0000
  H   H18       1.0  0.30021  0.86703  0.59696  1.0000
  H   H19       1.0  0.47423  0.11653  0.48667  1.0000
  H   H20       1.0  0.52576  0.88347  0.51333  1.0000
  H   H21       1.0  0.25094  0.46575  0.22331  1.0000
  H   H22       1.0  0.74906  0.53425  0.77669  1.0000
  H   H23       1.0  0.47536  0.47913  0.13968  1.0000
  H   H24       1.0  0.52464  0.52087  0.86032  1.0000
  H   H25       1.0  0.23130  0.49963  0.46843  1.0000
  H   H26       1.0  0.76870  0.50038  0.53157  1.0000
  H   H27       1.0  0.12813  0.57567  0.65645  1.0000
  H   H28       1.0  0.87187  0.42433  0.34355  1.0000
  H   H29       1.0  0.01610  0.22222  0.75939  1.0000
  H   H30       1.0  0.98390  0.77778  0.24061  1.0000
  H   H31       1.0  0.11661  0.14758  0.56865  1.0000
  H   H32       1.0  0.88338  0.85242  0.43135  1.0000
  C   C1        1.0  0.29002  0.30954  0.01029  1.0000
  C   C2        1.0  0.70998  0.69046  0.98971  1.0000
  C   C3        1.0  0.43200  0.28393  0.98938  1.0000
  C   C4        1.0  0.56800  0.71607  0.01062  1.0000
  C   C5        1.0  0.53059  0.16336  0.04797  1.0000
  C   C6        1.0  0.46941  0.83664  0.95203  1.0000
  C   C7        1.0  0.48592  0.06788  0.12721  1.0000
  C   C8        1.0  0.51408  0.93212  0.87278  1.0000
  C   C9        1.0  0.58167  0.93950  0.19001  1.0000
  C   C10       1.0  0.41833  0.06050  0.80998  1.0000
  C   C11       1.0  0.53498  0.84889  0.26512  1.0000
  C   C12       1.0  0.46502  0.15111  0.73488  1.0000
  C   C13       1.0  0.38891  0.88144  0.28494  1.0000
  C   C14       1.0  0.61109  0.11856  0.71506  1.0000
  C   C15       1.0  0.33539  0.79310  0.36415  1.0000
  C   C16       1.0  0.66462  0.20689  0.63585  1.0000
  C   C17       1.0  0.19306  0.83418  0.38250  1.0000
  C   C18       1.0  0.80694  0.16582  0.61750  1.0000
  C   C19       1.0  0.10426  0.96239  0.31928  1.0000
  C   C20       1.0  0.89574  0.03760  0.68072  1.0000
  C   C21       1.0  0.29099  0.00868  0.22441  1.0000
  C   C22       1.0  0.70901  0.99132  0.77559  1.0000
  C   C23       1.0  0.34043  0.10217  0.14270  1.0000
  C   C24       1.0  0.65957  0.89782  0.85730  1.0000
  C   C25       1.0  0.92675  0.00988  0.02726  1.0000
  C   C26       1.0  0.07325  0.99012  0.97274  1.0000
  C   C27       1.0  0.73592  0.31351  0.21682  1.0000
  C   C28       1.0  0.26408  0.68648  0.78318  1.0000
  C   C29       1.0  0.60091  0.30909  0.26829  1.0000
  C   C30       1.0  0.39909  0.69091  0.73171  1.0000
  C   C31       1.0  0.60080  0.20584  0.36537  1.0000
  C   C32       1.0  0.39920  0.79416  0.63463  1.0000
  C   C33       1.0  0.47648  0.19605  0.41129  1.0000
  C   C34       1.0  0.52351  0.80395  0.58871  1.0000
  C   C35       1.0  0.35166  0.29050  0.35966  1.0000
  C   C36       1.0  0.64834  0.70950  0.64034  1.0000
  C   C37       1.0  0.34911  0.39382  0.26288  1.0000
  C   C38       1.0  0.65089  0.60618  0.73712  1.0000
  C   C39       1.0  0.47464  0.40184  0.21726  1.0000
  C   C40       1.0  0.52536  0.59816  0.78274  1.0000
  C   C41       1.0  0.17812  0.31972  0.50883  1.0000
  C   C42       1.0  0.82188  0.68028  0.49117  1.0000
  C   C43       1.0  0.18402  0.43949  0.53263  1.0000
  C   C44       1.0  0.81598  0.56051  0.46737  1.0000
  C   C45       1.0  0.12660  0.48148  0.63709  1.0000
  C   C46       1.0  0.87340  0.51853  0.36291  1.0000
  C   C47       1.0  0.06544  0.40349  0.71916  1.0000
  C   C48       1.0  0.93455  0.59651  0.28084  1.0000
  C   C49       1.0  0.06155  0.28319  0.69427  1.0000
  C   C50       1.0  0.93845  0.71682  0.30573  1.0000
  C   C51       1.0  0.11696  0.24146  0.58936  1.0000
  C   C52       1.0  0.88304  0.75854  0.41064  1.0000
  C   C53       1.0  0.00893  0.44659  0.83275  1.0000
  C   C54       1.0  0.99107  0.55341  0.16724  1.0000
  N   N1        1.0  0.24461  0.22149  0.08403  1.0000
  N   N2        1.0  0.75539  0.77851  0.91597  1.0000
  N   N3        1.0  0.15100  0.04658  0.24157  1.0000
  N   N4        1.0  0.84900  0.95342  0.75843  1.0000
  O   O1        1.0  0.84790  0.23796  0.27319  1.0000
  O   O2        1.0  0.15210  0.76204  0.72681  1.0000
  O   O3        1.0  0.73978  0.38695  0.11596  1.0000
  O   O4        1.0  0.26022  0.61305  0.88404  1.0000
  O   O5        1.0  0.22849  0.27589  0.40474  1.0000
  O   O6        1.0  0.77151  0.72411  0.59525  1.0000
  O   O7        1.0  0.00895  0.55987  0.84844  1.0000
  O   O8        1.0  0.99104  0.44013  0.15156  1.0000
  O   O9        1.0  0.96413  0.36784  0.90939  1.0000
  O   O10       1.0  0.03587  0.63216  0.09061  1.0000
  O   O11       1.0  0.87489  0.92811  0.01070  1.0000
  O   O12       1.0  0.12512  0.07189  0.98930  1.0000
  O   O13       1.0  0.87050  0.10700  0.08427  1.0000
  O   O14       1.0  0.12949  0.89302  0.91572  1.0000
