data_image0
_chemical_formula_structural       Gd2H32C54N4O14
_chemical_formula_sum              "Gd2 H32 C54 N4 O14"
_cell_length_a       10.5504
_cell_length_b       10.7166
_cell_length_c       11.8168
_cell_angle_alpha    76.8598
_cell_angle_beta     83.0192
_cell_angle_gamma    65.8301

_space_group_name_H-M_alt    "P 1"
_space_group_IT_number       1

loop_
  _space_group_symop_operation_xyz
  'x, y, z'

loop_
  _atom_site_type_symbol
  _atom_site_label
  _atom_site_symmetry_multiplicity
  _atom_site_fract_x
  _atom_site_fract_y
  _atom_site_fract_z
  _atom_site_occupancy
  Gd  Gd1       1.0  0.98946  0.25135  0.09996  1.0000
  Gd  Gd2       1.0  0.01054  0.74865  0.90004  1.0000
  H   H1        1.0  0.21237  0.40580  0.96605  1.0000
  H   H2        1.0  0.78763  0.59420  0.03395  1.0000
  H   H3        1.0  0.46017  0.36111  0.92739  1.0000
  H   H4        1.0  0.53983  0.63889  0.07261  1.0000
  H   H5        1.0  0.64195  0.14005  0.03623  1.0000
  H   H6        1.0  0.35805  0.85995  0.96377  1.0000
  H   H7        1.0  0.69310  0.91433  0.17362  1.0000
  H   H8        1.0  0.30690  0.08567  0.82638  1.0000
  H   H9        1.0  0.60947  0.74934  0.31211  1.0000
  H   H10       1.0  0.39053  0.25066  0.68789  1.0000
  H   H11       1.0  0.40916  0.69393  0.41316  1.0000
  H   H12       1.0  0.59084  0.30607  0.58684  1.0000
  H   H13       1.0  0.15116  0.76937  0.44668  1.0000
  H   H14       1.0  0.84884  0.23063  0.55333  1.0000
  H   H15       1.0  0.99321  0.99980  0.33202  1.0000
  H   H16       1.0  0.00679  0.00020  0.66798  1.0000
  H   H17       1.0  0.69820  0.13333  0.40458  1.0000
  H   H18       1.0  0.30180  0.86667  0.59542  1.0000
  H   H19       1.0  0.47307  0.11664  0.48772  1.0000
  H   H20       1.0  0.52693  0.88336  0.51228  1.0000
  H   H21       1.0  0.25068  0.46347  0.22178  1.0000
  H   H22       1.0  0.74932  0.53653  0.77822  1.0000
  H   H23       1.0  0.47458  0.47742  0.13912  1.0000
  H   H24       1.0  0.52542  0.52259  0.86089  1.0000
  H   H25       1.0  0.23189  0.49764  0.46894  1.0000
  H   H26       1.0  0.76812  0.50236  0.53106  1.0000
  H   H27       1.0  0.12961  0.57267  0.65711  1.0000
  H   H28       1.0  0.87039  0.42733  0.34289  1.0000
  H   H29       1.0  0.01353  0.22174  0.75770  1.0000
  H   H30       1.0  0.98647  0.77827  0.24229  1.0000
  H   H31       1.0  0.11376  0.14772  0.56700  1.0000
  H   H32       1.0  0.88624  0.85228  0.43300  1.0000
  C   C1        1.0  0.29073  0.30932  0.01033  1.0000
  C   C2        1.0  0.70927  0.69068  0.98967  1.0000
  C   C3        1.0  0.43239  0.28344  0.98903  1.0000
  C   C4        1.0  0.56761  0.71656  0.01097  1.0000
  C   C5        1.0  0.53105  0.16298  0.04797  1.0000
  C   C6        1.0  0.46895  0.83702  0.95203  1.0000
  C   C7        1.0  0.48659  0.06764  0.12771  1.0000
  C   C8        1.0  0.51341  0.93236  0.87229  1.0000
  C   C9        1.0  0.58244  0.93889  0.19036  1.0000
  C   C10       1.0  0.41756  0.06111  0.80964  1.0000
  C   C11       1.0  0.53610  0.84839  0.26600  1.0000
  C   C12       1.0  0.46390  0.15161  0.73400  1.0000
  C   C13       1.0  0.39032  0.88131  0.28641  1.0000
  C   C14       1.0  0.60968  0.11869  0.71359  1.0000
  C   C15       1.0  0.33706  0.79286  0.36566  1.0000
  C   C16       1.0  0.66294  0.20714  0.63434  1.0000
  C   C17       1.0  0.19500  0.83382  0.38395  1.0000
  C   C18       1.0  0.80500  0.16618  0.61605  1.0000
  C   C19       1.0  0.10611  0.96217  0.32067  1.0000
  C   C20       1.0  0.89389  0.03783  0.67933  1.0000
  C   C21       1.0  0.29223  0.00882  0.22588  1.0000
  C   C22       1.0  0.70777  0.99118  0.77412  1.0000
  C   C23       1.0  0.34128  0.10231  0.14369  1.0000
  C   C24       1.0  0.65872  0.89769  0.85631  1.0000
  C   C25       1.0  0.92661  0.01017  0.02685  1.0000
  C   C26       1.0  0.07339  0.98983  0.97316  1.0000
  C   C27       1.0  0.73447  0.31323  0.21796  1.0000
  C   C28       1.0  0.26553  0.68677  0.78204  1.0000
  C   C29       1.0  0.59972  0.30846  0.26885  1.0000
  C   C30       1.0  0.40029  0.69154  0.73115  1.0000
  C   C31       1.0  0.59943  0.20568  0.36631  1.0000
  C   C32       1.0  0.40057  0.79432  0.63369  1.0000
  C   C33       1.0  0.47534  0.19580  0.41195  1.0000
  C   C34       1.0  0.52466  0.80420  0.58805  1.0000
  C   C35       1.0  0.35085  0.28961  0.35961  1.0000
  C   C36       1.0  0.64915  0.71039  0.64039  1.0000
  C   C37       1.0  0.34845  0.39227  0.26223  1.0000
  C   C38       1.0  0.65155  0.60773  0.73777  1.0000
  C   C39       1.0  0.47376  0.40049  0.21703  1.0000
  C   C40       1.0  0.52624  0.59951  0.78297  1.0000
  C   C41       1.0  0.17733  0.31860  0.50846  1.0000
  C   C42       1.0  0.82267  0.68140  0.49154  1.0000
  C   C43       1.0  0.18409  0.43774  0.53271  1.0000
  C   C44       1.0  0.81591  0.56226  0.46729  1.0000
  C   C45       1.0  0.12708  0.47924  0.63713  1.0000
  C   C46       1.0  0.87291  0.52076  0.36287  1.0000
  C   C47       1.0  0.06513  0.40169  0.71859  1.0000
  C   C48       1.0  0.93487  0.59832  0.28140  1.0000
  C   C49       1.0  0.05980  0.28231  0.69313  1.0000
  C   C50       1.0  0.94019  0.71769  0.30687  1.0000
  C   C51       1.0  0.11500  0.24094  0.58829  1.0000
  C   C52       1.0  0.88500  0.75906  0.41171  1.0000
  C   C53       1.0  0.00941  0.44450  0.83214  1.0000
  C   C54       1.0  0.99058  0.55551  0.16786  1.0000
  N   N1        1.0  0.24540  0.22177  0.08490  1.0000
  N   N2        1.0  0.75460  0.77823  0.91510  1.0000
  N   N3        1.0  0.15254  0.04667  0.24311  1.0000
  N   N4        1.0  0.84746  0.95333  0.75689  1.0000
  O   O1        1.0  0.84620  0.23741  0.27438  1.0000
  O   O2        1.0  0.15380  0.76259  0.72562  1.0000
  O   O3        1.0  0.73823  0.38751  0.11755  1.0000
  O   O4        1.0  0.26177  0.61249  0.88246  1.0000
  O   O5        1.0  0.22790  0.27510  0.40452  1.0000
  O   O6        1.0  0.77210  0.72489  0.59548  1.0000
  O   O7        1.0  0.01126  0.55690  0.84824  1.0000
  O   O8        1.0  0.98874  0.44310  0.15176  1.0000
  O   O9        1.0  0.96350  0.36655  0.90852  1.0000
  O   O10       1.0  0.03650  0.63345  0.09148  1.0000
  O   O11       1.0  0.87422  0.92956  0.00898  1.0000
  O   O12       1.0  0.12579  0.07044  0.99102  1.0000
  O   O13       1.0  0.87052  0.10656  0.08456  1.0000
  O   O14       1.0  0.12948  0.89344  0.91545  1.0000
