data_image0
_chemical_formula_structural       Ag8H8C32Cl8O16
_chemical_formula_sum              "Ag8 H8 C32 Cl8 O16"
_cell_length_a       6.24632
_cell_length_b       10.8161
_cell_length_c       14.7497
_cell_angle_alpha    92.9893
_cell_angle_beta     89.9999
_cell_angle_gamma    90

_space_group_name_H-M_alt    "P 1"
_space_group_IT_number       1

loop_
  _space_group_symop_operation_xyz
  'x, y, z'

loop_
  _atom_site_type_symbol
  _atom_site_label
  _atom_site_symmetry_multiplicity
  _atom_site_fract_x
  _atom_site_fract_y
  _atom_site_fract_z
  _atom_site_occupancy
  Ag  Ag1       1.0  0.04867  0.29923  0.55347  1.0000
  Ag  Ag2       1.0  0.54867  0.20076  0.44652  1.0000
  Ag  Ag3       1.0  0.95133  0.70077  0.44653  1.0000
  Ag  Ag4       1.0  0.45133  0.79924  0.55348  1.0000
  Ag  Ag5       1.0  0.66837  0.44335  0.58341  1.0000
  Ag  Ag6       1.0  0.16837  0.05665  0.41658  1.0000
  Ag  Ag7       1.0  0.33163  0.55665  0.41658  1.0000
  Ag  Ag8       1.0  0.83164  0.94335  0.58342  1.0000
  H   H1        1.0  0.19159  0.88971  0.72448  1.0000
  H   H2        1.0  0.69159  0.61029  0.27552  1.0000
  H   H3        1.0  0.80841  0.11029  0.27552  1.0000
  H   H4        1.0  0.30842  0.38971  0.72448  1.0000
  H   H5        1.0  0.82305  0.12712  0.84444  1.0000
  H   H6        1.0  0.32305  0.37290  0.15556  1.0000
  H   H7        1.0  0.17695  0.87288  0.15556  1.0000
  H   H8        1.0  0.67694  0.62710  0.84444  1.0000
  C   C1        1.0  0.42772  0.90942  0.83009  1.0000
  C   C2        1.0  0.92772  0.59058  0.16991  1.0000
  C   C3        1.0  0.57228  0.09058  0.16991  1.0000
  C   C4        1.0  0.07228  0.40941  0.83009  1.0000
  C   C5        1.0  0.33149  0.94167  0.74943  1.0000
  C   C6        1.0  0.83149  0.55834  0.25057  1.0000
  C   C7        1.0  0.66851  0.05834  0.25057  1.0000
  C   C8        1.0  0.16850  0.44166  0.74943  1.0000
  C   C9        1.0  0.41269  0.04013  0.70172  1.0000
  C   C10       1.0  0.91269  0.45987  0.29828  1.0000
  C   C11       1.0  0.58731  0.95987  0.29828  1.0000
  C   C12       1.0  0.08730  0.54013  0.70172  1.0000
  C   C13       1.0  0.58769  0.10972  0.73731  1.0000
  C   C14       1.0  0.08769  0.39028  0.26268  1.0000
  C   C15       1.0  0.41232  0.89028  0.26270  1.0000
  C   C16       1.0  0.91230  0.60972  0.73731  1.0000
  C   C17       1.0  0.68362  0.07682  0.81779  1.0000
  C   C18       1.0  0.18363  0.42319  0.18220  1.0000
  C   C19       1.0  0.31638  0.92318  0.18221  1.0000
  C   C20       1.0  0.81637  0.57681  0.81779  1.0000
  C   C21       1.0  0.60832  0.97528  0.86311  1.0000
  C   C22       1.0  0.10832  0.52472  0.13689  1.0000
  C   C23       1.0  0.39168  0.02471  0.13690  1.0000
  C   C24       1.0  0.89167  0.47528  0.86310  1.0000
  C   C25       1.0  0.32499  0.06915  0.61149  1.0000
  C   C26       1.0  0.82498  0.43085  0.38851  1.0000
  C   C27       1.0  0.67502  0.93086  0.38852  1.0000
  C   C28       1.0  0.17502  0.56915  0.61149  1.0000
  C   C29       1.0  0.68962  0.20841  0.68310  1.0000
  C   C30       1.0  0.18961  0.29159  0.31690  1.0000
  C   C31       1.0  0.31038  0.79159  0.31691  1.0000
  C   C32       1.0  0.81039  0.70841  0.68310  1.0000
  Cl  Cl1       1.0  0.32618  0.78704  0.88667  1.0000
  Cl  Cl2       1.0  0.82616  0.71296  0.11333  1.0000
  Cl  Cl3       1.0  0.67381  0.21296  0.11333  1.0000
  Cl  Cl4       1.0  0.17385  0.28703  0.88667  1.0000
  Cl  Cl5       1.0  0.74665  0.92963  0.95599  1.0000
  Cl  Cl6       1.0  0.24665  0.57038  0.04402  1.0000
  Cl  Cl7       1.0  0.25334  0.07036  0.04402  1.0000
  Cl  Cl8       1.0  0.75335  0.42961  0.95598  1.0000
  O   O1        1.0  0.64526  0.32092  0.70077  1.0000
  O   O2        1.0  0.14527  0.17908  0.29922  1.0000
  O   O3        1.0  0.35473  0.67908  0.29923  1.0000
  O   O4        1.0  0.85474  0.82092  0.70078  1.0000
  O   O5        1.0  0.82216  0.16674  0.62244  1.0000
  O   O6        1.0  0.32215  0.33326  0.37757  1.0000
  O   O7        1.0  0.17784  0.83326  0.37757  1.0000
  O   O8        1.0  0.67785  0.66675  0.62243  1.0000
  O   O9        1.0  0.34774  0.17900  0.58664  1.0000
  O   O10       1.0  0.84772  0.32099  0.41335  1.0000
  O   O11       1.0  0.65227  0.82100  0.41336  1.0000
  O   O12       1.0  0.15228  0.67901  0.58665  1.0000
  O   O13       1.0  0.23773  0.98191  0.56067  1.0000
  O   O14       1.0  0.73773  0.51810  0.43933  1.0000
  O   O15       1.0  0.76228  0.01809  0.43933  1.0000
  O   O16       1.0  0.26227  0.48190  0.56067  1.0000
