data_image0
_chemical_formula_structural       Cd2H38C40N6O10
_chemical_formula_sum              "Cd2 H38 C40 N6 O10"
_cell_length_a       10.2754
_cell_length_b       11.0193
_cell_length_c       11.0194
_cell_angle_alpha    97.9335
_cell_angle_beta     108.294
_cell_angle_gamma    108.293

_space_group_name_H-M_alt    "P 1"
_space_group_IT_number       1

loop_
  _space_group_symop_operation_xyz
  'x, y, z'

loop_
  _atom_site_type_symbol
  _atom_site_label
  _atom_site_symmetry_multiplicity
  _atom_site_fract_x
  _atom_site_fract_y
  _atom_site_fract_z
  _atom_site_occupancy
  Cd  Cd1       1.0  0.24039  0.06907  0.96626  1.0000
  Cd  Cd2       1.0  0.74039  0.96626  0.06907  1.0000
  H   H1        1.0  0.10970  0.06070  0.21159  1.0000
  H   H2        1.0  0.60969  0.21159  0.06069  1.0000
  H   H3        1.0  0.15416  0.98944  0.42161  1.0000
  H   H4        1.0  0.65413  0.42160  0.98941  1.0000
  H   H5        1.0  0.36432  0.91209  0.50116  1.0000
  H   H6        1.0  0.86430  0.50115  0.91207  1.0000
  H   H7        1.0  0.44886  0.03496  0.81142  1.0000
  H   H8        1.0  0.94886  0.81140  0.03495  1.0000
  H   H9        1.0  0.55860  0.13329  0.65703  1.0000
  H   H10       1.0  0.05860  0.65700  0.13328  1.0000
  H   H11       1.0  0.26923  0.34937  0.60786  1.0000
  H   H12       1.0  0.76924  0.60785  0.34936  1.0000
  H   H13       1.0  0.17958  0.25175  0.77010  1.0000
  H   H14       1.0  0.67958  0.77009  0.25173  1.0000
  H   H15       1.0  0.40572  0.33960  0.45650  1.0000
  H   H16       1.0  0.90573  0.45649  0.33960  1.0000
  H   H17       1.0  0.52430  0.24949  0.47626  1.0000
  H   H18       1.0  0.02431  0.47626  0.24950  1.0000
  H   H19       1.0  0.70168  0.41820  0.68995  1.0000
  H   H20       1.0  0.20168  0.68994  0.41819  1.0000
  H   H21       1.0  0.58661  0.51016  0.66875  1.0000
  H   H22       1.0  0.08662  0.66876  0.51016  1.0000
  H   H23       1.0  0.73955  0.45087  0.48261  1.0000
  H   H24       1.0  0.23956  0.48261  0.45088  1.0000
  H   H25       1.0  0.62430  0.54462  0.45912  1.0000
  H   H26       1.0  0.12430  0.45913  0.54463  1.0000
  H   H27       1.0  0.96255  0.53683  0.72798  1.0000
  H   H28       1.0  0.46255  0.72798  0.53683  1.0000
  H   H29       1.0  0.16155  0.74369  0.88577  1.0000
  H   H30       1.0  0.66156  0.88576  0.74368  1.0000
  H   H31       1.0  0.95530  0.97762  0.70766  1.0000
  H   H32       1.0  0.45532  0.70767  0.97763  1.0000
  H   H33       1.0  0.74450  0.78095  0.54187  1.0000
  H   H34       1.0  0.24451  0.54188  0.78096  1.0000
  H   H35       1.0  0.30659  0.36475  0.04605  1.0000
  H   H36       1.0  0.80659  0.04605  0.36475  1.0000
  H   H37       1.0  0.42473  0.35397  0.17046  1.0000
  H   H38       1.0  0.92473  0.17046  0.35397  1.0000
  C   C1        1.0  0.19891  0.02603  0.24937  1.0000
  C   C2        1.0  0.69890  0.24936  0.02601  1.0000
  C   C3        1.0  0.22491  0.98606  0.36645  1.0000
  C   C4        1.0  0.72490  0.36644  0.98605  1.0000
  C   C5        1.0  0.34087  0.94307  0.40954  1.0000
  C   C6        1.0  0.84085  0.40952  0.94304  1.0000
  C   C7        1.0  0.43057  0.94115  0.33664  1.0000
  C   C8        1.0  0.93056  0.33663  0.94113  1.0000
  C   C9        1.0  0.56674  0.90733  0.39326  1.0000
  C   C10       1.0  0.06674  0.39326  0.90733  1.0000
  C   C11       1.0  0.39000  0.97509  0.21558  1.0000
  C   C12       1.0  0.88999  0.21558  0.97510  1.0000
  C   C13       1.0  0.46996  0.96387  0.12416  1.0000
  C   C14       1.0  0.96996  0.12417  0.96387  1.0000
  C   C15       1.0  0.41347  0.10611  0.76433  1.0000
  C   C16       1.0  0.91347  0.76431  0.10610  1.0000
  C   C17       1.0  0.47304  0.16043  0.67804  1.0000
  C   C18       1.0  0.97305  0.67803  0.16043  1.0000
  C   C19       1.0  0.42221  0.24988  0.61857  1.0000
  C   C20       1.0  0.92222  0.61856  0.24988  1.0000
  C   C21       1.0  0.31326  0.28073  0.65103  1.0000
  C   C22       1.0  0.81326  0.65102  0.28071  1.0000
  C   C23       1.0  0.26175  0.22564  0.74128  1.0000
  C   C24       1.0  0.76176  0.74128  0.22562  1.0000
  C   C25       1.0  0.48881  0.31631  0.53024  1.0000
  C   C26       1.0  0.98882  0.53023  0.31631  1.0000
  C   C27       1.0  0.62276  0.44388  0.61486  1.0000
  C   C28       1.0  0.12276  0.61485  0.44388  1.0000
  C   C29       1.0  0.70205  0.51778  0.53435  1.0000
  C   C30       1.0  0.20205  0.53435  0.51778  1.0000
  C   C31       1.0  0.83255  0.64098  0.62361  1.0000
  C   C32       1.0  0.33256  0.62361  0.64098  1.0000
  C   C33       1.0  0.95407  0.63221  0.72008  1.0000
  C   C34       1.0  0.45408  0.72008  0.63221  1.0000
  C   C35       1.0  0.06648  0.74778  0.80883  1.0000
  C   C36       1.0  0.56649  0.80883  0.74778  1.0000
  C   C37       1.0  0.95197  0.87789  0.70922  1.0000
  C   C38       1.0  0.45198  0.70924  0.87789  1.0000
  C   C39       1.0  0.83430  0.76746  0.61711  1.0000
  C   C40       1.0  0.33431  0.61712  0.76746  1.0000
  N   N1        1.0  0.27809  0.01800  0.17450  1.0000
  N   N2        1.0  0.77808  0.17450  0.01800  1.0000
  N   N3        1.0  0.31128  0.13940  0.79724  1.0000
  N   N4        1.0  0.81128  0.79722  0.13937  1.0000
  N   N5        1.0  0.06520  0.86909  0.80563  1.0000
  N   N6        1.0  0.56522  0.80563  0.86909  1.0000
  O   O1        1.0  0.44111  0.00670  0.02134  1.0000
  O   O2        1.0  0.94112  0.02135  0.00671  1.0000
  O   O3        1.0  0.56466  0.91130  0.15686  1.0000
  O   O4        1.0  0.06465  0.15686  0.91129  1.0000
  O   O5        1.0  0.68986  0.00586  0.44351  1.0000
  O   O6        1.0  0.18985  0.44350  0.00587  1.0000
  O   O7        1.0  0.54285  0.78786  0.39280  1.0000
  O   O8        1.0  0.04285  0.39281  0.78786  1.0000
  O   O9        1.0  0.37646  0.31770  0.07505  1.0000
  O   O10       1.0  0.87647  0.07504  0.31770  1.0000
