data_image0
_chemical_formula_structural       Zn4H28C40N4O20
_chemical_formula_sum              "Zn4 H28 C40 N4 O20"
_cell_length_a       6.45906
_cell_length_b       11.5529
_cell_length_c       13.2799
_cell_angle_alpha    88.9069
_cell_angle_beta     80.0455
_cell_angle_gamma    80.0291

_space_group_name_H-M_alt    "P 1"
_space_group_IT_number       1

loop_
  _space_group_symop_operation_xyz
  'x, y, z'

loop_
  _atom_site_type_symbol
  _atom_site_label
  _atom_site_symmetry_multiplicity
  _atom_site_fract_x
  _atom_site_fract_y
  _atom_site_fract_z
  _atom_site_occupancy
  Zn  Zn1       1.0  0.07141  0.65225  0.80152  1.0000
  Zn  Zn2       1.0  0.92859  0.34775  0.19848  1.0000
  Zn  Zn3       1.0  0.72256  0.03640  0.90810  1.0000
  Zn  Zn4       1.0  0.27744  0.96360  0.09191  1.0000
  H   H1        1.0  0.11763  0.02964  0.79348  1.0000
  H   H2        1.0  0.88238  0.97036  0.20653  1.0000
  H   H3        1.0  0.50189  0.27911  0.72788  1.0000
  H   H4        1.0  0.49811  0.72090  0.27212  1.0000
  H   H5        1.0  0.12592  0.26311  0.86965  1.0000
  H   H6        1.0  0.87408  0.73688  0.13035  1.0000
  H   H7        1.0  0.25675  0.39300  0.01206  1.0000
  H   H8        1.0  0.74324  0.60699  0.98794  1.0000
  H   H9        1.0  0.61409  0.39031  0.92162  1.0000
  H   H10       1.0  0.38590  0.60969  0.07839  1.0000
  H   H11       1.0  0.70333  0.51612  0.74166  1.0000
  H   H12       1.0  0.29666  0.48388  0.25833  1.0000
  H   H13       1.0  0.56026  0.49221  0.58383  1.0000
  H   H14       1.0  0.43975  0.50779  0.41617  1.0000
  H   H15       1.0  0.70218  0.59474  0.42192  1.0000
  H   H16       1.0  0.29782  0.40526  0.57808  1.0000
  H   H17       1.0  0.92635  0.74329  0.34265  1.0000
  H   H18       1.0  0.07365  0.25671  0.65735  1.0000
  H   H19       1.0  0.20506  0.86019  0.35451  1.0000
  H   H20       1.0  0.79495  0.13982  0.64549  1.0000
  H   H21       1.0  0.48885  0.90856  0.45170  1.0000
  H   H22       1.0  0.51114  0.09144  0.54830  1.0000
  H   H23       1.0  0.61742  0.90709  0.62061  1.0000
  H   H24       1.0  0.38258  0.09291  0.37939  1.0000
  H   H25       1.0  0.44337  0.80203  0.76675  1.0000
  H   H26       1.0  0.55663  0.19797  0.23325  1.0000
  H   H27       1.0  0.10937  0.93191  0.88354  1.0000
  H   H28       1.0  0.89063  0.06809  0.11646  1.0000
  C   C1        1.0  0.46289  0.23201  0.79958  1.0000
  C   C2        1.0  0.53711  0.76799  0.20042  1.0000
  C   C3        1.0  0.26706  0.30526  0.86525  1.0000
  C   C4        1.0  0.73294  0.69473  0.13475  1.0000
  C   C5        1.0  0.33193  0.31046  0.97186  1.0000
  C   C6        1.0  0.66807  0.68954  0.02814  1.0000
  C   C7        1.0  0.57686  0.30256  0.94240  1.0000
  C   C8        1.0  0.42314  0.69744  0.05760  1.0000
  C   C9        1.0  0.43009  0.10972  0.77284  1.0000
  C   C10       1.0  0.56992  0.89028  0.22716  1.0000
  C   C11       1.0  0.21258  0.42922  0.82282  1.0000
  C   C12       1.0  0.78741  0.57078  0.17719  1.0000
  C   C13       1.0  0.27534  0.20780  0.03896  1.0000
  C   C14       1.0  0.72467  0.79220  0.96104  1.0000
  C   C15       1.0  0.70183  0.25412  0.02645  1.0000
  C   C16       1.0  0.29817  0.74588  0.97355  1.0000
  C   C17       1.0  0.76311  0.55936  0.67163  1.0000
  C   C18       1.0  0.23688  0.44064  0.32837  1.0000
  C   C19       1.0  0.68215  0.54669  0.58140  1.0000
  C   C20       1.0  0.31785  0.45331  0.41860  1.0000
  C   C21       1.0  0.75790  0.60384  0.49402  1.0000
  C   C22       1.0  0.24210  0.39617  0.50598  1.0000
  C   C23       1.0  0.91438  0.67480  0.49712  1.0000
  C   C24       1.0  0.08563  0.32520  0.50288  1.0000
  C   C25       1.0  0.99549  0.74137  0.41203  1.0000
  C   C26       1.0  0.00452  0.25863  0.58796  1.0000
  C   C27       1.0  0.15024  0.80659  0.41875  1.0000
  C   C28       1.0  0.84976  0.19341  0.58125  1.0000
  C   C29       1.0  0.24102  0.80739  0.50973  1.0000
  C   C30       1.0  0.75897  0.19261  0.49026  1.0000
  C   C31       1.0  0.41297  0.86525  0.51826  1.0000
  C   C32       1.0  0.58703  0.13475  0.48174  1.0000
  C   C33       1.0  0.48653  0.86325  0.61005  1.0000
  C   C34       1.0  0.51346  0.13675  0.38996  1.0000
  C   C35       1.0  0.39004  0.80333  0.69329  1.0000
  C   C36       1.0  0.60996  0.19667  0.30671  1.0000
  C   C37       1.0  0.15760  0.74603  0.59673  1.0000
  C   C38       1.0  0.84240  0.25397  0.40327  1.0000
  C   C39       1.0  0.99037  0.67999  0.59060  1.0000
  C   C40       1.0  0.00963  0.32001  0.40939  1.0000
  N   N1        1.0  0.91406  0.62331  0.67561  1.0000
  N   N2        1.0  0.08594  0.37669  0.32439  1.0000
  N   N3        1.0  0.23174  0.74557  0.68639  1.0000
  N   N4        1.0  0.76826  0.25443  0.31361  1.0000
  O   O1        1.0  0.63980  0.22525  0.85463  1.0000
  O   O2        1.0  0.36020  0.77476  0.14537  1.0000
  O   O3        1.0  0.02342  0.98203  0.83850  1.0000
  O   O4        1.0  0.97658  0.01797  0.16150  1.0000
  O   O5        1.0  0.27603  0.10712  0.72652  1.0000
  O   O6        1.0  0.72398  0.89288  0.27347  1.0000
  O   O7        1.0  0.55824  0.01960  0.79484  1.0000
  O   O8        1.0  0.44177  0.98039  0.20517  1.0000
  O   O9        1.0  0.33326  0.46332  0.74747  1.0000
  O   O10       1.0  0.66672  0.53667  0.25253  1.0000
  O   O11       1.0  0.04192  0.49395  0.86940  1.0000
  O   O12       1.0  0.95807  0.50605  0.13061  1.0000
  O   O13       1.0  0.17369  0.22664  0.12875  1.0000
  O   O14       1.0  0.82631  0.77336  0.87125  1.0000
  O   O15       1.0  0.34097  0.10363  0.00107  1.0000
  O   O16       1.0  0.65905  0.89637  0.99893  1.0000
  O   O17       1.0  0.78072  0.14412  0.02270  1.0000
  O   O18       1.0  0.21928  0.85588  0.97730  1.0000
  O   O19       1.0  0.71251  0.32648  0.09398  1.0000
  O   O20       1.0  0.28747  0.67352  0.90603  1.0000
