data_image0
_chemical_formula_structural       Zn4H44C64N8O20
_chemical_formula_sum              "Zn4 H44 C64 N8 O20"
_cell_length_a       8.27695
_cell_length_b       9.76964
_cell_length_c       20.35
_cell_angle_alpha    94.5996
_cell_angle_beta     93.1617
_cell_angle_gamma    114.327

_space_group_name_H-M_alt    "P 1"
_space_group_IT_number       1

loop_
  _space_group_symop_operation_xyz
  'x, y, z'

loop_
  _atom_site_type_symbol
  _atom_site_label
  _atom_site_symmetry_multiplicity
  _atom_site_fract_x
  _atom_site_fract_y
  _atom_site_fract_z
  _atom_site_occupancy
  Zn  Zn1       1.0  0.19187  0.17851  0.32897  1.0000
  Zn  Zn2       1.0  0.80813  0.82150  0.67103  1.0000
  Zn  Zn3       1.0  0.14415  0.32743  0.14618  1.0000
  Zn  Zn4       1.0  0.85586  0.67257  0.85382  1.0000
  H   H1        1.0  0.07525  0.53158  0.19767  1.0000
  H   H2        1.0  0.92475  0.46842  0.80233  1.0000
  H   H3        1.0  0.56002  0.15500  0.18101  1.0000
  H   H4        1.0  0.43998  0.84499  0.81899  1.0000
  H   H5        1.0  0.66203  0.41831  0.28550  1.0000
  H   H6        1.0  0.33797  0.58169  0.71450  1.0000
  H   H7        1.0  0.52600  0.06200  0.36446  1.0000
  H   H8        1.0  0.47400  0.93799  0.63554  1.0000
  H   H9        1.0  0.63009  0.99627  0.24402  1.0000
  H   H10       1.0  0.36991  0.00373  0.75598  1.0000
  H   H11       1.0  0.38667  0.14772  0.87368  1.0000
  H   H12       1.0  0.61332  0.85227  0.12632  1.0000
  H   H13       1.0  0.36344  0.40070  0.87106  1.0000
  H   H14       1.0  0.63656  0.59929  0.12894  1.0000
  H   H15       1.0  0.27027  0.74439  0.49434  1.0000
  H   H16       1.0  0.72972  0.25562  0.50566  1.0000
  H   H17       1.0  0.18668  0.91898  0.41806  1.0000
  H   H18       1.0  0.81332  0.08103  0.58194  1.0000
  H   H19       1.0  0.05230  0.98813  0.18741  1.0000
  H   H20       1.0  0.94769  0.01187  0.81259  1.0000
  H   H21       1.0  0.25432  0.51529  0.30174  1.0000
  H   H22       1.0  0.74569  0.48472  0.69826  1.0000
  H   H23       1.0  0.34177  0.92413  0.93177  1.0000
  H   H24       1.0  0.65822  0.07586  0.06823  1.0000
  H   H25       1.0  0.25299  0.78706  0.03351  1.0000
  H   H26       1.0  0.74701  0.21294  0.96649  1.0000
  H   H27       1.0  0.28208  0.59395  0.92720  1.0000
  H   H28       1.0  0.71792  0.40605  0.07280  1.0000
  H   H29       1.0  0.18112  0.56177  0.04309  1.0000
  H   H30       1.0  0.81889  0.43823  0.95691  1.0000
  H   H31       1.0  0.25099  0.60339  0.59278  1.0000
  H   H32       1.0  0.74902  0.39662  0.40722  1.0000
  H   H33       1.0  0.24012  0.37159  0.63945  1.0000
  H   H34       1.0  0.75989  0.62842  0.36055  1.0000
  H   H35       1.0  0.12328  0.77432  0.14289  1.0000
  H   H36       1.0  0.87671  0.22568  0.85711  1.0000
  H   H37       1.0  0.26967  0.74344  0.36917  1.0000
  H   H38       1.0  0.73033  0.25656  0.63083  1.0000
  H   H39       1.0  0.22653  0.10848  0.62081  1.0000
  H   H40       1.0  0.77348  0.89153  0.37919  1.0000
  H   H41       1.0  0.19521  0.89199  0.54170  1.0000
  H   H42       1.0  0.80479  0.10802  0.45830  1.0000
  H   H43       1.0  0.27642  0.64649  0.19883  1.0000
  H   H44       1.0  0.72358  0.35350  0.80117  1.0000
  C   C1        1.0  0.82855  0.15499  0.31727  1.0000
  C   C2        1.0  0.17145  0.84501  0.68273  1.0000
  C   C3        1.0  0.82679  0.32003  0.20479  1.0000
  C   C4        1.0  0.17322  0.67997  0.79521  1.0000
  C   C5        1.0  0.42242  0.33304  0.22018  1.0000
  C   C6        1.0  0.57758  0.66696  0.77982  1.0000
  C   C7        1.0  0.64585  0.21872  0.22616  1.0000
  C   C8        1.0  0.35415  0.78128  0.77384  1.0000
  C   C9        1.0  0.55828  0.30716  0.26477  1.0000
  C   C10       1.0  0.44172  0.69284  0.73523  1.0000
  C   C11       1.0  0.49658  0.08117  0.31344  1.0000
  C   C12       1.0  0.50342  0.91883  0.68656  1.0000
  C   C13       1.0  0.20645  0.11778  0.04879  1.0000
  C   C14       1.0  0.79355  0.88222  0.95121  1.0000
  C   C15       1.0  0.65280  0.10287  0.27308  1.0000
  C   C16       1.0  0.34720  0.89713  0.72692  1.0000
  C   C17       1.0  0.25095  0.39528  0.44790  1.0000
  C   C18       1.0  0.74905  0.60472  0.55210  1.0000
  C   C19       1.0  0.32095  0.94766  0.28453  1.0000
  C   C20       1.0  0.67904  0.05234  0.71547  1.0000
  C   C21       1.0  0.23431  0.24874  0.01528  1.0000
  C   C22       1.0  0.76569  0.75125  0.98472  1.0000
  C   C23       1.0  0.23893  0.25996  0.47468  1.0000
  C   C24       1.0  0.76107  0.74005  0.52532  1.0000
  C   C25       1.0  0.24032  0.25433  0.54430  1.0000
  C   C26       1.0  0.75968  0.74568  0.45570  1.0000
  C   C27       1.0  0.24803  0.00185  0.01873  1.0000
  C   C28       1.0  0.75197  0.99815  0.98127  1.0000
  C   C29       1.0  0.33923  0.13945  0.92281  1.0000
  C   C30       1.0  0.66077  0.86054  0.07719  1.0000
  C   C31       1.0  0.31474  0.38620  0.91983  1.0000
  C   C32       1.0  0.68526  0.61379  0.08017  1.0000
  C   C33       1.0  0.29802  0.25851  0.95168  1.0000
  C   C34       1.0  0.70198  0.74149  0.04832  1.0000
  C   C35       1.0  0.26500  0.64770  0.46222  1.0000
  C   C36       1.0  0.73499  0.35231  0.53777  1.0000
  C   C37       1.0  0.25740  0.51886  0.49127  1.0000
  C   C38       1.0  0.74260  0.48114  0.50873  1.0000
  C   C39       1.0  0.20695  0.01308  0.45512  1.0000
  C   C40       1.0  0.79305  0.98692  0.54488  1.0000
  C   C41       1.0  0.10719  0.98947  0.13984  1.0000
  C   C42       1.0  0.89281  0.01053  0.86016  1.0000
  C   C43       1.0  0.25738  0.51951  0.35543  1.0000
  C   C44       1.0  0.74262  0.48049  0.64457  1.0000
  C   C45       1.0  0.31567  0.01625  0.95516  1.0000
  C   C46       1.0  0.68433  0.98375  0.04485  1.0000
  C   C47       1.0  0.21796  0.87642  0.05425  1.0000
  C   C48       1.0  0.78204  0.12358  0.94575  1.0000
  C   C49       1.0  0.27072  0.49528  0.95138  1.0000
  C   C50       1.0  0.72928  0.50471  0.04862  1.0000
  C   C51       1.0  0.21318  0.47783  0.01512  1.0000
  C   C52       1.0  0.78682  0.52217  0.98488  1.0000
  C   C53       1.0  0.25262  0.50842  0.56106  1.0000
  C   C54       1.0  0.74738  0.49159  0.43894  1.0000
  C   C55       1.0  0.24611  0.38108  0.58648  1.0000
  C   C56       1.0  0.75390  0.61892  0.41352  1.0000
  C   C57       1.0  0.14674  0.86938  0.11442  1.0000
  C   C58       1.0  0.85325  0.13061  0.88558  1.0000
  C   C59       1.0  0.26493  0.64796  0.39436  1.0000
  C   C60       1.0  0.73507  0.35204  0.60564  1.0000
  C   C61       1.0  0.22828  0.11875  0.56781  1.0000
  C   C62       1.0  0.77172  0.88125  0.43219  1.0000
  C   C63       1.0  0.21209  0.99822  0.52324  1.0000
  C   C64       1.0  0.78791  0.00178  0.47676  1.0000
  N   N1        1.0  0.13876  0.11070  0.10818  1.0000
  N   N2        1.0  0.86124  0.88930  0.89183  1.0000
  N   N3        1.0  0.25118  0.39708  0.38138  1.0000
  N   N4        1.0  0.74882  0.60293  0.61862  1.0000
  N   N5        1.0  0.19582  0.35832  0.04619  1.0000
  N   N6        1.0  0.80418  0.64168  0.95381  1.0000
  N   N7        1.0  0.22075  0.14026  0.43149  1.0000
  N   N8        1.0  0.77925  0.85975  0.56851  1.0000
  O   O1        1.0  0.48035  0.22397  0.31907  1.0000
  O   O2        1.0  0.51965  0.77603  0.68093  1.0000
  O   O3        1.0  0.88308  0.25840  0.15839  1.0000
  O   O4        1.0  0.11692  0.74159  0.84161  1.0000
  O   O5        1.0  0.17805  0.96637  0.29073  1.0000
  O   O6        1.0  0.82195  0.03364  0.70927  1.0000
  O   O7        1.0  0.26351  0.29535  0.23768  1.0000
  O   O8        1.0  0.73649  0.70465  0.76232  1.0000
  O   O9        1.0  0.94077  0.11159  0.29146  1.0000
  O   O10       1.0  0.05923  0.88841  0.70854  1.0000
  O   O11       1.0  0.46804  0.38818  0.16706  1.0000
  O   O12       1.0  0.53196  0.61182  0.83294  1.0000
  O   O13       1.0  0.18460  0.55876  0.17120  1.0000
  O   O14       1.0  0.81540  0.44124  0.82880  1.0000
  O   O15       1.0  0.90764  0.45275  0.23315  1.0000
  O   O16       1.0  0.09236  0.54725  0.76685  1.0000
  O   O17       1.0  0.33106  0.82930  0.26035  1.0000
  O   O18       1.0  0.66894  0.17070  0.73965  1.0000
  O   O19       1.0  0.84967  0.22822  0.37283  1.0000
  O   O20       1.0  0.15033  0.77178  0.62717  1.0000
