data_image0
_chemical_formula_structural       Zn4H32C40N12O24
_chemical_formula_sum              "Zn4 H32 C40 N12 O24"
_cell_length_a       7.06049
_cell_length_b       8.40669
_cell_length_c       19.147
_cell_angle_alpha    90
_cell_angle_beta     99.5234
_cell_angle_gamma    90

_space_group_name_H-M_alt    "P 1"
_space_group_IT_number       1

loop_
  _space_group_symop_operation_xyz
  'x, y, z'

loop_
  _atom_site_type_symbol
  _atom_site_label
  _atom_site_symmetry_multiplicity
  _atom_site_fract_x
  _atom_site_fract_y
  _atom_site_fract_z
  _atom_site_occupancy
  Zn  Zn1       1.0  0.39261  0.60589  0.14132  1.0000
  Zn  Zn2       1.0  0.60739  0.10589  0.35868  1.0000
  Zn  Zn3       1.0  0.60739  0.39411  0.85868  1.0000
  Zn  Zn4       1.0  0.39261  0.89411  0.64132  1.0000
  H   H1        1.0  0.92950  0.69424  0.18138  1.0000
  H   H2        1.0  0.07050  0.19424  0.31862  1.0000
  H   H3        1.0  0.07049  0.30577  0.81862  1.0000
  H   H4        1.0  0.92950  0.80576  0.68138  1.0000
  H   H5        1.0  0.66901  0.00537  0.15323  1.0000
  H   H6        1.0  0.33098  0.50537  0.34677  1.0000
  H   H7        1.0  0.33099  0.99463  0.84678  1.0000
  H   H8        1.0  0.66902  0.49463  0.65323  1.0000
  H   H9        1.0  0.96424  0.10594  0.11184  1.0000
  H   H10       1.0  0.03576  0.60594  0.38816  1.0000
  H   H11       1.0  0.03576  0.89406  0.88816  1.0000
  H   H12       1.0  0.96424  0.39406  0.61184  1.0000
  H   H13       1.0  0.81726  0.80158  0.92806  1.0000
  H   H14       1.0  0.18275  0.30158  0.57194  1.0000
  H   H15       1.0  0.18275  0.19842  0.07194  1.0000
  H   H16       1.0  0.81725  0.69842  0.42806  1.0000
  H   H17       1.0  0.53696  0.70921  0.97936  1.0000
  H   H18       1.0  0.46303  0.20921  0.52064  1.0000
  H   H19       1.0  0.46304  0.29079  0.02064  1.0000
  H   H20       1.0  0.53696  0.79079  0.47936  1.0000
  H   H21       1.0  0.06036  0.49775  0.06814  1.0000
  H   H22       1.0  0.93964  0.99775  0.43186  1.0000
  H   H23       1.0  0.93964  0.50225  0.93186  1.0000
  H   H24       1.0  0.06036  0.00225  0.56814  1.0000
  H   H25       1.0  0.16943  0.58868  0.01175  1.0000
  H   H26       1.0  0.83057  0.08868  0.48825  1.0000
  H   H27       1.0  0.83057  0.41132  0.98825  1.0000
  H   H28       1.0  0.16943  0.91132  0.51175  1.0000
  H   H29       1.0  0.91222  0.83513  0.29685  1.0000
  H   H30       1.0  0.08778  0.33513  0.20315  1.0000
  H   H31       1.0  0.08778  0.16487  0.70315  1.0000
  H   H32       1.0  0.91222  0.66487  0.79685  1.0000
  C   C1        1.0  0.05431  0.73505  0.21759  1.0000
  C   C2        1.0  0.94570  0.23504  0.28241  1.0000
  C   C3        1.0  0.94569  0.26496  0.78241  1.0000
  C   C4        1.0  0.05430  0.76495  0.71759  1.0000
  C   C5        1.0  0.34702  0.79355  0.26709  1.0000
  C   C6        1.0  0.65298  0.29354  0.23291  1.0000
  C   C7        1.0  0.65298  0.20646  0.73291  1.0000
  C   C8        1.0  0.34702  0.70645  0.76709  1.0000
  C   C9        1.0  0.22459  0.85036  0.31169  1.0000
  C   C10       1.0  0.77541  0.35035  0.18831  1.0000
  C   C11       1.0  0.77541  0.14965  0.68831  1.0000
  C   C12       1.0  0.22459  0.64963  0.81169  1.0000
  C   C13       1.0  0.55935  0.78675  0.27005  1.0000
  C   C14       1.0  0.44065  0.28675  0.22995  1.0000
  C   C15       1.0  0.44065  0.21325  0.72995  1.0000
  C   C16       1.0  0.55934  0.71326  0.77004  1.0000
  C   C17       1.0  0.25610  0.91747  0.38440  1.0000
  C   C18       1.0  0.74390  0.41747  0.11560  1.0000
  C   C19       1.0  0.74388  0.08253  0.61560  1.0000
  C   C20       1.0  0.25609  0.58253  0.88440  1.0000
  C   C21       1.0  0.71265  0.96692  0.10409  1.0000
  C   C22       1.0  0.28736  0.46692  0.39591  1.0000
  C   C23       1.0  0.28736  0.03308  0.89591  1.0000
  C   C24       1.0  0.71264  0.53308  0.60409  1.0000
  C   C25       1.0  0.87449  0.01969  0.07964  1.0000
  C   C26       1.0  0.12550  0.51969  0.42036  1.0000
  C   C27       1.0  0.12550  0.98031  0.92036  1.0000
  C   C28       1.0  0.87450  0.48031  0.57964  1.0000
  C   C29       1.0  0.91756  0.96829  0.01420  1.0000
  C   C30       1.0  0.08244  0.46829  0.48580  1.0000
  C   C31       1.0  0.08245  0.03171  0.98580  1.0000
  C   C32       1.0  0.91756  0.53171  0.51420  1.0000
  C   C33       1.0  0.79338  0.85330  0.97798  1.0000
  C   C34       1.0  0.20661  0.35330  0.52202  1.0000
  C   C35       1.0  0.20662  0.14670  0.02202  1.0000
  C   C36       1.0  0.79338  0.64670  0.47798  1.0000
  C   C37       1.0  0.63459  0.80022  0.00441  1.0000
  C   C38       1.0  0.36542  0.30022  0.49559  1.0000
  C   C39       1.0  0.36542  0.19979  0.99559  1.0000
  C   C40       1.0  0.63458  0.69978  0.50441  1.0000
  N   N1        1.0  0.23701  0.72084  0.20975  1.0000
  N   N2        1.0  0.76299  0.22083  0.29025  1.0000
  N   N3        1.0  0.76298  0.27917  0.79025  1.0000
  N   N4        1.0  0.23701  0.77916  0.70975  1.0000
  N   N5        1.0  0.04149  0.81034  0.27895  1.0000
  N   N6        1.0  0.95852  0.31034  0.22105  1.0000
  N   N7        1.0  0.95851  0.18966  0.72105  1.0000
  N   N8        1.0  0.04148  0.68965  0.77895  1.0000
  N   N9        1.0  0.59076  0.86125  0.06583  1.0000
  N   N10       1.0  0.40924  0.36125  0.43417  1.0000
  N   N11       1.0  0.40924  0.13875  0.93417  1.0000
  N   N12       1.0  0.59076  0.63875  0.56583  1.0000
  O   O1        1.0  0.61879  0.69143  0.22695  1.0000
  O   O2        1.0  0.38121  0.19144  0.27305  1.0000
  O   O3        1.0  0.38120  0.30857  0.77305  1.0000
  O   O4        1.0  0.61879  0.80856  0.72695  1.0000
  O   O5        1.0  0.67204  0.87360  0.31356  1.0000
  O   O6        1.0  0.32796  0.37360  0.18644  1.0000
  O   O7        1.0  0.32796  0.12640  0.68644  1.0000
  O   O8        1.0  0.67205  0.62639  0.81356  1.0000
  O   O9        1.0  0.40746  0.99517  0.40763  1.0000
  O   O10       1.0  0.59255  0.49517  0.09237  1.0000
  O   O11       1.0  0.59255  0.00484  0.59237  1.0000
  O   O12       1.0  0.40746  0.50483  0.90764  1.0000
  O   O13       1.0  0.12607  0.88569  0.42119  1.0000
  O   O14       1.0  0.87393  0.38569  0.07880  1.0000
  O   O15       1.0  0.87394  0.11431  0.57880  1.0000
  O   O16       1.0  0.12607  0.61431  0.92119  1.0000
  O   O17       1.0  0.42972  0.82275  0.08740  1.0000
  O   O18       1.0  0.57028  0.32275  0.41260  1.0000
  O   O19       1.0  0.57028  0.17725  0.91260  1.0000
  O   O20       1.0  0.42972  0.67725  0.58740  1.0000
  O   O21       1.0  0.16149  0.57617  0.06286  1.0000
  O   O22       1.0  0.83851  0.07618  0.43714  1.0000
  O   O23       1.0  0.83851  0.42382  0.93714  1.0000
  O   O24       1.0  0.16148  0.92383  0.56286  1.0000
