data_image0
_chemical_formula_structural       MgH26C30N2O10F2
_chemical_formula_sum              "Mg1 H26 C30 N2 O10 F2"
_cell_length_a       5.19215
_cell_length_b       6.23161
_cell_length_c       21.6183
_cell_angle_alpha    85.1001
_cell_angle_beta     93.5304
_cell_angle_gamma    97.9892

_space_group_name_H-M_alt    "P 1"
_space_group_IT_number       1

loop_
  _space_group_symop_operation_xyz
  'x, y, z'

loop_
  _atom_site_type_symbol
  _atom_site_label
  _atom_site_symmetry_multiplicity
  _atom_site_fract_x
  _atom_site_fract_y
  _atom_site_fract_z
  _atom_site_occupancy
  Mg  Mg1       1.0  0.45370  0.84466  0.66296  1.0000
  H   H1        1.0  0.08816  0.72438  0.55441  1.0000
  H   H2        1.0  0.68141  0.43274  0.69604  1.0000
  H   H3        1.0  0.73967  0.80994  0.57644  1.0000
  H   H4        1.0  0.87661  0.85388  0.72856  1.0000
  H   H5        1.0  0.78329  0.07153  0.74246  1.0000
  H   H6        1.0  0.80163  0.33664  0.24903  1.0000
  H   H7        1.0  0.51502  0.34672  0.33706  1.0000
  H   H8        1.0  0.84794  0.00899  0.36013  1.0000
  H   H9        1.0  0.13306  0.99898  0.27119  1.0000
  H   H10       1.0  0.29946  0.74201  0.38926  1.0000
  H   H11       1.0  0.57685  0.80718  0.43938  1.0000
  H   H12       1.0  0.06264  0.38658  0.39234  1.0000
  H   H13       1.0  0.07918  0.99357  0.45950  1.0000
  H   H14       1.0  0.52874  0.04377  0.53301  1.0000
  H   H15       1.0  0.89373  0.17460  0.57474  1.0000
  H   H16       1.0  0.34492  0.12970  0.83566  1.0000
  H   H17       1.0  0.64447  0.52650  0.13780  1.0000
  H   H18       1.0  0.93586  0.52841  0.04998  1.0000
  H   H19       1.0  0.61120  0.86901  0.02066  1.0000
  H   H20       1.0  0.32171  0.86620  0.10974  1.0000
  H   H21       1.0  0.16317  0.15148  0.99550  1.0000
  H   H22       1.0  0.88932  0.07235  0.94542  1.0000
  H   H23       1.0  0.38105  0.51226  0.99031  1.0000
  H   H24       1.0  0.33742  0.90015  0.92342  1.0000
  H   H25       1.0  0.89011  0.83513  0.85229  1.0000
  H   H26       1.0  0.51763  0.67397  0.81233  1.0000
  C   C1        1.0  0.97915  0.66780  0.25632  1.0000
  C   C2        1.0  0.80907  0.48285  0.27368  1.0000
  C   C3        1.0  0.64940  0.49069  0.32288  1.0000
  C   C4        1.0  0.66023  0.67929  0.35443  1.0000
  C   C5        1.0  0.83465  0.86198  0.33549  1.0000
  C   C6        1.0  0.99552  0.85855  0.28617  1.0000
  C   C7        1.0  0.48517  0.68940  0.40734  1.0000
  C   C8        1.0  0.21000  0.33474  0.42602  1.0000
  C   C9        1.0  0.22519  0.13580  0.45989  1.0000
  C   C10       1.0  0.45630  0.15931  0.49732  1.0000
  C   C11       1.0  0.57889  0.37365  0.48597  1.0000
  C   C12       1.0  0.80830  0.47747  0.51768  1.0000
  C   C13       1.0  0.95200  0.35116  0.56361  1.0000
  C   C14       1.0  0.15738  0.45702  0.59621  1.0000
  C   C15       1.0  0.33944  0.34591  0.64050  1.0000
  C   C16       1.0  0.47133  0.19581  0.12754  1.0000
  C   C17       1.0  0.63978  0.38357  0.11184  1.0000
  C   C18       1.0  0.80186  0.38253  0.06272  1.0000
  C   C19       1.0  0.79470  0.19797  0.02958  1.0000
  C   C20       1.0  0.62139  0.01247  0.04675  1.0000
  C   C21       1.0  0.45842  0.00889  0.09604  1.0000
  C   C22       1.0  0.97327  0.19422  0.97699  1.0000
  C   C23       1.0  0.22877  0.55680  0.95691  1.0000
  C   C24       1.0  0.19976  0.75276  0.92296  1.0000
  C   C25       1.0  0.96741  0.71851  0.88610  1.0000
  C   C26       1.0  0.85835  0.50060  0.89790  1.0000
  C   C27       1.0  0.63217  0.38349  0.86759  1.0000
  C   C28       1.0  0.47301  0.50000  0.82327  1.0000
  C   C29       1.0  0.26268  0.38716  0.79349  1.0000
  C   C30       1.0  0.08187  0.49554  0.74750  1.0000
  N   N1        1.0  0.42149  0.47897  0.44173  1.0000
  N   N2        1.0  0.02434  0.40465  0.94184  1.0000
  O   O1        1.0  0.88473  0.68212  0.50608  1.0000
  O   O2        1.0  0.22000  0.67506  0.59025  1.0000
  O   O3        1.0  0.32369  0.14610  0.65055  1.0000
  O   O4        1.0  0.51628  0.48902  0.66617  1.0000
  O   O5        1.0  0.73076  0.91490  0.60650  1.0000
  O   O6        1.0  0.71936  0.91638  0.73806  1.0000
  O   O7        1.0  0.57513  0.17743  0.87896  1.0000
  O   O8        1.0  0.19982  0.17280  0.80322  1.0000
  O   O9        1.0  0.14492  0.68915  0.72522  1.0000
  O   O10       1.0  0.86891  0.37343  0.73444  1.0000
  F   F1        1.0  0.13657  0.66125  0.20817  1.0000
  F   F2        1.0  0.31198  0.19594  0.17567  1.0000
