data_image0
_chemical_formula_structural       Cd4H32C32N8Cl8O4
_chemical_formula_sum              "Cd4 H32 C32 N8 Cl8 O4"
_cell_length_a       7.10231
_cell_length_b       10.0345
_cell_length_c       14.941
_cell_angle_alpha    80.9245
_cell_angle_beta     78.596
_cell_angle_gamma    83.0593

_space_group_name_H-M_alt    "P 1"
_space_group_IT_number       1

loop_
  _space_group_symop_operation_xyz
  'x, y, z'

loop_
  _atom_site_type_symbol
  _atom_site_label
  _atom_site_symmetry_multiplicity
  _atom_site_fract_x
  _atom_site_fract_y
  _atom_site_fract_z
  _atom_site_occupancy
  Cd  Cd1       1.0  0.23749  0.92309  0.52964  1.0000
  Cd  Cd2       1.0  0.76250  0.07691  0.47036  1.0000
  Cd  Cd3       1.0  0.26640  0.43689  0.98760  1.0000
  Cd  Cd4       1.0  0.73360  0.56311  0.01241  1.0000
  H   H1        1.0  0.15512  0.77821  0.35053  1.0000
  H   H2        1.0  0.84488  0.22180  0.64947  1.0000
  H   H3        1.0  0.11758  0.59908  0.25604  1.0000
  H   H4        1.0  0.88241  0.40092  0.74397  1.0000
  H   H5        1.0  0.19681  0.63695  0.74135  1.0000
  H   H6        1.0  0.80317  0.36305  0.25866  1.0000
  H   H7        1.0  0.44371  0.57901  0.71383  1.0000
  H   H8        1.0  0.55627  0.42098  0.28618  1.0000
  H   H9        1.0  0.23506  0.28045  0.47390  1.0000
  H   H10       1.0  0.76492  0.71955  0.52611  1.0000
  H   H11       1.0  0.15729  0.35735  0.31693  1.0000
  H   H12       1.0  0.84269  0.64266  0.68307  1.0000
  H   H13       1.0  0.50800  0.79164  0.65846  1.0000
  H   H14       1.0  0.49198  0.20836  0.34155  1.0000
  H   H15       1.0  0.31516  0.39948  0.63196  1.0000
  H   H16       1.0  0.68483  0.60052  0.36804  1.0000
  H   H17       1.0  0.09040  0.21273  0.15250  1.0000
  H   H18       1.0  0.90962  0.78726  0.84750  1.0000
  H   H19       1.0  0.21915  0.77602  0.01292  1.0000
  H   H20       1.0  0.78086  0.22398  0.98707  1.0000
  H   H21       1.0  0.97254  0.99771  0.24144  1.0000
  H   H22       1.0  0.02748  0.00228  0.75856  1.0000
  H   H23       1.0  0.03162  0.78443  0.17216  1.0000
  H   H24       1.0  0.96839  0.21556  0.82784  1.0000
  H   H25       1.0  0.51085  0.32913  0.81201  1.0000
  H   H26       1.0  0.48916  0.67087  0.18799  1.0000
  H   H27       1.0  0.58687  0.17350  0.76760  1.0000
  H   H28       1.0  0.41313  0.82650  0.23240  1.0000
  H   H29       1.0  0.33078  0.19760  0.70200  1.0000
  H   H30       1.0  0.66923  0.80240  0.29800  1.0000
  H   H31       1.0  0.40057  0.96015  0.85780  1.0000
  H   H32       1.0  0.59943  0.03986  0.14219  1.0000
  C   C1        1.0  0.22637  0.62703  0.46225  1.0000
  C   C2        1.0  0.77364  0.37298  0.53775  1.0000
  C   C3        1.0  0.17800  0.67041  0.37539  1.0000
  C   C4        1.0  0.82200  0.32959  0.62461  1.0000
  C   C5        1.0  0.24842  0.48733  0.49695  1.0000
  C   C6        1.0  0.75159  0.51267  0.50305  1.0000
  C   C7        1.0  0.15646  0.57081  0.32396  1.0000
  C   C8        1.0  0.84354  0.42919  0.67604  1.0000
  C   C9        1.0  0.29416  0.61176  0.60003  1.0000
  C   C10       1.0  0.70583  0.38824  0.39998  1.0000
  C   C11       1.0  0.32798  0.64850  0.68842  1.0000
  C   C12       1.0  0.67200  0.35150  0.31158  1.0000
  C   C13       1.0  0.22318  0.38752  0.44610  1.0000
  C   C14       1.0  0.77681  0.61248  0.55391  1.0000
  C   C15       1.0  0.17881  0.43206  0.35878  1.0000
  C   C16       1.0  0.82117  0.56794  0.64123  1.0000
  C   C17       1.0  0.22028  0.11436  0.03241  1.0000
  C   C18       1.0  0.77972  0.88564  0.96759  1.0000
  C   C19       1.0  0.25603  0.99126  0.99408  1.0000
  C   C20       1.0  0.74398  0.00875  0.00592  1.0000
  C   C21       1.0  0.11932  0.11837  0.12264  1.0000
  C   C22       1.0  0.88069  0.88163  0.87736  1.0000
  C   C23       1.0  0.19242  0.86984  0.04331  1.0000
  C   C24       1.0  0.80760  0.13016  0.95668  1.0000
  C   C25       1.0  0.37294  0.16083  0.89029  1.0000
  C   C26       1.0  0.62707  0.83918  0.10971  1.0000
  C   C27       1.0  0.05414  0.99764  0.17152  1.0000
  C   C28       1.0  0.94588  0.00236  0.82848  1.0000
  C   C29       1.0  0.09014  0.87575  0.13255  1.0000
  C   C30       1.0  0.90987  0.12424  0.86744  1.0000
  C   C31       1.0  0.46067  0.23532  0.79988  1.0000
  C   C32       1.0  0.53933  0.76468  0.20012  1.0000
  N   N1        1.0  0.25612  0.70094  0.52853  1.0000
  N   N2        1.0  0.74388  0.29906  0.47147  1.0000
  N   N3        1.0  0.29252  0.48264  0.58401  1.0000
  N   N4        1.0  0.70747  0.51736  0.41599  1.0000
  N   N5        1.0  0.29549  0.21712  0.96595  1.0000
  N   N6        1.0  0.70452  0.78288  0.03405  1.0000
  N   N7        1.0  0.35398  0.02507  0.90502  1.0000
  N   N8        1.0  0.64603  0.97493  0.09497  1.0000
  Cl  Cl1       1.0  0.12839  0.06124  0.38508  1.0000
  Cl  Cl2       1.0  0.87160  0.93876  0.61493  1.0000
  Cl  Cl3       1.0  0.38870  0.09688  0.58919  1.0000
  Cl  Cl4       1.0  0.61131  0.90312  0.41081  1.0000
  Cl  Cl5       1.0  0.00565  0.50660  0.11793  1.0000
  Cl  Cl6       1.0  0.99435  0.49340  0.88207  1.0000
  Cl  Cl7       1.0  0.47568  0.61632  0.89713  1.0000
  Cl  Cl8       1.0  0.52432  0.38369  0.10288  1.0000
  O   O1        1.0  0.36891  0.78671  0.67789  1.0000
  O   O2        1.0  0.63107  0.21329  0.32212  1.0000
  O   O3        1.0  0.32279  0.27196  0.73949  1.0000
  O   O4        1.0  0.67721  0.72804  0.26051  1.0000
