data_image0
_chemical_formula_structural       Cu2H20C20Br4N4O4
_chemical_formula_sum              "Cu2 H20 C20 Br4 N4 O4"
_cell_length_a       3.99491
_cell_length_b       8.65576
_cell_length_c       17.9542
_cell_angle_alpha    90.0013
_cell_angle_beta     89.9916
_cell_angle_gamma    103.942

_space_group_name_H-M_alt    "P 1"
_space_group_IT_number       1

loop_
  _space_group_symop_operation_xyz
  'x, y, z'

loop_
  _atom_site_type_symbol
  _atom_site_label
  _atom_site_symmetry_multiplicity
  _atom_site_fract_x
  _atom_site_fract_y
  _atom_site_fract_z
  _atom_site_occupancy
  Cu  Cu1       1.0  0.50000  0.50001  0.50000  1.0000
  Cu  Cu2       1.0  0.99999  0.00000  0.00000  1.0000
  H   H1        1.0  0.75290  0.51595  0.65403  1.0000
  H   H2        1.0  0.74712  0.98406  0.15404  1.0000
  H   H3        1.0  0.24712  0.48406  0.34596  1.0000
  H   H4        1.0  0.25287  0.01594  0.84596  1.0000
  H   H5        1.0  0.78143  0.75455  0.81469  1.0000
  H   H6        1.0  0.71865  0.74548  0.31470  1.0000
  H   H7        1.0  0.21858  0.24545  0.18531  1.0000
  H   H8        1.0  0.28138  0.25452  0.68530  1.0000
  H   H9        1.0  0.64282  0.96633  0.74153  1.0000
  H   H10       1.0  0.85719  0.53367  0.24153  1.0000
  H   H11       1.0  0.35717  0.03366  0.25847  1.0000
  H   H12       1.0  0.14282  0.46633  0.75847  1.0000
  H   H13       1.0  0.44483  0.02586  0.61528  1.0000
  H   H14       1.0  0.05518  0.47414  0.11526  1.0000
  H   H15       1.0  0.55515  0.97415  0.38473  1.0000
  H   H16       1.0  0.94483  0.52586  0.88474  1.0000
  H   H17       1.0  0.41999  0.82759  0.51228  1.0000
  H   H18       1.0  0.08001  0.67243  0.01226  1.0000
  H   H19       1.0  0.57997  0.17243  0.48773  1.0000
  H   H20       1.0  0.91998  0.32758  0.98774  1.0000
  C   C1        1.0  0.69001  0.63088  0.64720  1.0000
  C   C2        1.0  0.81000  0.86913  0.14720  1.0000
  C   C3        1.0  0.30999  0.36914  0.35280  1.0000
  C   C4        1.0  0.18999  0.13086  0.85281  1.0000
  C   C5        1.0  0.72185  0.73749  0.70693  1.0000
  C   C6        1.0  0.77814  0.76253  0.20693  1.0000
  C   C7        1.0  0.27815  0.26252  0.29307  1.0000
  C   C8        1.0  0.22184  0.23747  0.79307  1.0000
  C   C9        1.0  0.62920  0.88178  0.69609  1.0000
  C   C10       1.0  0.87083  0.61822  0.19608  1.0000
  C   C11       1.0  0.37079  0.11822  0.30391  1.0000
  C   C12       1.0  0.12917  0.38177  0.80392  1.0000
  C   C13       1.0  0.52034  0.91511  0.62564  1.0000
  C   C14       1.0  0.97965  0.58489  0.12563  1.0000
  C   C15       1.0  0.47963  0.08489  0.37436  1.0000
  C   C16       1.0  0.02035  0.41511  0.87437  1.0000
  C   C17       1.0  0.50458  0.80605  0.56807  1.0000
  C   C18       1.0  0.99542  0.69396  0.06805  1.0000
  C   C19       1.0  0.49540  0.19396  0.43194  1.0000
  C   C20       1.0  0.00457  0.30604  0.93195  1.0000
  Br  Br1       1.0  0.93582  0.67675  0.42000  1.0000
  Br  Br2       1.0  0.56435  0.82321  0.92002  1.0000
  Br  Br3       1.0  0.06428  0.32321  0.58000  1.0000
  Br  Br4       1.0  0.43566  0.17677  0.07998  1.0000
  N   N1        1.0  0.58344  0.66516  0.57961  1.0000
  N   N2        1.0  0.91653  0.83484  0.07961  1.0000
  N   N3        1.0  0.41654  0.33485  0.42038  1.0000
  N   N4        1.0  0.08344  0.16515  0.92039  1.0000
  O   O1        1.0  0.84147  0.69256  0.77203  1.0000
  O   O2        1.0  0.65856  0.80745  0.27205  1.0000
  O   O3        1.0  0.15856  0.30745  0.22797  1.0000
  O   O4        1.0  0.34145  0.19253  0.72796  1.0000
