data_image0
_chemical_formula_structural       Cd2H44C62N8O12
_chemical_formula_sum              "Cd2 H44 C62 N8 O12"
_cell_length_a       9.94587
_cell_length_b       11.7914
_cell_length_c       12.5788
_cell_angle_alpha    83.2596
_cell_angle_beta     88.4675
_cell_angle_gamma    69.8953

_space_group_name_H-M_alt    "P 1"
_space_group_IT_number       1

loop_
  _space_group_symop_operation_xyz
  'x, y, z'

loop_
  _atom_site_type_symbol
  _atom_site_label
  _atom_site_symmetry_multiplicity
  _atom_site_fract_x
  _atom_site_fract_y
  _atom_site_fract_z
  _atom_site_occupancy
  Cd  Cd1       1.0  0.50265  0.41632  0.67131  1.0000
  Cd  Cd2       1.0  0.49735  0.58367  0.32870  1.0000
  H   H1        1.0  0.63266  0.03128  0.95031  1.0000
  H   H2        1.0  0.36735  0.96871  0.04969  1.0000
  H   H3        1.0  0.80883  0.88969  0.08692  1.0000
  H   H4        1.0  0.19118  0.11031  0.91308  1.0000
  H   H5        1.0  0.94650  0.18738  0.83212  1.0000
  H   H6        1.0  0.05352  0.81261  0.16788  1.0000
  H   H7        1.0  0.36548  0.25662  0.29776  1.0000
  H   H8        1.0  0.63451  0.74338  0.70223  1.0000
  H   H9        1.0  0.32822  0.05665  0.31588  1.0000
  H   H10       1.0  0.67176  0.94336  0.68412  1.0000
  H   H11       1.0  0.62117  0.15073  0.58598  1.0000
  H   H12       1.0  0.37882  0.84927  0.41401  1.0000
  H   H13       1.0  0.65326  0.67181  0.10160  1.0000
  H   H14       1.0  0.34675  0.32819  0.89841  1.0000
  H   H15       1.0  0.56931  0.34483  0.15887  1.0000
  H   H16       1.0  0.43068  0.65518  0.84114  1.0000
  H   H17       1.0  0.73187  0.33696  0.97442  1.0000
  H   H18       1.0  0.26813  0.66304  0.02558  1.0000
  H   H19       1.0  0.79652  0.41544  0.82694  1.0000
  H   H20       1.0  0.20349  0.58457  0.17306  1.0000
  H   H21       1.0  0.94591  0.47624  0.68769  1.0000
  H   H22       1.0  0.05409  0.52377  0.31231  1.0000
  H   H23       1.0  0.95291  0.76805  0.86253  1.0000
  H   H24       1.0  0.04709  0.23196  0.13747  1.0000
  H   H25       1.0  0.82070  0.69949  0.00719  1.0000
  H   H26       1.0  0.17930  0.30051  0.99280  1.0000
  H   H27       1.0  0.18991  0.72405  0.63178  1.0000
  H   H28       1.0  0.81010  0.27595  0.36823  1.0000
  H   H29       1.0  0.15145  0.72623  0.77367  1.0000
  H   H30       1.0  0.84855  0.27377  0.22633  1.0000
  H   H31       1.0  0.84528  0.07061  0.59196  1.0000
  H   H32       1.0  0.15472  0.92938  0.40804  1.0000
  H   H33       1.0  0.91588  0.25332  0.56989  1.0000
  H   H34       1.0  0.08412  0.74667  0.43011  1.0000
  H   H35       1.0  0.33786  0.03405  0.69416  1.0000
  H   H36       1.0  0.66214  0.96595  0.30584  1.0000
  H   H37       1.0  0.26314  0.85665  0.72572  1.0000
  H   H38       1.0  0.73686  0.14335  0.27429  1.0000
  H   H39       1.0  0.05517  0.35727  0.47027  1.0000
  H   H40       1.0  0.94483  0.64273  0.52973  1.0000
  H   H41       1.0  0.21470  0.50717  0.49149  1.0000
  H   H42       1.0  0.78530  0.49283  0.50852  1.0000
  H   H43       1.0  0.34520  0.21271  0.73389  1.0000
  H   H44       1.0  0.65480  0.78728  0.26611  1.0000
  C   C1        1.0  0.67142  0.20529  0.80635  1.0000
  C   C2        1.0  0.32859  0.79471  0.19364  1.0000
  C   C3        1.0  0.78043  0.11796  0.88438  1.0000
  C   C4        1.0  0.21958  0.88204  0.11562  1.0000
  C   C5        1.0  0.74140  0.03230  0.95592  1.0000
  C   C6        1.0  0.25861  0.96769  0.04408  1.0000
  C   C7        1.0  0.83873  0.95430  0.03033  1.0000
  C   C8        1.0  0.16128  0.04569  0.96967  1.0000
  C   C9        1.0  0.97997  0.95707  0.03638  1.0000
  C   C10       1.0  0.02004  0.04292  0.96362  1.0000
  C   C11       1.0  0.91752  0.12226  0.88850  1.0000
  C   C12       1.0  0.08248  0.87773  0.11151  1.0000
  C   C13       1.0  0.52130  0.33354  0.42846  1.0000
  C   C14       1.0  0.47870  0.66645  0.57153  1.0000
  C   C15       1.0  0.49932  0.21305  0.44018  1.0000
  C   C16       1.0  0.50067  0.78695  0.55982  1.0000
  C   C17       1.0  0.41475  0.18690  0.36360  1.0000
  C   C18       1.0  0.58524  0.81310  0.63639  1.0000
  C   C19       1.0  0.39408  0.07653  0.37407  1.0000
  C   C20       1.0  0.60591  0.92348  0.62593  1.0000
  C   C21       1.0  0.45749  0.98684  0.46112  1.0000
  C   C22       1.0  0.54250  0.01316  0.53888  1.0000
  C   C23       1.0  0.56019  0.12788  0.52634  1.0000
  C   C24       1.0  0.43980  0.87212  0.47366  1.0000
  C   C25       1.0  0.65563  0.58061  0.09406  1.0000
  C   C26       1.0  0.34438  0.41939  0.90594  1.0000
  C   C27       1.0  0.61341  0.41093  0.11972  1.0000
  C   C28       1.0  0.38659  0.58908  0.88028  1.0000
  C   C29       1.0  0.69287  0.40623  0.02821  1.0000
  C   C30       1.0  0.30712  0.59377  0.97180  1.0000
  C   C31       1.0  0.80037  0.55180  0.92867  1.0000
  C   C32       1.0  0.19963  0.44821  0.07133  1.0000
  C   C33       1.0  0.83479  0.48969  0.83792  1.0000
  C   C34       1.0  0.16521  0.51032  0.16208  1.0000
  C   C35       1.0  0.91690  0.52466  0.75819  1.0000
  C   C36       1.0  0.08309  0.47535  0.24180  1.0000
  C   C37       1.0  0.96160  0.62350  0.76667  1.0000
  C   C38       1.0  0.03840  0.37650  0.23333  1.0000
  C   C39       1.0  0.92386  0.68820  0.85561  1.0000
  C   C40       1.0  0.07613  0.31181  0.14439  1.0000
  C   C41       1.0  0.84554  0.65046  0.93701  1.0000
  C   C42       1.0  0.15446  0.34955  0.06299  1.0000
  C   C43       1.0  0.10577  0.73774  0.69252  1.0000
  C   C44       1.0  0.89424  0.26226  0.30748  1.0000
  C   C45       1.0  0.04786  0.95201  0.66026  1.0000
  C   C46       1.0  0.95213  0.04799  0.33974  1.0000
  C   C47       1.0  0.95205  0.06437  0.61591  1.0000
  C   C48       1.0  0.04795  0.93563  0.38409  1.0000
  C   C49       1.0  0.99333  0.16618  0.60174  1.0000
  C   C50       1.0  0.00667  0.83382  0.39827  1.0000
  C   C51       1.0  0.13276  0.15571  0.62973  1.0000
  C   C52       1.0  0.86724  0.84429  0.37028  1.0000
  C   C53       1.0  0.22809  0.04409  0.67467  1.0000
  C   C54       1.0  0.77191  0.95590  0.32534  1.0000
  C   C55       1.0  0.18587  0.94246  0.69120  1.0000
  C   C56       1.0  0.81412  0.05754  0.30881  1.0000
  C   C57       1.0  0.13395  0.35305  0.52973  1.0000
  C   C58       1.0  0.86604  0.64695  0.47028  1.0000
  C   C59       1.0  0.21444  0.42527  0.54033  1.0000
  C   C60       1.0  0.78556  0.57473  0.45967  1.0000
  C   C61       1.0  0.28485  0.27459  0.66750  1.0000
  C   C62       1.0  0.71515  0.72541  0.33250  1.0000
  N   N1        1.0  0.71964  0.51510  0.01239  1.0000
  N   N2        1.0  0.28036  0.48491  0.98761  1.0000
  N   N3        1.0  0.59164  0.51973  0.16008  1.0000
  N   N4        1.0  0.40836  0.48028  0.83991  1.0000
  N   N5        1.0  0.30760  0.37547  0.62627  1.0000
  N   N6        1.0  0.69240  0.62453  0.37373  1.0000
  N   N7        1.0  0.17967  0.25753  0.61120  1.0000
  N   N8        1.0  0.82033  0.74246  0.38881  1.0000
  O   O1        1.0  0.70794  0.29001  0.75273  1.0000
  O   O2        1.0  0.29207  0.70999  0.24727  1.0000
  O   O3        1.0  0.55068  0.19369  0.79848  1.0000
  O   O4        1.0  0.44933  0.80630  0.20151  1.0000
  O   O5        1.0  0.59968  0.35596  0.49566  1.0000
  O   O6        1.0  0.40033  0.64403  0.50433  1.0000
  O   O7        1.0  0.45848  0.40766  0.34758  1.0000
  O   O8        1.0  0.54151  0.59234  0.65242  1.0000
  O   O9        1.0  0.04144  0.65095  0.68268  1.0000
  O   O10       1.0  0.95856  0.34905  0.31732  1.0000
  O   O11       1.0  0.99903  0.85587  0.66964  1.0000
  O   O12       1.0  0.00097  0.14412  0.33036  1.0000
