data_image0
_chemical_formula_structural       Rb4H16C12N36O12
_chemical_formula_sum              "Rb4 H16 C12 N36 O12"
_cell_length_a       7.6462
_cell_length_b       7.53528
_cell_length_c       18.1483
_cell_angle_alpha    79.4788
_cell_angle_beta     85.342
_cell_angle_gamma    71.1243

_space_group_name_H-M_alt    "P 1"
_space_group_IT_number       1

loop_
  _space_group_symop_operation_xyz
  'x, y, z'

loop_
  _atom_site_type_symbol
  _atom_site_label
  _atom_site_symmetry_multiplicity
  _atom_site_fract_x
  _atom_site_fract_y
  _atom_site_fract_z
  _atom_site_occupancy
  Rb  Rb1       1.0  0.70818  0.15945  0.99649  1.0000
  Rb  Rb2       1.0  0.29181  0.84055  0.00351  1.0000
  Rb  Rb3       1.0  0.36310  0.33428  0.57030  1.0000
  Rb  Rb4       1.0  0.63691  0.66572  0.42970  1.0000
  H   H1        1.0  0.42680  0.76430  0.71528  1.0000
  H   H2        1.0  0.57320  0.23570  0.28472  1.0000
  H   H3        1.0  0.28884  0.76975  0.80019  1.0000
  H   H4        1.0  0.71116  0.23025  0.19981  1.0000
  H   H5        1.0  0.90601  0.80401  0.86488  1.0000
  H   H6        1.0  0.09399  0.19600  0.13512  1.0000
  H   H7        1.0  0.78280  0.63529  0.88223  1.0000
  H   H8        1.0  0.21720  0.36471  0.11777  1.0000
  H   H9        1.0  0.98663  0.07661  0.83066  1.0000
  H   H10       1.0  0.01336  0.92339  0.16934  1.0000
  H   H11       1.0  0.02547  0.16755  0.89769  1.0000
  H   H12       1.0  0.97452  0.83245  0.10231  1.0000
  H   H13       1.0  0.75199  0.17664  0.44865  1.0000
  H   H14       1.0  0.24802  0.82336  0.55135  1.0000
  H   H15       1.0  0.81772  0.19285  0.52642  1.0000
  H   H16       1.0  0.18229  0.80715  0.47358  1.0000
  C   C1        1.0  0.32148  0.85613  0.74850  1.0000
  C   C2        1.0  0.67851  0.14387  0.25150  1.0000
  C   C3        1.0  0.15504  0.96434  0.70283  1.0000
  C   C4        1.0  0.84496  0.03566  0.29717  1.0000
  C   C5        1.0  0.91455  0.65716  0.86196  1.0000
  C   C6        1.0  0.08544  0.34284  0.13803  1.0000
  C   C7        1.0  0.88798  0.66102  0.67157  1.0000
  C   C8        1.0  0.11202  0.33897  0.32843  1.0000
  C   C9        1.0  0.07259  0.52020  0.90546  1.0000
  C   C10       1.0  0.92740  0.47980  0.09454  1.0000
  C   C11       1.0  0.51569  0.19398  0.77868  1.0000
  C   C12       1.0  0.48432  0.80602  0.22132  1.0000
  N   N1        1.0  0.08180  0.34098  0.93544  1.0000
  N   N2        1.0  0.91819  0.65902  0.06456  1.0000
  N   N3        1.0  0.93601  0.63473  0.78250  1.0000
  N   N4        1.0  0.06399  0.36527  0.21750  1.0000
  N   N5        1.0  0.40588  0.98286  0.77428  1.0000
  N   N6        1.0  0.59412  0.01714  0.22572  1.0000
  N   N7        1.0  0.14410  0.97119  0.62856  1.0000
  N   N8        1.0  0.85590  0.02881  0.37144  1.0000
  N   N9        1.0  0.42848  0.13565  0.73195  1.0000
  N   N10       1.0  0.57153  0.86434  0.26805  1.0000
  N   N11       1.0  0.54606  0.08246  0.84630  1.0000
  N   N12       1.0  0.45394  0.91754  0.15370  1.0000
  N   N13       1.0  0.80833  0.73040  0.73280  1.0000
  N   N14       1.0  0.19167  0.26960  0.26720  1.0000
  N   N15       1.0  0.99476  0.06863  0.73133  1.0000
  N   N16       1.0  0.00523  0.93138  0.26867  1.0000
  N   N17       1.0  0.88125  0.14244  0.67305  1.0000
  N   N18       1.0  0.11875  0.85756  0.32695  1.0000
  N   N19       1.0  0.79945  0.71717  0.60003  1.0000
  N   N20       1.0  0.20055  0.28281  0.39997  1.0000
  N   N21       1.0  0.47472  0.94697  0.84315  1.0000
  N   N22       1.0  0.52528  0.05303  0.15685  1.0000
  N   N23       1.0  0.05584  0.52978  0.68290  1.0000
  N   N24       1.0  0.94417  0.47022  0.31710  1.0000
  N   N25       1.0  0.96992  0.08383  0.61180  1.0000
  N   N26       1.0  0.03008  0.91618  0.38820  1.0000
  N   N27       1.0  0.32754  0.40041  0.96203  1.0000
  N   N28       1.0  0.67245  0.59959  0.03797  1.0000
  N   N29       1.0  0.08629  0.51332  0.75449  1.0000
  N   N30       1.0  0.91372  0.48669  0.24552  1.0000
  N   N31       1.0  0.24381  0.26861  0.97089  1.0000
  N   N32       1.0  0.75618  0.73140  0.02911  1.0000
  N   N33       1.0  0.22296  0.56081  0.92051  1.0000
  N   N34       1.0  0.77704  0.43919  0.07948  1.0000
  N   N35       1.0  0.56576  0.36583  0.75850  1.0000
  N   N36       1.0  0.43424  0.63417  0.24151  1.0000
  O   O1        1.0  0.00742  0.05094  0.88549  1.0000
  O   O2        1.0  0.99257  0.94906  0.11451  1.0000
  O   O3        1.0  0.52100  0.46093  0.69558  1.0000
  O   O4        1.0  0.47901  0.53907  0.30442  1.0000
  O   O5        1.0  0.64801  0.40647  0.80558  1.0000
  O   O6        1.0  0.35198  0.59352  0.19443  1.0000
  O   O7        1.0  0.71865  0.25468  0.48924  1.0000
  O   O8        1.0  0.28135  0.74532  0.51076  1.0000
  O   O9        1.0  0.64273  0.83518  0.59584  1.0000
  O   O10       1.0  0.35729  0.16480  0.40416  1.0000
  O   O11       1.0  0.88822  0.63915  0.54801  1.0000
  O   O12       1.0  0.11179  0.36082  0.45199  1.0000
