data_image0
_chemical_formula_structural       K4H16C12N36O12
_chemical_formula_sum              "K4 H16 C12 N36 O12"
_cell_length_a       7.52629
_cell_length_b       7.73409
_cell_length_c       17.5106
_cell_angle_alpha    84.4766
_cell_angle_beta     78.4786
_cell_angle_gamma    69.9758

_space_group_name_H-M_alt    "P 1"
_space_group_IT_number       1

loop_
  _space_group_symop_operation_xyz
  'x, y, z'

loop_
  _atom_site_type_symbol
  _atom_site_label
  _atom_site_symmetry_multiplicity
  _atom_site_fract_x
  _atom_site_fract_y
  _atom_site_fract_z
  _atom_site_occupancy
  K   K1        1.0  0.85111  0.79519  0.00231  1.0000
  K   K2        1.0  0.14888  0.20482  0.99769  1.0000
  K   K3        1.0  0.34977  0.86255  0.56791  1.0000
  K   K4        1.0  0.65022  0.13744  0.43209  1.0000
  H   H1        1.0  0.77045  0.94416  0.71173  1.0000
  H   H2        1.0  0.22955  0.05584  0.28827  1.0000
  H   H3        1.0  0.81552  0.42981  0.86404  1.0000
  H   H4        1.0  0.18448  0.57020  0.13596  1.0000
  H   H5        1.0  0.77053  0.81393  0.80236  1.0000
  H   H6        1.0  0.22947  0.18607  0.19764  1.0000
  H   H7        1.0  0.64940  0.30637  0.88580  1.0000
  H   H8        1.0  0.35060  0.69363  0.11420  1.0000
  H   H9        1.0  0.82186  0.46861  0.09333  1.0000
  H   H10       1.0  0.17814  0.53139  0.90668  1.0000
  H   H11       1.0  0.91458  0.50539  0.16135  1.0000
  H   H12       1.0  0.08542  0.49461  0.83865  1.0000
  H   H13       1.0  0.19891  0.30923  0.52983  1.0000
  H   H14       1.0  0.80109  0.69077  0.47017  1.0000
  H   H15       1.0  0.17971  0.24081  0.45133  1.0000
  H   H16       1.0  0.82029  0.75918  0.54867  1.0000
  C   C1        1.0  0.96870  0.66976  0.70313  1.0000
  C   C2        1.0  0.03130  0.33024  0.29687  1.0000
  C   C3        1.0  0.86035  0.84009  0.74774  1.0000
  C   C4        1.0  0.13965  0.15991  0.25226  1.0000
  C   C5        1.0  0.20276  0.02746  0.77267  1.0000
  C   C6        1.0  0.79725  0.97254  0.22733  1.0000
  C   C7        1.0  0.66977  0.39567  0.66687  1.0000
  C   C8        1.0  0.33023  0.60433  0.33313  1.0000
  C   C9        1.0  0.52672  0.59577  0.90702  1.0000
  C   C10       1.0  0.47328  0.40423  0.09298  1.0000
  C   C11       1.0  0.66798  0.43726  0.86261  1.0000
  C   C12       1.0  0.33202  0.56274  0.13739  1.0000
  N   N1        1.0  0.98971  0.92076  0.77214  1.0000
  N   N2        1.0  0.01029  0.07924  0.22786  1.0000
  N   N3        1.0  0.14199  0.94245  0.72582  1.0000
  N   N4        1.0  0.85800  0.05755  0.27418  1.0000
  N   N5        1.0  0.09350  0.05722  0.84410  1.0000
  N   N6        1.0  0.90650  0.94278  0.15590  1.0000
  N   N7        1.0  0.37613  0.07415  0.74902  1.0000
  N   N8        1.0  0.62387  0.92585  0.25098  1.0000
  N   N9        1.0  0.95683  0.98767  0.84350  1.0000
  N   N10       1.0  0.04317  0.01233  0.15650  1.0000
  N   N11       1.0  0.26582  0.76850  0.97214  1.0000
  N   N12       1.0  0.73418  0.23150  0.02786  1.0000
  N   N13       1.0  0.97406  0.65131  0.62689  1.0000
  N   N14       1.0  0.02595  0.34869  0.37311  1.0000
  N   N15       1.0  0.07492  0.51282  0.73508  1.0000
  N   N16       1.0  0.92508  0.48718  0.26492  1.0000
  N   N17       1.0  0.14863  0.39364  0.67686  1.0000
  N   N18       1.0  0.85137  0.60636  0.32314  1.0000
  N   N19       1.0  0.08802  0.47555  0.61245  1.0000
  N   N20       1.0  0.91198  0.52445  0.38755  1.0000
  N   N21       1.0  0.64450  0.45359  0.78049  1.0000
  N   N22       1.0  0.35550  0.54642  0.21951  1.0000
  N   N23       1.0  0.53750  0.56492  0.67648  1.0000
  N   N24       1.0  0.46250  0.43508  0.32352  1.0000
  N   N25       1.0  0.74028  0.32132  0.73089  1.0000
  N   N26       1.0  0.25972  0.67868  0.26911  1.0000
  N   N27       1.0  0.52196  0.60185  0.74979  1.0000
  N   N28       1.0  0.47804  0.39815  0.25021  1.0000
  N   N29       1.0  0.72549  0.29931  0.59485  1.0000
  N   N30       1.0  0.27451  0.70069  0.40515  1.0000
  N   N31       1.0  0.34327  0.60889  0.93474  1.0000
  N   N32       1.0  0.65673  0.39111  0.06526  1.0000
  N   N33       1.0  0.56556  0.74184  0.92570  1.0000
  N   N34       1.0  0.43444  0.25816  0.07429  1.0000
  N   N35       1.0  0.39900  0.84759  0.96693  1.0000
  N   N36       1.0  0.60100  0.15241  0.03307  1.0000
  O   O1        1.0  0.93526  0.49658  0.10378  1.0000
  O   O2        1.0  0.06474  0.50342  0.89622  1.0000
  O   O3        1.0  0.47134  0.02661  0.68332  1.0000
  O   O4        1.0  0.52866  0.97339  0.31668  1.0000
  O   O5        1.0  0.26031  0.20751  0.49252  1.0000
  O   O6        1.0  0.73969  0.79249  0.50748  1.0000
  O   O7        1.0  0.41869  0.15492  0.79634  1.0000
  O   O8        1.0  0.58131  0.84508  0.20366  1.0000
  O   O9        1.0  0.84704  0.14346  0.59263  1.0000
  O   O10       1.0  0.15296  0.85654  0.40737  1.0000
  O   O11       1.0  0.64314  0.38092  0.54053  1.0000
  O   O12       1.0  0.35686  0.61908  0.45947  1.0000
