data_image0
_chemical_formula_structural       Cd2H34C46N4O12
_chemical_formula_sum              "Cd2 H34 C46 N4 O12"
_cell_length_a       7.2665
_cell_length_b       10.4885
_cell_length_c       14.3929
_cell_angle_alpha    84.788
_cell_angle_beta     76.4771
_cell_angle_gamma    77.3227

_space_group_name_H-M_alt    "P 1"
_space_group_IT_number       1

loop_
  _space_group_symop_operation_xyz
  'x, y, z'

loop_
  _atom_site_type_symbol
  _atom_site_label
  _atom_site_symmetry_multiplicity
  _atom_site_fract_x
  _atom_site_fract_y
  _atom_site_fract_z
  _atom_site_occupancy
  Cd  Cd1       1.0  0.11592  0.05203  0.05898  1.0000
  Cd  Cd2       1.0  0.88408  0.94797  0.94103  1.0000
  H   H1        1.0  0.45841  0.16525  0.08906  1.0000
  H   H2        1.0  0.54159  0.83475  0.91094  1.0000
  H   H3        1.0  0.41630  0.30122  0.95190  1.0000
  H   H4        1.0  0.58371  0.69879  0.04811  1.0000
  H   H5        1.0  0.81021  0.48186  0.05025  1.0000
  H   H6        1.0  0.18981  0.51815  0.94976  1.0000
  H   H7        1.0  0.60573  0.14728  0.39742  1.0000
  H   H8        1.0  0.39426  0.85272  0.60258  1.0000
  H   H9        1.0  0.45454  0.30421  0.40776  1.0000
  H   H10       1.0  0.54545  0.69579  0.59224  1.0000
  H   H11       1.0  0.18881  0.08593  0.66781  1.0000
  H   H12       1.0  0.81119  0.91408  0.33219  1.0000
  H   H13       1.0  0.56196  0.21428  0.81585  1.0000
  H   H14       1.0  0.43802  0.78573  0.18415  1.0000
  H   H15       1.0  0.59417  0.22551  0.21903  1.0000
  H   H16       1.0  0.40583  0.77449  0.78097  1.0000
  H   H17       1.0  0.65069  0.26964  0.50842  1.0000
  H   H18       1.0  0.34932  0.73036  0.49158  1.0000
  H   H19       1.0  0.04979  0.38693  0.55782  1.0000
  H   H20       1.0  0.95023  0.61306  0.44218  1.0000
  H   H21       1.0  0.11640  0.10704  0.42249  1.0000
  H   H22       1.0  0.88359  0.89296  0.57751  1.0000
  H   H23       1.0  0.99606  0.05594  0.28251  1.0000
  H   H24       1.0  0.00394  0.94406  0.71749  1.0000
  H   H25       1.0  0.29200  0.52895  0.51923  1.0000
  H   H26       1.0  0.70800  0.47105  0.48077  1.0000
  H   H27       1.0  0.15280  0.65186  0.79770  1.0000
  H   H28       1.0  0.84719  0.34814  0.20230  1.0000
  H   H29       1.0  0.87192  0.26360  0.77572  1.0000
  H   H30       1.0  0.12809  0.73640  0.22428  1.0000
  H   H31       1.0  0.67971  0.40328  0.78168  1.0000
  H   H32       1.0  0.32030  0.59671  0.21832  1.0000
  H   H33       1.0  0.90586  0.51508  0.84729  1.0000
  H   H34       1.0  0.09413  0.48491  0.15270  1.0000
  C   C1        1.0  0.38518  0.15687  0.16382  1.0000
  C   C2        1.0  0.61482  0.84313  0.83618  1.0000
  C   C3        1.0  0.62719  0.37934  0.00096  1.0000
  C   C4        1.0  0.37283  0.62067  0.99904  1.0000
  C   C5        1.0  0.45250  0.38864  0.97253  1.0000
  C   C6        1.0  0.54752  0.61137  0.02747  1.0000
  C   C7        1.0  0.76349  0.24965  0.00233  1.0000
  C   C8        1.0  0.23652  0.75035  0.99768  1.0000
  C   C9        1.0  0.36567  0.14561  0.75034  1.0000
  C   C10       1.0  0.63432  0.85439  0.24966  1.0000
  C   C11       1.0  0.67393  0.49095  0.02843  1.0000
  C   C12       1.0  0.32609  0.50906  0.97158  1.0000
  C   C13       1.0  0.45285  0.19892  0.40987  1.0000
  C   C14       1.0  0.54714  0.80108  0.59013  1.0000
  C   C15       1.0  0.31134  0.13046  0.66606  1.0000
  C   C16       1.0  0.68865  0.86954  0.33394  1.0000
  C   C17       1.0  0.61960  0.25086  0.66125  1.0000
  C   C18       1.0  0.38039  0.74913  0.33875  1.0000
  C   C19       1.0  0.95806  0.43807  0.70619  1.0000
  C   C20       1.0  0.04194  0.56192  0.29380  1.0000
  C   C21       1.0  0.41405  0.17423  0.57877  1.0000
  C   C22       1.0  0.58595  0.82577  0.42123  1.0000
  C   C23       1.0  0.52075  0.20609  0.74906  1.0000
  C   C24       1.0  0.47924  0.79391  0.25094  1.0000
  C   C25       1.0  0.45995  0.18945  0.23657  1.0000
  C   C26       1.0  0.54005  0.81055  0.76343  1.0000
  C   C27       1.0  0.56950  0.23359  0.57532  1.0000
  C   C28       1.0  0.43050  0.76641  0.42469  1.0000
  C   C29       1.0  0.36547  0.17025  0.33176  1.0000
  C   C30       1.0  0.63453  0.82975  0.66824  1.0000
  C   C31       1.0  0.25557  0.09510  0.84314  1.0000
  C   C32       1.0  0.74442  0.90491  0.15686  1.0000
  C   C33       1.0  0.06853  0.44419  0.61303  1.0000
  C   C34       1.0  0.93148  0.55580  0.38697  1.0000
  C   C35       1.0  0.19479  0.12271  0.34955  1.0000
  C   C36       1.0  0.80521  0.87729  0.65045  1.0000
  C   C37       1.0  0.12787  0.09389  0.27259  1.0000
  C   C38       1.0  0.87213  0.90611  0.72741  1.0000
  C   C39       1.0  0.20453  0.52390  0.59198  1.0000
  C   C40       1.0  0.79547  0.47609  0.40802  1.0000
  C   C41       1.0  0.12845  0.59145  0.74547  1.0000
  C   C42       1.0  0.87154  0.40855  0.25453  1.0000
  C   C43       1.0  0.81289  0.35142  0.73493  1.0000
  C   C44       1.0  0.18712  0.64858  0.26507  1.0000
  C   C45       1.0  0.98942  0.51447  0.77362  1.0000
  C   C46       1.0  0.01058  0.48552  0.22638  1.0000
  N   N1        1.0  0.22198  0.10938  0.18132  1.0000
  N   N2        1.0  0.77802  0.89062  0.81868  1.0000
  N   N3        1.0  0.23648  0.59724  0.65600  1.0000
  N   N4        1.0  0.76352  0.40276  0.34400  1.0000
  O   O1        1.0  0.12584  0.03354  0.83772  1.0000
  O   O2        1.0  0.87416  0.96646  0.16228  1.0000
  O   O3        1.0  0.73115  0.15916  0.95881  1.0000
  O   O4        1.0  0.26886  0.84084  0.04119  1.0000
  O   O5        1.0  0.30044  0.11646  0.92009  1.0000
  O   O6        1.0  0.69955  0.88355  0.07991  1.0000
  O   O7        1.0  0.34827  0.15732  0.49984  1.0000
  O   O8        1.0  0.65173  0.84268  0.50016  1.0000
  O   O9        1.0  0.89725  0.24058  0.04747  1.0000
  O   O10       1.0  0.10277  0.75943  0.95254  1.0000
  O   O11       1.0  0.76996  0.31406  0.65037  1.0000
  O   O12       1.0  0.23003  0.68593  0.34963  1.0000
