data_image0
_chemical_formula_structural       Ag4H16C24S4N8
_chemical_formula_sum              "Ag4 H16 C24 S4 N8"
_cell_length_a       6.16482
_cell_length_b       9.40051
_cell_length_c       12.1214
_cell_angle_alpha    100.251
_cell_angle_beta     90.0158
_cell_angle_gamma    109.161

_space_group_name_H-M_alt    "P 1"
_space_group_IT_number       1

loop_
  _space_group_symop_operation_xyz
  'x, y, z'

loop_
  _atom_site_type_symbol
  _atom_site_label
  _atom_site_symmetry_multiplicity
  _atom_site_fract_x
  _atom_site_fract_y
  _atom_site_fract_z
  _atom_site_occupancy
  Ag  Ag1       1.0  0.74128  0.58730  0.06045  1.0000
  Ag  Ag2       1.0  0.15395  0.41278  0.43954  1.0000
  Ag  Ag3       1.0  0.25870  0.41270  0.93955  1.0000
  Ag  Ag4       1.0  0.84607  0.58723  0.56046  1.0000
  H   H1        1.0  0.11001  0.69805  0.90127  1.0000
  H   H2        1.0  0.41201  0.30186  0.59862  1.0000
  H   H3        1.0  0.88999  0.30195  0.09873  1.0000
  H   H4        1.0  0.58799  0.69813  0.40138  1.0000
  H   H5        1.0  0.20588  0.86066  0.75649  1.0000
  H   H6        1.0  0.34536  0.13944  0.74350  1.0000
  H   H7        1.0  0.79413  0.13935  0.24351  1.0000
  H   H8        1.0  0.65466  0.86056  0.25651  1.0000
  H   H9        1.0  0.63132  0.01212  0.85317  1.0000
  H   H10       1.0  0.61906  0.98801  0.64693  1.0000
  H   H11       1.0  0.36867  0.98788  0.14683  1.0000
  H   H12       1.0  0.38094  0.01200  0.35307  1.0000
  H   H13       1.0  0.55777  0.84142  0.99544  1.0000
  H   H14       1.0  0.71625  0.15857  0.50452  1.0000
  H   H15       1.0  0.44222  0.15859  0.00456  1.0000
  H   H16       1.0  0.28377  0.84143  0.49547  1.0000
  C   C1        1.0  0.00971  0.77127  0.88989  1.0000
  C   C2        1.0  0.23851  0.22880  0.61008  1.0000
  C   C3        1.0  0.99028  0.22873  0.11011  1.0000
  C   C4        1.0  0.76150  0.77120  0.38993  1.0000
  C   C5        1.0  0.06337  0.86340  0.80913  1.0000
  C   C6        1.0  0.20011  0.13671  0.69083  1.0000
  C   C7        1.0  0.93662  0.13661  0.19088  1.0000
  C   C8        1.0  0.79990  0.86329  0.30918  1.0000
  C   C9        1.0  0.92596  0.95154  0.79294  1.0000
  C   C10       1.0  0.97448  0.04865  0.70708  1.0000
  C   C11       1.0  0.07403  0.04844  0.20706  1.0000
  C   C12       1.0  0.02553  0.95134  0.29292  1.0000
  C   C13       1.0  0.73948  0.94259  0.86067  1.0000
  C   C14       1.0  0.79675  0.05744  0.63928  1.0000
  C   C15       1.0  0.26052  0.05741  0.13933  1.0000
  C   C16       1.0  0.20326  0.94256  0.36071  1.0000
  C   C17       1.0  0.69977  0.84953  0.94061  1.0000
  C   C18       1.0  0.85018  0.15056  0.55937  1.0000
  C   C19       1.0  0.30023  0.15047  0.05938  1.0000
  C   C20       1.0  0.14982  0.84944  0.44062  1.0000
  C   C21       1.0  0.77394  0.41143  0.77530  1.0000
  C   C22       1.0  0.36242  0.58854  0.72471  1.0000
  C   C23       1.0  0.22604  0.58857  0.22469  1.0000
  C   C24       1.0  0.63757  0.41145  0.27528  1.0000
  S   S1        1.0  0.74186  0.33925  0.88926  1.0000
  S   S2        1.0  0.40261  0.66077  0.61078  1.0000
  S   S3        1.0  0.25813  0.66075  0.11074  1.0000
  S   S4        1.0  0.59739  0.33924  0.38922  1.0000
  N   N1        1.0  0.83149  0.76411  0.95538  1.0000
  N   N2        1.0  0.06740  0.23585  0.54449  1.0000
  N   N3        1.0  0.16851  0.23589  0.04462  1.0000
  N   N4        1.0  0.93262  0.76416  0.45552  1.0000
  N   N5        1.0  0.79946  0.46329  0.69250  1.0000
  N   N6        1.0  0.33617  0.53655  0.80747  1.0000
  N   N7        1.0  0.20053  0.53670  0.30750  1.0000
  N   N8        1.0  0.66381  0.46344  0.19253  1.0000
