data_image0
_chemical_formula_structural       Ag2H10C14S2N4
_chemical_formula_sum              "Ag2 H10 C14 S2 N4"
_cell_length_a       5.89333
_cell_length_b       7.24398
_cell_length_c       9.48629
_cell_angle_alpha    102.301
_cell_angle_beta     106.337
_cell_angle_gamma    95.9806

_space_group_name_H-M_alt    "P 1"
_space_group_IT_number       1

loop_
  _space_group_symop_operation_xyz
  'x, y, z'

loop_
  _atom_site_type_symbol
  _atom_site_label
  _atom_site_symmetry_multiplicity
  _atom_site_fract_x
  _atom_site_fract_y
  _atom_site_fract_z
  _atom_site_occupancy
  Ag  Ag1       1.0  0.81329  0.99870  0.32528  1.0000
  Ag  Ag2       1.0  0.18663  0.00134  0.67465  1.0000
  H   H1        1.0  0.70385  0.53529  0.15167  1.0000
  H   H2        1.0  0.29620  0.46465  0.84835  1.0000
  H   H3        1.0  0.04128  0.31790  0.92147  1.0000
  H   H4        1.0  0.95883  0.68206  0.07851  1.0000
  H   H5        1.0  0.61591  0.40528  0.34383  1.0000
  H   H6        1.0  0.38406  0.59471  0.65621  1.0000
  H   H7        1.0  0.78082  0.14385  0.03003  1.0000
  H   H8        1.0  0.21915  0.85616  0.96993  1.0000
  H   H9        1.0  0.32877  0.22912  0.43678  1.0000
  H   H10       1.0  0.67117  0.77090  0.56326  1.0000
  C   C1        1.0  0.35599  0.37810  0.12308  1.0000
  C   C2        1.0  0.64402  0.62191  0.87692  1.0000
  C   C3        1.0  0.52478  0.48252  0.06950  1.0000
  C   C4        1.0  0.47524  0.51754  0.93054  1.0000
  C   C5        1.0  0.11486  0.30221  0.03626  1.0000
  C   C6        1.0  0.88516  0.69780  0.96374  1.0000
  C   C7        1.0  0.43179  0.35035  0.27026  1.0000
  C   C8        1.0  0.56822  0.64965  0.72973  1.0000
  C   C9        1.0  0.96704  0.20421  0.09685  1.0000
  C   C10       1.0  0.03296  0.79575  0.90313  1.0000
  C   C11       1.0  0.30386  0.80226  0.34443  1.0000
  C   C12       1.0  0.69614  0.19775  0.65557  1.0000
  C   C13       1.0  0.27170  0.25180  0.32304  1.0000
  C   C14       1.0  0.72830  0.74821  0.67697  1.0000
  S   S1        1.0  0.07743  0.72491  0.39638  1.0000
  S   S2        1.0  0.92254  0.27511  0.60363  1.0000
  N   N1        1.0  0.04214  0.17763  0.23831  1.0000
  N   N2        1.0  0.95787  0.82232  0.76168  1.0000
  N   N3        1.0  0.46641  0.85710  0.30514  1.0000
  N   N4        1.0  0.53356  0.14290  0.69486  1.0000
