data_image0
_chemical_formula_structural       Ag4H16C28S4N8
_chemical_formula_sum              "Ag4 H16 C28 S4 N8"
_cell_length_a       4.06588
_cell_length_b       8.8545
_cell_length_c       20.5404
_cell_angle_alpha    89.9999
_cell_angle_beta     89.9999
_cell_angle_gamma    97.2277

_space_group_name_H-M_alt    "P 1"
_space_group_IT_number       1

loop_
  _space_group_symop_operation_xyz
  'x, y, z'

loop_
  _atom_site_type_symbol
  _atom_site_label
  _atom_site_symmetry_multiplicity
  _atom_site_fract_x
  _atom_site_fract_y
  _atom_site_fract_z
  _atom_site_occupancy
  Ag  Ag1       1.0  0.16922  0.30692  0.15636  1.0000
  Ag  Ag2       1.0  0.33079  0.19308  0.65636  1.0000
  Ag  Ag3       1.0  0.83079  0.69308  0.84364  1.0000
  Ag  Ag4       1.0  0.66922  0.80692  0.34364  1.0000
  H   H1        1.0  0.95932  0.17916  0.03836  1.0000
  H   H2        1.0  0.54068  0.32084  0.53836  1.0000
  H   H3        1.0  0.04069  0.82084  0.96164  1.0000
  H   H4        1.0  0.45932  0.67916  0.46164  1.0000
  H   H5        1.0  0.98475  0.20813  0.82849  1.0000
  H   H6        1.0  0.51525  0.29187  0.32849  1.0000
  H   H7        1.0  0.01525  0.79187  0.17151  1.0000
  H   H8        1.0  0.48475  0.70813  0.67151  1.0000
  H   H9        1.0  0.39350  0.44087  0.83418  1.0000
  H   H10       1.0  0.10650  0.05913  0.33418  1.0000
  H   H11       1.0  0.60650  0.55913  0.16582  1.0000
  H   H12       1.0  0.89350  0.94087  0.66582  1.0000
  H   H13       1.0  0.77159  0.07667  0.92971  1.0000
  H   H14       1.0  0.72841  0.42333  0.42971  1.0000
  H   H15       1.0  0.22841  0.92333  0.07029  1.0000
  H   H16       1.0  0.27160  0.57667  0.57029  1.0000
  C   C1        1.0  0.27838  0.37089  0.99866  1.0000
  C   C2        1.0  0.22162  0.12911  0.49866  1.0000
  C   C3        1.0  0.72162  0.62911  0.00134  1.0000
  C   C4        1.0  0.77837  0.87089  0.50134  1.0000
  C   C5        1.0  0.05019  0.23584  0.99354  1.0000
  C   C6        1.0  0.44981  0.26416  0.49353  1.0000
  C   C7        1.0  0.94981  0.76416  0.00646  1.0000
  C   C8        1.0  0.55019  0.73584  0.50646  1.0000
  C   C9        1.0  0.62705  0.02705  0.21185  1.0000
  C   C10       1.0  0.87295  0.47295  0.71184  1.0000
  C   C11       1.0  0.37295  0.97296  0.78815  1.0000
  C   C12       1.0  0.12705  0.52705  0.28816  1.0000
  C   C13       1.0  0.07069  0.25430  0.87551  1.0000
  C   C14       1.0  0.42931  0.24571  0.37551  1.0000
  C   C15       1.0  0.92931  0.74571  0.12449  1.0000
  C   C16       1.0  0.57069  0.75430  0.62449  1.0000
  C   C17       1.0  0.40678  0.44560  0.93955  1.0000
  C   C18       1.0  0.09322  0.05440  0.43955  1.0000
  C   C19       1.0  0.59322  0.55441  0.06045  1.0000
  C   C20       1.0  0.90678  0.94559  0.56045  1.0000
  C   C21       1.0  0.29535  0.38355  0.87833  1.0000
  C   C22       1.0  0.20465  0.11645  0.37833  1.0000
  C   C23       1.0  0.70465  0.61645  0.12167  1.0000
  C   C24       1.0  0.79535  0.88355  0.62167  1.0000
  C   C25       1.0  0.94944  0.17929  0.93357  1.0000
  C   C26       1.0  0.55056  0.32071  0.43357  1.0000
  C   C27       1.0  0.05056  0.82071  0.06643  1.0000
  C   C28       1.0  0.44943  0.67929  0.56643  1.0000
  S   S1        1.0  0.61800  0.12820  0.14503  1.0000
  S   S2        1.0  0.88200  0.37180  0.64503  1.0000
  S   S3        1.0  0.38200  0.87179  0.85498  1.0000
  S   S4        1.0  0.11800  0.62820  0.35498  1.0000
  N   N1        1.0  0.37254  0.42727  0.05777  1.0000
  N   N2        1.0  0.12746  0.07273  0.55777  1.0000
  N   N3        1.0  0.62746  0.57273  0.94223  1.0000
  N   N4        1.0  0.87254  0.92727  0.44223  1.0000
  N   N5        1.0  0.63490  0.95040  0.25862  1.0000
  N   N6        1.0  0.86508  0.54960  0.75863  1.0000
  N   N7        1.0  0.36509  0.04959  0.74138  1.0000
  N   N8        1.0  0.13491  0.45039  0.24137  1.0000
