data_image0
_chemical_formula_structural       Cd4H40C64N16O16
_chemical_formula_sum              "Cd4 H40 C64 N16 O16"
_cell_length_a       11.7597
_cell_length_b       11.7442
_cell_length_c       14.893
_cell_angle_alpha    79.1655
_cell_angle_beta     79.1799
_cell_angle_gamma    60.3975

_space_group_name_H-M_alt    "P 1"
_space_group_IT_number       1

loop_
  _space_group_symop_operation_xyz
  'x, y, z'

loop_
  _atom_site_type_symbol
  _atom_site_label
  _atom_site_symmetry_multiplicity
  _atom_site_fract_x
  _atom_site_fract_y
  _atom_site_fract_z
  _atom_site_occupancy
  Cd  Cd1       1.0  0.70677  0.36206  0.06352  1.0000
  Cd  Cd2       1.0  0.36206  0.70681  0.56345  1.0000
  Cd  Cd3       1.0  0.13170  0.74838  0.83099  1.0000
  Cd  Cd4       1.0  0.74831  0.13153  0.33112  1.0000
  H   H1        1.0  0.69211  0.58808  0.51365  1.0000
  H   H2        1.0  0.58809  0.69219  0.01362  1.0000
  H   H3        1.0  0.89637  0.49904  0.59663  1.0000
  H   H4        1.0  0.49887  0.89682  0.09655  1.0000
  H   H5        1.0  0.32061  0.67843  0.00683  1.0000
  H   H6        1.0  0.67825  0.32092  0.50690  1.0000
  H   H7        1.0  0.27782  0.78497  0.15361  1.0000
  H   H8        1.0  0.78474  0.27814  0.65364  1.0000
  H   H9        1.0  0.83291  0.55755  0.04775  1.0000
  H   H10       1.0  0.55733  0.83253  0.54767  1.0000
  H   H11       1.0  0.03988  0.55635  0.06295  1.0000
  H   H12       1.0  0.55603  0.03986  0.56299  1.0000
  H   H13       1.0  0.22281  0.13033  0.10686  1.0000
  H   H14       1.0  0.13063  0.22285  0.60690  1.0000
  H   H15       1.0  0.00716  0.15028  0.08930  1.0000
  H   H16       1.0  0.15064  0.00684  0.58923  1.0000
  H   H17       1.0  0.18898  0.51732  0.15914  1.0000
  H   H18       1.0  0.51717  0.18886  0.65914  1.0000
  H   H19       1.0  0.40305  0.51361  0.15388  1.0000
  H   H20       1.0  0.51339  0.40334  0.65378  1.0000
  H   H21       1.0  0.60792  0.16605  0.03191  1.0000
  H   H22       1.0  0.16611  0.60841  0.53189  1.0000
  H   H23       1.0  0.40202  0.15497  0.03155  1.0000
  H   H24       1.0  0.15513  0.40209  0.53166  1.0000
  H   H25       1.0  0.94235  0.05623  0.82949  1.0000
  H   H26       1.0  0.05657  0.94198  0.32953  1.0000
  H   H27       1.0  0.93676  0.26350  0.84547  1.0000
  H   H28       1.0  0.26347  0.93648  0.34545  1.0000
  H   H29       1.0  0.36357  0.04955  0.82729  1.0000
  H   H30       1.0  0.04960  0.36386  0.32728  1.0000
  H   H31       1.0  0.34898  0.84982  0.81755  1.0000
  H   H32       1.0  0.85026  0.34914  0.31756  1.0000
  H   H33       1.0  0.94700  0.43117  0.81811  1.0000
  H   H34       1.0  0.43104  0.94683  0.31810  1.0000
  H   H35       1.0  0.95483  0.63475  0.82729  1.0000
  H   H36       1.0  0.63423  0.95472  0.32726  1.0000
  H   H37       1.0  0.34917  0.42851  0.86787  1.0000
  H   H38       1.0  0.42820  0.34952  0.36790  1.0000
  H   H39       1.0  0.35943  0.21357  0.86294  1.0000
  H   H40       1.0  0.21365  0.35975  0.36295  1.0000
  C   C1        1.0  0.68291  0.46890  0.87579  1.0000
  C   C2        1.0  0.46894  0.68292  0.37574  1.0000
  C   C3        1.0  0.67861  0.51063  0.77341  1.0000
  C   C4        1.0  0.51061  0.67868  0.27337  1.0000
  C   C5        1.0  0.56384  0.57223  0.72843  1.0000
  C   C6        1.0  0.57229  0.56376  0.22843  1.0000
  C   C7        1.0  0.69010  0.56714  0.58830  1.0000
  C   C8        1.0  0.56712  0.69021  0.08827  1.0000
  C   C9        1.0  0.80150  0.51496  0.63438  1.0000
  C   C10       1.0  0.51483  0.80179  0.13432  1.0000
  C   C11       1.0  0.42804  0.61688  0.78066  1.0000
  C   C12       1.0  0.61704  0.42778  0.28069  1.0000
  C   C13       1.0  0.84813  0.04025  0.12341  1.0000
  C   C14       1.0  0.04036  0.84805  0.62335  1.0000
  C   C15       1.0  0.97726  0.92029  0.09937  1.0000
  C   C16       1.0  0.92039  0.97721  0.59930  1.0000
  C   C17       1.0  0.99819  0.85060  0.02504  1.0000
  C   C18       1.0  0.85075  0.99806  0.52501  1.0000
  C   C19       1.0  0.22212  0.74414  0.03703  1.0000
  C   C20       1.0  0.74403  0.22230  0.53706  1.0000
  C   C21       1.0  0.19811  0.80565  0.11493  1.0000
  C   C22       1.0  0.80552  0.19833  0.61493  1.0000
  C   C23       1.0  0.88449  0.87071  0.97666  1.0000
  C   C24       1.0  0.87091  0.88415  0.47664  1.0000
  C   C25       1.0  0.03346  0.05927  0.82965  1.0000
  C   C26       1.0  0.05949  0.03326  0.32971  1.0000
  C   C27       1.0  0.03193  0.17604  0.83771  1.0000
  C   C28       1.0  0.17611  0.03179  0.33769  1.0000
  C   C29       1.0  0.15079  0.17770  0.83652  1.0000
  C   C30       1.0  0.17774  0.15082  0.33651  1.0000
  C   C31       1.0  0.26707  0.05711  0.82922  1.0000
  C   C32       1.0  0.05725  0.26718  0.32920  1.0000
  C   C33       1.0  0.26008  0.94442  0.82262  1.0000
  C   C34       1.0  0.94473  0.26011  0.32263  1.0000
  C   C35       1.0  0.15263  0.30142  0.84150  1.0000
  C   C36       1.0  0.30132  0.15270  0.34149  1.0000
  C   C37       1.0  0.03842  0.42320  0.83188  1.0000
  C   C38       1.0  0.42298  0.03841  0.33188  1.0000
  C   C39       1.0  0.04204  0.53865  0.83503  1.0000
  C   C40       1.0  0.53827  0.04206  0.33504  1.0000
  C   C41       1.0  0.26255  0.42334  0.85718  1.0000
  C   C42       1.0  0.42314  0.26275  0.35718  1.0000
  C   C43       1.0  0.26674  0.30365  0.85451  1.0000
  C   C44       1.0  0.30360  0.26693  0.35451  1.0000
  C   C45       1.0  0.92096  0.46485  0.06258  1.0000
  C   C46       1.0  0.46478  0.92068  0.56255  1.0000
  C   C47       1.0  0.03713  0.46349  0.07164  1.0000
  C   C48       1.0  0.46337  0.03699  0.57170  1.0000
  C   C49       1.0  0.15036  0.34230  0.08701  1.0000
  C   C50       1.0  0.34229  0.15028  0.58710  1.0000
  C   C51       1.0  0.13942  0.22745  0.09323  1.0000
  C   C52       1.0  0.22760  0.13935  0.59327  1.0000
  C   C53       1.0  0.01922  0.23745  0.08444  1.0000
  C   C54       1.0  0.23763  0.01902  0.58443  1.0000
  C   C55       1.0  0.27629  0.33757  0.09326  1.0000
  C   C56       1.0  0.33753  0.27636  0.59336  1.0000
  C   C57       1.0  0.27886  0.43800  0.12948  1.0000
  C   C58       1.0  0.43789  0.27889  0.62952  1.0000
  C   C59       1.0  0.39831  0.43627  0.12671  1.0000
  C   C60       1.0  0.43614  0.39851  0.62669  1.0000
  C   C61       1.0  0.51277  0.24238  0.05899  1.0000
  C   C62       1.0  0.24235  0.51313  0.55900  1.0000
  C   C63       1.0  0.39732  0.23620  0.06015  1.0000
  C   C64       1.0  0.23623  0.39750  0.56023  1.0000
  N   N1        1.0  0.79650  0.48390  0.72549  1.0000
  N   N2        1.0  0.48375  0.79675  0.22541  1.0000
  N   N3        1.0  0.57233  0.59621  0.63613  1.0000
  N   N4        1.0  0.59627  0.57227  0.13614  1.0000
  N   N5        1.0  0.07683  0.89586  0.14481  1.0000
  N   N6        1.0  0.89582  0.07695  0.64477  1.0000
  N   N7        1.0  0.12134  0.76664  0.99366  1.0000
  N   N8        1.0  0.76670  0.12135  0.49365  1.0000
  N   N9        1.0  0.14566  0.94491  0.82192  1.0000
  N   N10       1.0  0.94520  0.14553  0.32198  1.0000
  N   N11       1.0  0.15220  0.53903  0.84750  1.0000
  N   N12       1.0  0.53874  0.15231  0.34751  1.0000
  N   N13       1.0  0.91134  0.35410  0.06921  1.0000
  N   N14       1.0  0.35417  0.91108  0.56916  1.0000
  N   N15       1.0  0.51252  0.34279  0.09027  1.0000
  N   N16       1.0  0.34269  0.51283  0.59023  1.0000
  O   O1        1.0  0.69868  0.35350  0.90326  1.0000
  O   O2        1.0  0.35373  0.69861  0.40318  1.0000
  O   O3        1.0  0.68264  0.54629  0.92439  1.0000
  O   O4        1.0  0.54619  0.68270  0.42435  1.0000
  O   O5        1.0  0.41803  0.59088  0.86635  1.0000
  O   O6        1.0  0.59101  0.41771  0.36636  1.0000
  O   O7        1.0  0.33084  0.68229  0.73208  1.0000
  O   O8        1.0  0.68254  0.33049  0.23212  1.0000
  O   O9        1.0  0.83028  0.13773  0.06225  1.0000
  O   O10       1.0  0.13770  0.83027  0.56223  1.0000
  O   O11       1.0  0.78029  0.03714  0.19868  1.0000
  O   O12       1.0  0.03734  0.78011  0.69864  1.0000
  O   O13       1.0  0.77318  0.91685  0.02188  1.0000
  O   O14       1.0  0.91718  0.77266  0.52184  1.0000
  O   O15       1.0  0.91450  0.83745  0.89491  1.0000
  O   O16       1.0  0.83747  0.91420  0.39494  1.0000
