data_image0
_chemical_formula_structural       Zn4H32C48N24O8
_chemical_formula_sum              "Zn4 H32 C48 N24 O8"
_cell_length_a       6.02088
_cell_length_b       9.45644
_cell_length_c       21.4693
_cell_angle_alpha    91.6505
_cell_angle_beta     90
_cell_angle_gamma    90

_space_group_name_H-M_alt    "P 1"
_space_group_IT_number       1

loop_
  _space_group_symop_operation_xyz
  'x, y, z'

loop_
  _atom_site_type_symbol
  _atom_site_label
  _atom_site_symmetry_multiplicity
  _atom_site_fract_x
  _atom_site_fract_y
  _atom_site_fract_z
  _atom_site_occupancy
  Zn  Zn1       1.0  0.87550  0.91994  0.83694  1.0000
  Zn  Zn2       1.0  0.37549  0.58005  0.66307  1.0000
  Zn  Zn3       1.0  0.12451  0.08006  0.16307  1.0000
  Zn  Zn4       1.0  0.62450  0.41995  0.33693  1.0000
  H   H1        1.0  0.37399  0.36378  0.05191  1.0000
  H   H2        1.0  0.87399  0.13622  0.44809  1.0000
  H   H3        1.0  0.62601  0.63623  0.94809  1.0000
  H   H4        1.0  0.12603  0.86377  0.55191  1.0000
  H   H5        1.0  0.72029  0.82819  0.61342  1.0000
  H   H6        1.0  0.22028  0.67180  0.88658  1.0000
  H   H7        1.0  0.27971  0.17181  0.38658  1.0000
  H   H8        1.0  0.77972  0.32820  0.11342  1.0000
  H   H9        1.0  0.88241  0.07279  0.61174  1.0000
  H   H10       1.0  0.38242  0.42720  0.88826  1.0000
  H   H11       1.0  0.11758  0.92721  0.38825  1.0000
  H   H12       1.0  0.61758  0.57279  0.11174  1.0000
  H   H13       1.0  0.11790  0.17316  0.01112  1.0000
  H   H14       1.0  0.61789  0.32684  0.48889  1.0000
  H   H15       1.0  0.88212  0.82684  0.98888  1.0000
  H   H16       1.0  0.38211  0.67315  0.51112  1.0000
  H   H17       1.0  0.88665  0.23557  0.92076  1.0000
  H   H18       1.0  0.38665  0.26443  0.57924  1.0000
  H   H19       1.0  0.11335  0.76442  0.07924  1.0000
  H   H20       1.0  0.61334  0.73558  0.42076  1.0000
  H   H21       1.0  0.70363  0.27255  0.66935  1.0000
  H   H22       1.0  0.20364  0.22744  0.83065  1.0000
  H   H23       1.0  0.29636  0.72745  0.33065  1.0000
  H   H24       1.0  0.79636  0.77256  0.16935  1.0000
  H   H25       1.0  0.74854  0.39454  0.00642  1.0000
  H   H26       1.0  0.24854  0.10546  0.49358  1.0000
  H   H27       1.0  0.25147  0.60546  0.99358  1.0000
  H   H28       1.0  0.75148  0.89455  0.50643  1.0000
  H   H29       1.0  0.36095  0.24010  0.73077  1.0000
  H   H30       1.0  0.86096  0.25989  0.76923  1.0000
  H   H31       1.0  0.63904  0.75990  0.26923  1.0000
  H   H32       1.0  0.13903  0.74011  0.23077  1.0000
  C   C1        1.0  0.42671  0.29354  0.01351  1.0000
  C   C2        1.0  0.92670  0.20646  0.48650  1.0000
  C   C3        1.0  0.57330  0.70646  0.98649  1.0000
  C   C4        1.0  0.07330  0.79354  0.51351  1.0000
  C   C5        1.0  0.64102  0.91786  0.63731  1.0000
  C   C6        1.0  0.14101  0.58213  0.86270  1.0000
  C   C7        1.0  0.35898  0.08215  0.36269  1.0000
  C   C8        1.0  0.85898  0.41786  0.13730  1.0000
  C   C9        1.0  0.72946  0.05318  0.63728  1.0000
  C   C10       1.0  0.22946  0.44682  0.86272  1.0000
  C   C11       1.0  0.27054  0.94682  0.36272  1.0000
  C   C12       1.0  0.77054  0.55318  0.13728  1.0000
  C   C13       1.0  0.44416  0.89995  0.67137  1.0000
  C   C14       1.0  0.94416  0.60004  0.82864  1.0000
  C   C15       1.0  0.55586  0.10004  0.32863  1.0000
  C   C16       1.0  0.05585  0.39996  0.17137  1.0000
  C   C17       1.0  0.36181  0.10319  0.94212  1.0000
  C   C18       1.0  0.86180  0.39681  0.55788  1.0000
  C   C19       1.0  0.63821  0.89680  0.05787  1.0000
  C   C20       1.0  0.13820  0.60320  0.44212  1.0000
  C   C21       1.0  0.28200  0.18967  0.99129  1.0000
  C   C22       1.0  0.78199  0.31033  0.50871  1.0000
  C   C23       1.0  0.71800  0.81034  0.00871  1.0000
  C   C24       1.0  0.21800  0.68966  0.49129  1.0000
  C   C25       1.0  0.72107  0.22261  0.93989  1.0000
  C   C26       1.0  0.22107  0.27739  0.56011  1.0000
  C   C27       1.0  0.27894  0.77739  0.06011  1.0000
  C   C28       1.0  0.77894  0.72262  0.43990  1.0000
  C   C29       1.0  0.62832  0.16801  0.67038  1.0000
  C   C30       1.0  0.12833  0.33198  0.82962  1.0000
  C   C31       1.0  0.37167  0.83200  0.32962  1.0000
  C   C32       1.0  0.87167  0.66801  0.17038  1.0000
  C   C33       1.0  0.64184  0.31045  0.98769  1.0000
  C   C34       1.0  0.14183  0.18956  0.51231  1.0000
  C   C35       1.0  0.35817  0.68956  0.01231  1.0000
  C   C36       1.0  0.85817  0.81044  0.48769  1.0000
  C   C37       1.0  0.34732  0.01492  0.70487  1.0000
  C   C38       1.0  0.84732  0.48506  0.79514  1.0000
  C   C39       1.0  0.65268  0.98508  0.29513  1.0000
  C   C40       1.0  0.15268  0.51492  0.20487  1.0000
  C   C41       1.0  0.57721  0.11618  0.91701  1.0000
  C   C42       1.0  0.07720  0.38382  0.58300  1.0000
  C   C43       1.0  0.42279  0.88381  0.08299  1.0000
  C   C44       1.0  0.92278  0.61619  0.41701  1.0000
  C   C45       1.0  0.43612  0.15170  0.70503  1.0000
  C   C46       1.0  0.93613  0.34830  0.79497  1.0000
  C   C47       1.0  0.56388  0.84830  0.29497  1.0000
  C   C48       1.0  0.06387  0.65171  0.20503  1.0000
  N   N1        1.0  0.31555  0.78326  0.68163  1.0000
  N   N2        1.0  0.81555  0.71673  0.81838  1.0000
  N   N3        1.0  0.68445  0.21675  0.31837  1.0000
  N   N4        1.0  0.18445  0.28326  0.18162  1.0000
  N   N5        1.0  0.60004  0.01342  0.87083  1.0000
  N   N6        1.0  0.10003  0.48658  0.62918  1.0000
  N   N7        1.0  0.39997  0.98659  0.12917  1.0000
  N   N8        1.0  0.89997  0.51342  0.37082  1.0000
  N   N9        1.0  0.14768  0.81890  0.71967  1.0000
  N   N10       1.0  0.64767  0.68110  0.78033  1.0000
  N   N11       1.0  0.85231  0.18110  0.28033  1.0000
  N   N12       1.0  0.35232  0.31891  0.21967  1.0000
  N   N13       1.0  0.26960  0.99263  0.90789  1.0000
  N   N14       1.0  0.76959  0.50737  0.59211  1.0000
  N   N15       1.0  0.73040  0.00738  0.09211  1.0000
  N   N16       1.0  0.23039  0.49262  0.40789  1.0000
  N   N17       1.0  0.41104  0.93908  0.86597  1.0000
  N   N18       1.0  0.91103  0.56092  0.63403  1.0000
  N   N19       1.0  0.58897  0.06092  0.13403  1.0000
  N   N20       1.0  0.08896  0.43907  0.36597  1.0000
  N   N21       1.0  0.16703  0.95593  0.73367  1.0000
  N   N22       1.0  0.66702  0.54406  0.76634  1.0000
  N   N23       1.0  0.83297  0.04407  0.26633  1.0000
  N   N24       1.0  0.33297  0.45594  0.23367  1.0000
  O   O1        1.0  0.06617  0.94232  0.91390  1.0000
  O   O2        1.0  0.56617  0.55768  0.58610  1.0000
  O   O3        1.0  0.93383  0.05768  0.08610  1.0000
  O   O4        1.0  0.43382  0.44232  0.41390  1.0000
  O   O5        1.0  0.02517  0.02471  0.77083  1.0000
  O   O6        1.0  0.52517  0.47528  0.72917  1.0000
  O   O7        1.0  0.97482  0.97529  0.22917  1.0000
  O   O8        1.0  0.47482  0.52472  0.27083  1.0000
