data_image0
_chemical_formula_structural       Zn2H20C24N8O8
_chemical_formula_sum              "Zn2 H20 C24 N8 O8"
_cell_length_a       7.37564
_cell_length_b       8.87449
_cell_length_c       12.6297
_cell_angle_alpha    108.315
_cell_angle_beta     104.304
_cell_angle_gamma    97.3627

_space_group_name_H-M_alt    "P 1"
_space_group_IT_number       1

loop_
  _space_group_symop_operation_xyz
  'x, y, z'

loop_
  _atom_site_type_symbol
  _atom_site_label
  _atom_site_symmetry_multiplicity
  _atom_site_fract_x
  _atom_site_fract_y
  _atom_site_fract_z
  _atom_site_occupancy
  Zn  Zn1       1.0  0.50521  0.44234  0.75107  1.0000
  Zn  Zn2       1.0  0.25453  0.69147  0.24907  1.0000
  H   H1        1.0  0.89007  0.51706  0.28558  1.0000
  H   H2        1.0  0.10387  0.23114  0.71428  1.0000
  H   H3        1.0  0.90248  0.88918  0.13267  1.0000
  H   H4        1.0  0.26999  0.75665  0.86756  1.0000
  H   H5        1.0  0.58004  0.53222  0.15164  1.0000
  H   H6        1.0  0.92774  0.37992  0.84827  1.0000
  H   H7        1.0  0.54359  0.71218  0.49580  1.0000
  H   H8        1.0  0.54752  0.21681  0.50405  1.0000
  H   H9        1.0  0.90130  0.66113  0.61436  1.0000
  H   H10       1.0  0.78652  0.04716  0.38539  1.0000
  H   H11       1.0  0.11129  0.49948  0.44079  1.0000
  H   H12       1.0  0.16978  0.05867  0.55910  1.0000
  H   H13       1.0  0.74924  0.59345  0.02607  1.0000
  H   H14       1.0  0.22409  0.56747  0.97421  1.0000
  H   H15       1.0  0.64056  0.81295  0.77263  1.0000
  H   H16       1.0  0.36769  0.04066  0.22754  1.0000
  H   H17       1.0  0.85555  0.13181  0.91602  1.0000
  H   H18       1.0  0.43918  0.21610  0.08409  1.0000
  H   H19       1.0  0.95672  0.18208  0.17871  1.0000
  H   H20       1.0  0.27686  0.00338  0.82137  1.0000
  C   C1        1.0  0.61652  0.57117  0.24646  1.0000
  C   C2        1.0  0.86939  0.32418  0.75343  1.0000
  C   C3        1.0  0.60281  0.66115  0.42538  1.0000
  C   C4        1.0  0.67699  0.23582  0.57447  1.0000
  C   C5        1.0  0.77462  0.61133  0.43044  1.0000
  C   C6        1.0  0.84370  0.18090  0.56937  1.0000
  C   C7        1.0  0.92235  0.61190  0.52849  1.0000
  C   C8        1.0  0.89334  0.08353  0.47127  1.0000
  C   C9        1.0  0.08129  0.55342  0.52323  1.0000
  C   C10       1.0  0.05753  0.03031  0.47659  1.0000
  C   C11       1.0  0.21897  0.55165  0.62934  1.0000
  C   C12       1.0  0.08929  0.92238  0.37054  1.0000
  C   C13       1.0  0.74744  0.68515  0.98641  1.0000
  C   C14       1.0  0.26153  0.69887  0.01384  1.0000
  C   C15       1.0  0.69550  0.80172  0.85711  1.0000
  C   C16       1.0  0.33828  0.94488  0.14309  1.0000
  C   C17       1.0  0.80021  0.92291  0.96384  1.0000
  C   C18       1.0  0.33600  0.95931  0.03635  1.0000
  C   C19       1.0  0.86739  0.09333  0.99111  1.0000
  C   C20       1.0  0.37565  0.10244  0.00901  1.0000
  C   C21       1.0  0.94484  0.20911  0.09901  1.0000
  C   C22       1.0  0.34488  0.11018  0.90107  1.0000
  C   C23       1.0  0.02190  0.37831  0.11237  1.0000
  C   C24       1.0  0.40890  0.26590  0.88761  1.0000
  N   N1        1.0  0.50683  0.63547  0.31094  1.0000
  N   N2        1.0  0.69534  0.32426  0.68898  1.0000
  N   N3        1.0  0.77757  0.55431  0.31532  1.0000
  N   N4        1.0  0.96165  0.23868  0.68451  1.0000
  N   N5        1.0  0.66216  0.65545  0.87282  1.0000
  N   N6        1.0  0.28974  0.78285  0.12741  1.0000
  N   N7        1.0  0.82980  0.84374  0.04334  1.0000
  N   N8        1.0  0.28646  0.80052  0.95686  1.0000
  O   O1        1.0  0.20406  0.62064  0.72981  1.0000
  O   O2        1.0  0.97388  0.89073  0.27006  1.0000
  O   O3        1.0  0.35036  0.47139  0.61036  1.0000
  O   O4        1.0  0.23970  0.86121  0.38961  1.0000
  O   O5        1.0  0.06886  0.48651  0.21941  1.0000
  O   O6        1.0  0.34887  0.26696  0.78057  1.0000
  O   O7        1.0  0.04497  0.41391  0.02770  1.0000
  O   O8        1.0  0.51687  0.38620  0.97221  1.0000
