data_image0
_chemical_formula_structural       Mn2H20C12S4N4O12
_chemical_formula_sum              "Mn2 H20 C12 S4 N4 O12"
_cell_length_a       5.96309
_cell_length_b       8.79689
_cell_length_c       11.5267
_cell_angle_alpha    111.644
_cell_angle_beta     89.9993
_cell_angle_gamma    89.9999

_space_group_name_H-M_alt    "P 1"
_space_group_IT_number       1

loop_
  _space_group_symop_operation_xyz
  'x, y, z'

loop_
  _atom_site_type_symbol
  _atom_site_label
  _atom_site_symmetry_multiplicity
  _atom_site_fract_x
  _atom_site_fract_y
  _atom_site_fract_z
  _atom_site_occupancy
  Mn  Mn1       1.0  0.00000  0.50000  0.00000  1.0000
  Mn  Mn2       1.0  0.50000  0.99999  0.00000  1.0000
  H   H1        1.0  0.33986  0.65433  0.18607  1.0000
  H   H2        1.0  0.83987  0.84568  0.81392  1.0000
  H   H3        1.0  0.66014  0.34567  0.81392  1.0000
  H   H4        1.0  0.16013  0.15432  0.18608  1.0000
  H   H5        1.0  0.35897  0.67353  0.05334  1.0000
  H   H6        1.0  0.85897  0.82647  0.94665  1.0000
  H   H7        1.0  0.64103  0.32647  0.94666  1.0000
  H   H8        1.0  0.14103  0.17354  0.05335  1.0000
  H   H9        1.0  0.70831  0.57290  0.43390  1.0000
  H   H10       1.0  0.20831  0.92710  0.56611  1.0000
  H   H11       1.0  0.29169  0.42709  0.56610  1.0000
  H   H12       1.0  0.79169  0.07290  0.43389  1.0000
  H   H13       1.0  0.47863  0.36982  0.29602  1.0000
  H   H14       1.0  0.97862  0.13019  0.70399  1.0000
  H   H15       1.0  0.52138  0.63018  0.70397  1.0000
  H   H16       1.0  0.02138  0.86982  0.29602  1.0000
  H   H17       1.0  0.67988  0.21582  0.28287  1.0000
  H   H18       1.0  0.17988  0.28419  0.71714  1.0000
  H   H19       1.0  0.32012  0.78418  0.71713  1.0000
  H   H20       1.0  0.82012  0.71581  0.28287  1.0000
  C   C1        1.0  0.96007  0.42766  0.44334  1.0000
  C   C2        1.0  0.46006  0.07234  0.55666  1.0000
  C   C3        1.0  0.03993  0.57234  0.55666  1.0000
  C   C4        1.0  0.53993  0.92766  0.44334  1.0000
  C   C5        1.0  0.65877  0.34161  0.28655  1.0000
  C   C6        1.0  0.15876  0.15840  0.71346  1.0000
  C   C7        1.0  0.34123  0.65839  0.71345  1.0000
  C   C8        1.0  0.84123  0.84160  0.28655  1.0000
  C   C9        1.0  0.73471  0.34838  0.16134  1.0000
  C   C10       1.0  0.23472  0.15162  0.83866  1.0000
  C   C11       1.0  0.26529  0.65162  0.83866  1.0000
  C   C12       1.0  0.76528  0.84838  0.16134  1.0000
  S   S1        1.0  0.10431  0.25136  0.39271  1.0000
  S   S2        1.0  0.60430  0.24864  0.60729  1.0000
  S   S3        1.0  0.89569  0.74864  0.60729  1.0000
  S   S4        1.0  0.39569  0.75137  0.39271  1.0000
  N   N1        1.0  0.77195  0.45559  0.39359  1.0000
  N   N2        1.0  0.27194  0.04441  0.60642  1.0000
  N   N3        1.0  0.22805  0.54440  0.60641  1.0000
  N   N4        1.0  0.72805  0.95559  0.39358  1.0000
  O   O1        1.0  0.31411  0.59813  0.09584  1.0000
  O   O2        1.0  0.81411  0.90187  0.90416  1.0000
  O   O3        1.0  0.68589  0.40187  0.90416  1.0000
  O   O4        1.0  0.18589  0.09813  0.09584  1.0000
  O   O5        1.0  0.87784  0.45519  0.16235  1.0000
  O   O6        1.0  0.37786  0.04481  0.83766  1.0000
  O   O7        1.0  0.12216  0.54482  0.83765  1.0000
  O   O8        1.0  0.62215  0.95518  0.16235  1.0000
  O   O9        1.0  0.64305  0.24647  0.06436  1.0000
  O   O10       1.0  0.14306  0.25353  0.93565  1.0000
  O   O11       1.0  0.35695  0.75353  0.93564  1.0000
  O   O12       1.0  0.85695  0.74647  0.06435  1.0000
