data_image0
_chemical_formula_structural       Cd2H32C40S4I4N12
_chemical_formula_sum              "Cd2 H32 C40 S4 I4 N12"
_cell_length_a       6.76874
_cell_length_b       8.85753
_cell_length_c       22.6897
_cell_angle_alpha    79.2413
_cell_angle_beta     81.4276
_cell_angle_gamma    67.5343

_space_group_name_H-M_alt    "P 1"
_space_group_IT_number       1

loop_
  _space_group_symop_operation_xyz
  'x, y, z'

loop_
  _atom_site_type_symbol
  _atom_site_label
  _atom_site_symmetry_multiplicity
  _atom_site_fract_x
  _atom_site_fract_y
  _atom_site_fract_z
  _atom_site_occupancy
  Cd  Cd1       1.0  0.87035  0.25031  0.74990  1.0000
  Cd  Cd2       1.0  0.12966  0.74969  0.25011  1.0000
  H   H1        1.0  0.05730  0.72166  0.05607  1.0000
  H   H2        1.0  0.83497  0.77846  0.44386  1.0000
  H   H3        1.0  0.94270  0.27834  0.94393  1.0000
  H   H4        1.0  0.16503  0.22154  0.55614  1.0000
  H   H5        1.0  0.07558  0.77105  0.94204  1.0000
  H   H6        1.0  0.78872  0.72901  0.55788  1.0000
  H   H7        1.0  0.92442  0.22895  0.05796  1.0000
  H   H8        1.0  0.21129  0.27099  0.44212  1.0000
  H   H9        1.0  0.98982  0.71059  0.85108  1.0000
  H   H10       1.0  0.55101  0.78974  0.64899  1.0000
  H   H11       1.0  0.01018  0.28941  0.14891  1.0000
  H   H12       1.0  0.44899  0.21027  0.35101  1.0000
  H   H13       1.0  0.61829  0.33488  0.87304  1.0000
  H   H14       1.0  0.82633  0.16506  0.62683  1.0000
  H   H15       1.0  0.38171  0.66512  0.12696  1.0000
  H   H16       1.0  0.17367  0.83494  0.37317  1.0000
  H   H17       1.0  0.42450  0.51559  0.70032  1.0000
  H   H18       1.0  0.64139  0.98445  0.79964  1.0000
  H   H19       1.0  0.57551  0.48441  0.29968  1.0000
  H   H20       1.0  0.35861  0.01554  0.20036  1.0000
  H   H21       1.0  0.67225  0.07892  0.98149  1.0000
  H   H22       1.0  0.73280  0.42102  0.51841  1.0000
  H   H23       1.0  0.32774  0.92109  0.01851  1.0000
  H   H24       1.0  0.26721  0.57897  0.48159  1.0000
  H   H25       1.0  0.68751  0.90876  0.03994  1.0000
  H   H26       1.0  0.63602  0.59126  0.46001  1.0000
  H   H27       1.0  0.31248  0.09125  0.96006  1.0000
  H   H28       1.0  0.36399  0.40874  0.53999  1.0000
  H   H29       1.0  0.06879  0.70548  0.73924  1.0000
  H   H30       1.0  0.51401  0.79465  0.76082  1.0000
  H   H31       1.0  0.93122  0.29452  0.26075  1.0000
  H   H32       1.0  0.48598  0.20535  0.23918  1.0000
  C   C1        1.0  0.29914  0.52279  0.87082  1.0000
  C   C2        1.0  0.69259  0.97732  0.62915  1.0000
  C   C3        1.0  0.70086  0.47721  0.12918  1.0000
  C   C4        1.0  0.30741  0.02267  0.37085  1.0000
  C   C5        1.0  0.26902  0.51216  0.93698  1.0000
  C   C6        1.0  0.71791  0.98795  0.56297  1.0000
  C   C7        1.0  0.73097  0.48785  0.06302  1.0000
  C   C8        1.0  0.28210  0.01205  0.43703  1.0000
  C   C9        1.0  0.33914  0.34862  0.02783  1.0000
  C   C10       1.0  0.71537  0.15152  0.47211  1.0000
  C   C11       1.0  0.66085  0.65139  0.97217  1.0000
  C   C12       1.0  0.28463  0.84848  0.52789  1.0000
  C   C13       1.0  0.14185  0.62088  0.02943  1.0000
  C   C14       1.0  0.79200  0.87927  0.47050  1.0000
  C   C15       1.0  0.85814  0.37912  0.97057  1.0000
  C   C16       1.0  0.20800  0.12073  0.52950  1.0000
  C   C17       1.0  0.15191  0.64863  0.96665  1.0000
  C   C18       1.0  0.76702  0.85149  0.53328  1.0000
  C   C19       1.0  0.84808  0.35138  0.03335  1.0000
  C   C20       1.0  0.23298  0.14851  0.46672  1.0000
  C   C21       1.0  0.14391  0.62990  0.83251  1.0000
  C   C22       1.0  0.60615  0.87033  0.66752  1.0000
  C   C23       1.0  0.85609  0.37010  0.16749  1.0000
  C   C24       1.0  0.39385  0.12967  0.33248  1.0000
  C   C25       1.0  0.49280  0.41963  0.84487  1.0000
  C   C26       1.0  0.75742  0.08040  0.65505  1.0000
  C   C27       1.0  0.50720  0.58037  0.15513  1.0000
  C   C28       1.0  0.24259  0.91960  0.34495  1.0000
  C   C29       1.0  0.38426  0.52129  0.74844  1.0000
  C   C30       1.0  0.65463  0.97880  0.75153  1.0000
  C   C31       1.0  0.61575  0.47871  0.25156  1.0000
  C   C32       1.0  0.34536  0.02120  0.24848  1.0000
  C   C33       1.0  0.57846  0.02061  0.01491  1.0000
  C   C34       1.0  0.61391  0.47937  0.48504  1.0000
  C   C35       1.0  0.42153  0.97939  0.98509  1.0000
  C   C36       1.0  0.38609  0.52063  0.51496  1.0000
  C   C37       1.0  0.18702  0.62739  0.77053  1.0000
  C   C38       1.0  0.58519  0.87282  0.72950  1.0000
  C   C39       1.0  0.81299  0.37261  0.22947  1.0000
  C   C40       1.0  0.41481  0.12718  0.27050  1.0000
  S   S1        1.0  0.44770  0.15565  0.07155  1.0000
  S   S2        1.0  0.67437  0.34446  0.42839  1.0000
  S   S3        1.0  0.55229  0.84436  0.92845  1.0000
  S   S4        1.0  0.32564  0.65554  0.57161  1.0000
  I   I1        1.0  0.07535  0.07351  0.84904  1.0000
  I   I2        1.0  0.99760  0.42729  0.65083  1.0000
  I   I3        1.0  0.92464  0.92649  0.15097  1.0000
  I   I4        1.0  0.00241  0.57270  0.34917  1.0000
  N   N1        1.0  0.36475  0.36131  0.96781  1.0000
  N   N2        1.0  0.69346  0.13882  0.53213  1.0000
  N   N3        1.0  0.63525  0.63870  0.03219  1.0000
  N   N4        1.0  0.30654  0.86118  0.46787  1.0000
  N   N5        1.0  0.23384  0.47190  0.06094  1.0000
  N   N6        1.0  0.76650  0.02824  0.43899  1.0000
  N   N7        1.0  0.76615  0.52811  0.93906  1.0000
  N   N8        1.0  0.23350  0.97176  0.56101  1.0000
  N   N9        1.0  0.53514  0.42038  0.78527  1.0000
  N   N10       1.0  0.74121  0.07971  0.71464  1.0000
  N   N11       1.0  0.46487  0.57962  0.21473  1.0000
  N   N12       1.0  0.25879  0.92028  0.28536  1.0000
