data_image0
_chemical_formula_structural       Li4H16C4N20O6
_chemical_formula_sum              "Li4 H16 C4 N20 O6"
_cell_length_a       6.82071
_cell_length_b       7.66103
_cell_length_c       9.91968
_cell_angle_alpha    82.7836
_cell_angle_beta     75.0004
_cell_angle_gamma    66.7964

_space_group_name_H-M_alt    "P 1"
_space_group_IT_number       1

loop_
  _space_group_symop_operation_xyz
  'x, y, z'

loop_
  _atom_site_type_symbol
  _atom_site_label
  _atom_site_symmetry_multiplicity
  _atom_site_fract_x
  _atom_site_fract_y
  _atom_site_fract_z
  _atom_site_occupancy
  Li  Li1       1.0  0.56666  0.36524  0.16566  1.0000
  Li  Li2       1.0  0.43334  0.63476  0.83434  1.0000
  Li  Li3       1.0  0.48864  0.14189  0.56861  1.0000
  Li  Li4       1.0  0.51136  0.85811  0.43139  1.0000
  H   H1        1.0  0.99469  0.35050  0.76904  1.0000
  H   H2        1.0  0.00531  0.64950  0.23096  1.0000
  H   H3        1.0  0.95922  0.67844  0.73806  1.0000
  H   H4        1.0  0.04078  0.32156  0.26194  1.0000
  H   H5        1.0  0.69401  0.16434  0.72886  1.0000
  H   H6        1.0  0.30599  0.83566  0.27114  1.0000
  H   H7        1.0  0.14692  0.10217  0.54995  1.0000
  H   H8        1.0  0.85307  0.89783  0.45005  1.0000
  H   H9        1.0  0.94152  0.14253  0.08761  1.0000
  H   H10       1.0  0.05848  0.85747  0.91239  1.0000
  H   H11       1.0  0.64978  0.97868  0.79803  1.0000
  H   H12       1.0  0.35022  0.02132  0.20198  1.0000
  H   H13       1.0  0.80693  0.01160  0.09403  1.0000
  H   H14       1.0  0.19307  0.98840  0.90597  1.0000
  H   H15       1.0  0.22892  0.96514  0.67644  1.0000
  H   H16       1.0  0.77108  0.03486  0.32356  1.0000
  C   C1        1.0  0.17514  0.55816  0.56110  1.0000
  C   C2        1.0  0.82486  0.44184  0.43890  1.0000
  C   C3        1.0  0.19915  0.34914  0.89121  1.0000
  C   C4        1.0  0.80085  0.65086  0.10879  1.0000
  N   N1        1.0  0.11512  0.39628  0.77516  1.0000
  N   N2        1.0  0.88488  0.60372  0.22484  1.0000
  N   N3        1.0  0.33767  0.40862  0.49174  1.0000
  N   N4        1.0  0.66233  0.59138  0.50826  1.0000
  N   N5        1.0  0.35598  0.46363  0.35628  1.0000
  N   N6        1.0  0.64403  0.53636  0.64372  1.0000
  N   N7        1.0  0.10546  0.56820  0.70509  1.0000
  N   N8        1.0  0.89454  0.43180  0.29491  1.0000
  N   N9        1.0  0.29487  0.19936  0.07525  1.0000
  N   N10       1.0  0.70513  0.80064  0.92475  1.0000
  N   N11       1.0  0.09308  0.70155  0.47376  1.0000
  N   N12       1.0  0.90692  0.29845  0.52624  1.0000
  N   N13       1.0  0.37553  0.33219  0.04491  1.0000
  N   N14       1.0  0.62447  0.66782  0.95509  1.0000
  N   N15       1.0  0.17937  0.20528  0.98084  1.0000
  N   N16       1.0  0.82063  0.79473  0.01916  1.0000
  N   N17       1.0  0.21199  0.63770  0.34525  1.0000
  N   N18       1.0  0.78801  0.36230  0.65475  1.0000
  N   N19       1.0  0.31941  0.43040  0.92853  1.0000
  N   N20       1.0  0.68059  0.56960  0.07147  1.0000
  O   O1        1.0  0.28068  0.01263  0.58218  1.0000
  O   O2        1.0  0.71932  0.98737  0.41782  1.0000
  O   O3        1.0  0.81320  0.11420  0.14342  1.0000
  O   O4        1.0  0.18681  0.88580  0.85658  1.0000
  O   O5        1.0  0.62528  0.07580  0.72093  1.0000
  O   O6        1.0  0.37472  0.92420  0.27907  1.0000
