data_image0
_chemical_formula_structural       Dy2H26C42N12O40
_chemical_formula_sum              "Dy2 H26 C42 N12 O40"
_cell_length_a       9.2242
_cell_length_b       11.5257
_cell_length_c       13.7207
_cell_angle_alpha    107.542
_cell_angle_beta     90.4919
_cell_angle_gamma    93.5904

_space_group_name_H-M_alt    "P 1"
_space_group_IT_number       1

loop_
  _space_group_symop_operation_xyz
  'x, y, z'

loop_
  _atom_site_type_symbol
  _atom_site_label
  _atom_site_symmetry_multiplicity
  _atom_site_fract_x
  _atom_site_fract_y
  _atom_site_fract_z
  _atom_site_occupancy
  Dy  Dy1       1.0  0.26785  0.98826  0.00661  1.0000
  Dy  Dy2       1.0  0.73215  0.01174  0.99339  1.0000
  H   H1        1.0  0.76794  0.23605  0.22153  1.0000
  H   H2        1.0  0.23206  0.76395  0.77847  1.0000
  H   H3        1.0  0.25890  0.30803  0.05337  1.0000
  H   H4        1.0  0.74110  0.69197  0.94663  1.0000
  H   H5        1.0  0.22682  0.34275  0.26122  1.0000
  H   H6        1.0  0.77318  0.65725  0.73878  1.0000
  H   H7        1.0  0.91860  0.58532  0.43355  1.0000
  H   H8        1.0  0.08140  0.41468  0.56645  1.0000
  H   H9        1.0  0.70759  0.44186  0.11773  1.0000
  H   H10       1.0  0.29241  0.55814  0.88227  1.0000
  H   H11       1.0  0.37128  0.69662  0.17150  1.0000
  H   H12       1.0  0.62872  0.30338  0.82850  1.0000
  H   H13       1.0  0.71184  0.87509  0.69143  1.0000
  H   H14       1.0  0.28816  0.12492  0.30858  1.0000
  H   H15       1.0  0.26576  0.95127  0.65375  1.0000
  H   H16       1.0  0.73424  0.04873  0.34625  1.0000
  H   H17       1.0  0.51970  0.79899  0.38859  1.0000
  H   H18       1.0  0.48030  0.20101  0.61141  1.0000
  H   H19       1.0  0.22594  0.14077  0.87114  1.0000
  H   H20       1.0  0.77406  0.85923  0.12886  1.0000
  H   H21       1.0  0.06574  0.12463  0.90826  1.0000
  H   H22       1.0  0.93426  0.87537  0.09175  1.0000
  H   H23       1.0  0.16550  0.90967  0.18329  1.0000
  H   H24       1.0  0.83450  0.09033  0.81671  1.0000
  H   H25       1.0  0.13808  0.78813  0.09587  1.0000
  H   H26       1.0  0.86192  0.21187  0.90413  1.0000
  C   C1        1.0  0.03293  0.16451  0.14830  1.0000
  C   C2        1.0  0.96707  0.83549  0.85170  1.0000
  C   C3        1.0  0.85701  0.30195  0.25769  1.0000
  C   C4        1.0  0.14299  0.69805  0.74231  1.0000
  C   C5        1.0  0.53571  0.23328  0.04872  1.0000
  C   C6        1.0  0.46429  0.76672  0.95128  1.0000
  C   C7        1.0  0.00074  0.27766  0.23184  1.0000
  C   C8        1.0  0.99926  0.72234  0.76816  1.0000
  C   C9        1.0  0.48800  0.36139  0.08412  1.0000
  C   C10       1.0  0.51200  0.63861  0.91588  1.0000
  C   C11       1.0  0.34085  0.38364  0.08171  1.0000
  C   C12       1.0  0.65915  0.61636  0.91829  1.0000
  C   C13       1.0  0.83017  0.41083  0.33153  1.0000
  C   C14       1.0  0.16983  0.58917  0.66847  1.0000
  C   C15       1.0  0.08167  0.47179  0.34939  1.0000
  C   C16       1.0  0.91833  0.52821  0.65061  1.0000
  C   C17       1.0  0.11457  0.36189  0.27943  1.0000
  C   C18       1.0  0.88543  0.63811  0.72057  1.0000
  C   C19       1.0  0.94039  0.49870  0.37813  1.0000
  C   C20       1.0  0.05961  0.50129  0.62187  1.0000
  C   C21       1.0  0.59283  0.45878  0.11754  1.0000
  C   C22       1.0  0.40717  0.54122  0.88246  1.0000
  C   C23       1.0  0.54866  0.57737  0.14852  1.0000
  C   C24       1.0  0.45134  0.42263  0.85148  1.0000
  C   C25       1.0  0.30213  0.50412  0.11258  1.0000
  C   C26       1.0  0.69787  0.49588  0.88742  1.0000
  C   C27       1.0  0.40345  0.60330  0.14729  1.0000
  C   C28       1.0  0.59655  0.39670  0.85272  1.0000
  C   C29       1.0  0.48190  0.96480  0.80016  1.0000
  C   C30       1.0  0.51810  0.03521  0.19984  1.0000
  C   C31       1.0  0.48818  0.91896  0.68520  1.0000
  C   C32       1.0  0.51182  0.08104  0.31480  1.0000
  C   C33       1.0  0.61868  0.87552  0.64227  1.0000
  C   C34       1.0  0.38132  0.12448  0.35773  1.0000
  C   C35       1.0  0.36838  0.91835  0.62180  1.0000
  C   C36       1.0  0.63162  0.08164  0.37820  1.0000
  C   C37       1.0  0.38317  0.87657  0.51596  1.0000
  C   C38       1.0  0.61683  0.12343  0.48404  1.0000
  C   C39       1.0  0.62699  0.83158  0.53643  1.0000
  C   C40       1.0  0.37301  0.16842  0.46357  1.0000
  C   C41       1.0  0.51089  0.83162  0.47108  1.0000
  C   C42       1.0  0.48911  0.16837  0.52891  1.0000
  N   N1        1.0  0.67886  0.43419  0.36176  1.0000
  N   N2        1.0  0.32114  0.56581  0.63824  1.0000
  N   N3        1.0  0.20051  0.56440  0.39388  1.0000
  N   N4        1.0  0.79949  0.43560  0.60612  1.0000
  N   N5        1.0  0.14764  0.52809  0.10672  1.0000
  N   N6        1.0  0.85236  0.47191  0.89328  1.0000
  N   N7        1.0  0.66129  0.67876  0.17652  1.0000
  N   N8        1.0  0.33871  0.32124  0.82348  1.0000
  N   N9        1.0  0.26074  0.88330  0.44815  1.0000
  N   N10       1.0  0.73926  0.11670  0.55185  1.0000
  N   N11       1.0  0.76432  0.78483  0.49178  1.0000
  N   N12       1.0  0.23568  0.21517  0.50822  1.0000
  O   O1        1.0  0.93010  0.11069  0.08636  1.0000
  O   O2        1.0  0.06990  0.88930  0.91364  1.0000
  O   O3        1.0  0.16220  0.13155  0.14285  1.0000
  O   O4        1.0  0.83779  0.86845  0.85715  1.0000
  O   O5        1.0  0.31870  0.55333  0.35096  1.0000
  O   O6        1.0  0.68130  0.44667  0.64904  1.0000
  O   O7        1.0  0.58124  0.36010  0.31269  1.0000
  O   O8        1.0  0.41876  0.63990  0.68731  1.0000
  O   O9        1.0  0.17433  0.64859  0.47129  1.0000
  O   O10       1.0  0.82567  0.35141  0.52871  1.0000
  O   O11       1.0  0.16987  0.13267  0.92944  1.0000
  O   O12       1.0  0.83013  0.86733  0.07056  1.0000
  O   O13       1.0  0.67042  0.21953  0.03641  1.0000
  O   O14       1.0  0.32958  0.78047  0.96359  1.0000
  O   O15       1.0  0.43930  0.14608  0.03339  1.0000
  O   O16       1.0  0.56070  0.85392  0.96661  1.0000
  O   O17       1.0  0.12217  0.87549  0.11446  1.0000
  O   O18       1.0  0.87783  0.12451  0.88554  1.0000
  O   O19       1.0  0.65859  0.52585  0.43414  1.0000
  O   O20       1.0  0.34141  0.47415  0.56586  1.0000
  O   O21       1.0  0.36099  0.95144  0.84023  1.0000
  O   O22       1.0  0.63901  0.04856  0.15977  1.0000
  O   O23       1.0  0.05777  0.43948  0.08094  1.0000
  O   O24       1.0  0.94223  0.56052  0.91906  1.0000
  O   O25       1.0  0.78940  0.65386  0.17528  1.0000
  O   O26       1.0  0.21060  0.34614  0.82472  1.0000
  O   O27       1.0  0.62043  0.78447  0.19578  1.0000
  O   O28       1.0  0.37957  0.21553  0.80422  1.0000
  O   O29       1.0  0.11645  0.63614  0.12885  1.0000
  O   O30       1.0  0.88355  0.36386  0.87115  1.0000
  O   O31       1.0  0.15257  0.93332  0.48867  1.0000
  O   O32       1.0  0.84743  0.06669  0.51133  1.0000
  O   O33       1.0  0.85952  0.77087  0.55085  1.0000
  O   O34       1.0  0.14048  0.22913  0.44915  1.0000
  O   O35       1.0  0.27545  0.84081  0.35422  1.0000
  O   O36       1.0  0.72455  0.15919  0.64578  1.0000
  O   O37       1.0  0.77614  0.76112  0.39814  1.0000
  O   O38       1.0  0.22385  0.23888  0.60186  1.0000
  O   O39       1.0  0.60037  0.01186  0.84738  1.0000
  O   O40       1.0  0.39963  0.98814  0.15262  1.0000
