data_image0
_chemical_formula_structural       Y2H26C42N12O40
_chemical_formula_sum              "Y2 H26 C42 N12 O40"
_cell_length_a       9.21888
_cell_length_b       11.5545
_cell_length_c       13.7146
_cell_angle_alpha    107.689
_cell_angle_beta     90.5522
_cell_angle_gamma    93.4242

_space_group_name_H-M_alt    "P 1"
_space_group_IT_number       1

loop_
  _space_group_symop_operation_xyz
  'x, y, z'

loop_
  _atom_site_type_symbol
  _atom_site_label
  _atom_site_symmetry_multiplicity
  _atom_site_fract_x
  _atom_site_fract_y
  _atom_site_fract_z
  _atom_site_occupancy
  Y   Y1        1.0  0.26776  0.98853  0.00624  1.0000
  Y   Y2        1.0  0.73224  0.01147  0.99376  1.0000
  H   H1        1.0  0.76796  0.23640  0.22211  1.0000
  H   H2        1.0  0.23204  0.76360  0.77789  1.0000
  H   H3        1.0  0.25806  0.30857  0.05395  1.0000
  H   H4        1.0  0.74194  0.69143  0.94605  1.0000
  H   H5        1.0  0.22685  0.34316  0.26077  1.0000
  H   H6        1.0  0.77315  0.65684  0.73923  1.0000
  H   H7        1.0  0.91846  0.58543  0.43410  1.0000
  H   H8        1.0  0.08154  0.41458  0.56590  1.0000
  H   H9        1.0  0.70745  0.44046  0.11724  1.0000
  H   H10       1.0  0.29255  0.55954  0.88276  1.0000
  H   H11       1.0  0.37191  0.69620  0.17027  1.0000
  H   H12       1.0  0.62809  0.30380  0.82973  1.0000
  H   H13       1.0  0.71232  0.87422  0.69077  1.0000
  H   H14       1.0  0.28768  0.12578  0.30923  1.0000
  H   H15       1.0  0.26601  0.95137  0.65361  1.0000
  H   H16       1.0  0.73399  0.04863  0.34639  1.0000
  H   H17       1.0  0.51954  0.79885  0.38780  1.0000
  H   H18       1.0  0.48045  0.20115  0.61220  1.0000
  H   H19       1.0  0.06469  0.12412  0.90749  1.0000
  H   H20       1.0  0.93532  0.87588  0.09251  1.0000
  H   H21       1.0  0.13897  0.78901  0.09653  1.0000
  H   H22       1.0  0.86103  0.21099  0.90347  1.0000
  H   H23       1.0  0.22490  0.14246  0.87131  1.0000
  H   H24       1.0  0.77510  0.85754  0.12869  1.0000
  H   H25       1.0  0.16755  0.91071  0.18365  1.0000
  H   H26       1.0  0.83245  0.08929  0.81635  1.0000
  C   C1        1.0  0.03283  0.16457  0.14838  1.0000
  C   C2        1.0  0.96716  0.83543  0.85162  1.0000
  C   C3        1.0  0.85698  0.30228  0.25806  1.0000
  C   C4        1.0  0.14302  0.69772  0.74194  1.0000
  C   C5        1.0  0.53494  0.23282  0.04891  1.0000
  C   C6        1.0  0.46505  0.76717  0.95109  1.0000
  C   C7        1.0  0.00069  0.27791  0.23187  1.0000
  C   C8        1.0  0.99931  0.72209  0.76813  1.0000
  C   C9        1.0  0.48746  0.36092  0.08417  1.0000
  C   C10       1.0  0.51254  0.63908  0.91583  1.0000
  C   C11       1.0  0.34035  0.38373  0.08187  1.0000
  C   C12       1.0  0.65965  0.61627  0.91813  1.0000
  C   C13       1.0  0.83006  0.41115  0.33203  1.0000
  C   C14       1.0  0.16994  0.58885  0.66797  1.0000
  C   C15       1.0  0.08149  0.47196  0.34937  1.0000
  C   C16       1.0  0.91851  0.52804  0.65063  1.0000
  C   C17       1.0  0.11451  0.36214  0.27921  1.0000
  C   C18       1.0  0.88549  0.63786  0.72079  1.0000
  C   C19       1.0  0.94020  0.49891  0.37849  1.0000
  C   C20       1.0  0.05980  0.50109  0.62151  1.0000
  C   C21       1.0  0.59267  0.45776  0.11712  1.0000
  C   C22       1.0  0.40733  0.54224  0.88288  1.0000
  C   C23       1.0  0.54883  0.57637  0.14763  1.0000
  C   C24       1.0  0.45117  0.42362  0.85237  1.0000
  C   C25       1.0  0.30205  0.50423  0.11229  1.0000
  C   C26       1.0  0.69795  0.49577  0.88771  1.0000
  C   C27       1.0  0.40371  0.60288  0.14646  1.0000
  C   C28       1.0  0.59630  0.39712  0.85354  1.0000
  C   C29       1.0  0.48218  0.96435  0.79998  1.0000
  C   C30       1.0  0.51782  0.03565  0.20002  1.0000
  C   C31       1.0  0.48853  0.91857  0.68487  1.0000
  C   C32       1.0  0.51147  0.08143  0.31513  1.0000
  C   C33       1.0  0.61903  0.87500  0.64174  1.0000
  C   C34       1.0  0.38097  0.12500  0.35826  1.0000
  C   C35       1.0  0.36861  0.91826  0.62152  1.0000
  C   C36       1.0  0.63139  0.08174  0.37848  1.0000
  C   C37       1.0  0.38320  0.87653  0.51553  1.0000
  C   C38       1.0  0.61680  0.12347  0.48447  1.0000
  C   C39       1.0  0.62719  0.83127  0.53574  1.0000
  C   C40       1.0  0.37281  0.16873  0.46426  1.0000
  C   C41       1.0  0.51091  0.83146  0.47041  1.0000
  C   C42       1.0  0.48909  0.16855  0.52959  1.0000
  N   N1        1.0  0.67871  0.43443  0.36275  1.0000
  N   N2        1.0  0.32129  0.56557  0.63725  1.0000
  N   N3        1.0  0.20019  0.56462  0.39353  1.0000
  N   N4        1.0  0.79981  0.43538  0.60647  1.0000
  N   N5        1.0  0.14758  0.52890  0.10661  1.0000
  N   N6        1.0  0.85242  0.47110  0.89338  1.0000
  N   N7        1.0  0.66175  0.67718  0.17502  1.0000
  N   N8        1.0  0.33825  0.32282  0.82498  1.0000
  N   N9        1.0  0.26063  0.88379  0.44787  1.0000
  N   N10       1.0  0.73937  0.11621  0.55213  1.0000
  N   N11       1.0  0.76460  0.78442  0.49091  1.0000
  N   N12       1.0  0.23540  0.21558  0.50909  1.0000
  O   O1        1.0  0.92990  0.11021  0.08673  1.0000
  O   O2        1.0  0.07010  0.88979  0.91327  1.0000
  O   O3        1.0  0.16240  0.13198  0.14284  1.0000
  O   O4        1.0  0.83759  0.86801  0.85715  1.0000
  O   O5        1.0  0.31815  0.55349  0.35016  1.0000
  O   O6        1.0  0.68186  0.44651  0.64984  1.0000
  O   O7        1.0  0.58106  0.36033  0.31388  1.0000
  O   O8        1.0  0.41895  0.63967  0.68612  1.0000
  O   O9        1.0  0.17412  0.64889  0.47108  1.0000
  O   O10       1.0  0.82588  0.35111  0.52892  1.0000
  O   O11       1.0  0.16879  0.13260  0.92900  1.0000
  O   O12       1.0  0.83121  0.86740  0.07100  1.0000
  O   O13       1.0  0.66971  0.21880  0.03671  1.0000
  O   O14       1.0  0.33029  0.78120  0.96329  1.0000
  O   O15       1.0  0.43840  0.14613  0.03354  1.0000
  O   O16       1.0  0.56160  0.85387  0.96646  1.0000
  O   O17       1.0  0.12320  0.87625  0.11505  1.0000
  O   O18       1.0  0.87680  0.12374  0.88495  1.0000
  O   O19       1.0  0.65855  0.52603  0.43535  1.0000
  O   O20       1.0  0.34145  0.47397  0.56465  1.0000
  O   O21       1.0  0.36131  0.95070  0.83987  1.0000
  O   O22       1.0  0.63869  0.04930  0.16013  1.0000
  O   O23       1.0  0.05708  0.44098  0.08196  1.0000
  O   O24       1.0  0.94292  0.55902  0.91804  1.0000
  O   O25       1.0  0.78987  0.65185  0.17358  1.0000
  O   O26       1.0  0.21013  0.34814  0.82642  1.0000
  O   O27       1.0  0.62109  0.78281  0.19393  1.0000
  O   O28       1.0  0.37891  0.21719  0.80606  1.0000
  O   O29       1.0  0.11711  0.63693  0.12785  1.0000
  O   O30       1.0  0.88289  0.36307  0.87215  1.0000
  O   O31       1.0  0.15261  0.93421  0.48867  1.0000
  O   O32       1.0  0.84739  0.06579  0.51133  1.0000
  O   O33       1.0  0.86031  0.77101  0.55000  1.0000
  O   O34       1.0  0.13968  0.22899  0.45000  1.0000
  O   O35       1.0  0.27507  0.84136  0.35376  1.0000
  O   O36       1.0  0.72493  0.15864  0.64624  1.0000
  O   O37       1.0  0.77597  0.76010  0.39705  1.0000
  O   O38       1.0  0.22403  0.23990  0.60295  1.0000
  O   O39       1.0  0.60047  0.01169  0.84736  1.0000
  O   O40       1.0  0.39953  0.98831  0.15265  1.0000
