data_image0
_chemical_formula_structural       Sr2H16C8N24O10
_chemical_formula_sum              "Sr2 H16 C8 N24 O10"
_cell_length_a       6.95084
_cell_length_b       8.40473
_cell_length_c       10.9029
_cell_angle_alpha    95.4162
_cell_angle_beta     108.579
_cell_angle_gamma    89.9989

_space_group_name_H-M_alt    "P 1"
_space_group_IT_number       1

loop_
  _space_group_symop_operation_xyz
  'x, y, z'

loop_
  _atom_site_type_symbol
  _atom_site_label
  _atom_site_symmetry_multiplicity
  _atom_site_fract_x
  _atom_site_fract_y
  _atom_site_fract_z
  _atom_site_occupancy
  Sr  Sr1       1.0  0.11278  0.74999  0.99999  1.0000
  Sr  Sr2       1.0  0.88723  0.25001  0.00001  1.0000
  H   H1        1.0  0.20448  0.89321  0.53227  1.0000
  H   H2        1.0  0.67183  0.60686  0.46761  1.0000
  H   H3        1.0  0.79552  0.10680  0.46773  1.0000
  H   H4        1.0  0.32817  0.39314  0.53238  1.0000
  H   H5        1.0  0.25339  0.68530  0.54631  1.0000
  H   H6        1.0  0.70664  0.81477  0.45353  1.0000
  H   H7        1.0  0.74662  0.31471  0.45369  1.0000
  H   H8        1.0  0.29336  0.18523  0.54647  1.0000
  H   H9        1.0  0.36268  0.79259  0.44846  1.0000
  H   H10       1.0  0.91374  0.70756  0.55150  1.0000
  H   H11       1.0  0.63732  0.20741  0.55154  1.0000
  H   H12       1.0  0.08626  0.29245  0.44850  1.0000
  H   H13       1.0  0.55917  0.66357  0.96891  1.0000
  H   H14       1.0  0.59011  0.83604  0.03103  1.0000
  H   H15       1.0  0.44083  0.33643  0.03109  1.0000
  H   H16       1.0  0.40989  0.16396  0.96897  1.0000
  C   C1        1.0  0.31629  0.80062  0.53597  1.0000
  C   C2        1.0  0.77995  0.69946  0.46392  1.0000
  C   C3        1.0  0.68371  0.19938  0.46403  1.0000
  C   C4        1.0  0.22005  0.30054  0.53608  1.0000
  C   C5        1.0  0.61499  0.74236  0.73088  1.0000
  C   C6        1.0  0.88413  0.75770  0.26913  1.0000
  C   C7        1.0  0.38501  0.25764  0.26913  1.0000
  C   C8        1.0  0.11587  0.24230  0.73087  1.0000
  N   N1        1.0  0.59396  0.58143  0.69607  1.0000
  N   N2        1.0  0.89788  0.91862  0.30392  1.0000
  N   N3        1.0  0.40604  0.41857  0.30393  1.0000
  N   N4        1.0  0.10212  0.08138  0.69608  1.0000
  N   N5        1.0  0.48912  0.84143  0.65186  1.0000
  N   N6        1.0  0.83711  0.65863  0.34812  1.0000
  N   N7        1.0  0.51089  0.15857  0.34814  1.0000
  N   N8        1.0  0.16289  0.34137  0.65188  1.0000
  N   N9        1.0  0.69792  0.98807  0.80580  1.0000
  N   N10       1.0  0.89213  0.51196  0.19423  1.0000
  N   N11       1.0  0.30208  0.01193  0.19421  1.0000
  N   N12       1.0  0.10787  0.48804  0.80577  1.0000
  N   N13       1.0  0.54337  0.99376  0.70027  1.0000
  N   N14       1.0  0.84299  0.50630  0.29974  1.0000
  N   N15       1.0  0.45663  0.00624  0.29973  1.0000
  N   N16       1.0  0.15701  0.49369  0.70026  1.0000
  N   N17       1.0  0.74755  0.83515  0.82810  1.0000
  N   N18       1.0  0.91951  0.66487  0.17193  1.0000
  N   N19       1.0  0.25245  0.16485  0.17190  1.0000
  N   N20       1.0  0.08049  0.33513  0.82808  1.0000
  N   N21       1.0  0.66595  0.48654  0.78733  1.0000
  N   N22       1.0  0.87860  0.01348  0.21264  1.0000
  N   N23       1.0  0.33405  0.51346  0.21267  1.0000
  N   N24       1.0  0.12140  0.98652  0.78736  1.0000
  O   O1        1.0  0.48556  0.74978  0.99995  1.0000
  O   O2        1.0  0.51444  0.25022  0.00005  1.0000
  O   O3        1.0  0.64746  0.33800  0.75604  1.0000
  O   O4        1.0  0.89152  0.16203  0.24392  1.0000
  O   O5        1.0  0.35254  0.66200  0.24396  1.0000
  O   O6        1.0  0.10848  0.83797  0.75608  1.0000
  O   O7        1.0  0.75294  0.53752  0.90888  1.0000
  O   O8        1.0  0.84390  0.96245  0.09109  1.0000
  O   O9        1.0  0.24706  0.46247  0.09112  1.0000
  O   O10       1.0  0.15610  0.03755  0.90891  1.0000
