data_image0
_chemical_formula_structural       Sr4H16C4N24O16
_chemical_formula_sum              "Sr4 H16 C4 N24 O16"
_cell_length_a       6.52469
_cell_length_b       8.80739
_cell_length_c       13.4183
_cell_angle_alpha    84.8334
_cell_angle_beta     75.9298
_cell_angle_gamma    68.263

_space_group_name_H-M_alt    "P 1"
_space_group_IT_number       1

loop_
  _space_group_symop_operation_xyz
  'x, y, z'

loop_
  _atom_site_type_symbol
  _atom_site_label
  _atom_site_symmetry_multiplicity
  _atom_site_fract_x
  _atom_site_fract_y
  _atom_site_fract_z
  _atom_site_occupancy
  Sr  Sr1       1.0  0.76059  0.84145  0.85901  1.0000
  Sr  Sr2       1.0  0.46102  0.15850  0.14099  1.0000
  Sr  Sr3       1.0  0.36957  0.34150  0.64099  1.0000
  Sr  Sr4       1.0  0.35196  0.65852  0.35900  1.0000
  H   H1        1.0  0.41002  0.71941  0.79437  1.0000
  H   H2        1.0  0.92382  0.28067  0.20571  1.0000
  H   H3        1.0  0.95435  0.21935  0.70572  1.0000
  H   H4        1.0  0.87944  0.78057  0.29432  1.0000
  H   H5        1.0  0.44565  0.86089  0.71645  1.0000
  H   H6        1.0  0.02304  0.13909  0.28355  1.0000
  H   H7        1.0  0.91205  0.36092  0.78356  1.0000
  H   H8        1.0  0.05654  0.63903  0.21647  1.0000
  H   H9        1.0  0.15464  0.95908  0.84591  1.0000
  H   H10       1.0  0.95944  0.04095  0.15422  1.0000
  H   H11       1.0  0.75067  0.45899  0.65408  1.0000
  H   H12       1.0  0.86364  0.54096  0.34575  1.0000
  H   H13       1.0  0.94579  0.10607  0.91185  1.0000
  H   H14       1.0  0.96361  0.89397  0.08826  1.0000
  H   H15       1.0  0.60782  0.60601  0.58815  1.0000
  H   H16       1.0  0.80174  0.39402  0.41172  1.0000
  C   C1        1.0  0.25262  0.47237  0.94269  1.0000
  C   C2        1.0  0.66774  0.52763  0.05734  1.0000
  C   C3        1.0  0.94559  0.97243  0.55729  1.0000
  C   C4        1.0  0.47490  0.02761  0.44272  1.0000
  N   N1        1.0  0.33553  0.37380  0.85683  1.0000
  N   N2        1.0  0.56604  0.62624  0.14319  1.0000
  N   N3        1.0  0.94253  0.87381  0.64314  1.0000
  N   N4        1.0  0.45903  0.12619  0.35685  1.0000
  N   N5        1.0  0.23961  0.43495  0.04379  1.0000
  N   N6        1.0  0.71846  0.56505  0.95624  1.0000
  N   N7        1.0  0.03365  0.93503  0.45619  1.0000
  N   N8        1.0  0.42458  0.06503  0.54380  1.0000
  N   N9        1.0  0.09724  0.69920  0.02363  1.0000
  N   N10       1.0  0.81997  0.30082  0.97640  1.0000
  N   N11       1.0  0.87091  0.19926  0.47636  1.0000
  N   N12       1.0  0.54654  0.80078  0.52363  1.0000
  N   N13       1.0  0.14014  0.58031  0.09156  1.0000
  N   N14       1.0  0.81203  0.41970  0.90847  1.0000
  N   N15       1.0  0.98180  0.08038  0.40843  1.0000
  N   N16       1.0  0.47058  0.91967  0.59156  1.0000
  N   N17       1.0  0.16394  0.63643  0.92898  1.0000
  N   N18       1.0  0.72925  0.36359  0.07104  1.0000
  N   N19       1.0  0.84306  0.13647  0.57100  1.0000
  N   N20       1.0  0.55030  0.86357  0.42900  1.0000
  N   N21       1.0  0.43540  0.21786  0.86630  1.0000
  N   N22       1.0  0.51951  0.78214  0.13370  1.0000
  N   N23       1.0  0.05168  0.71787  0.63366  1.0000
  N   N24       1.0  0.40307  0.28212  0.36630  1.0000
  O   O1        1.0  0.98822  0.01742  0.86130  1.0000
  O   O2        1.0  0.86680  0.98253  0.13885  1.0000
  O   O3        1.0  0.59966  0.51734  0.63867  1.0000
  O   O4        1.0  0.75555  0.48260  0.36114  1.0000
  O   O5        1.0  0.47114  0.14015  0.94913  1.0000
  O   O6        1.0  0.56076  0.85977  0.05088  1.0000
  O   O7        1.0  0.17039  0.64019  0.55083  1.0000
  O   O8        1.0  0.36150  0.35977  0.44910  1.0000
  O   O9        1.0  0.50705  0.13270  0.78303  1.0000
  O   O10       1.0  0.42236  0.86741  0.21692  1.0000
  O   O11       1.0  0.03979  0.63263  0.71689  1.0000
  O   O12       1.0  0.38924  0.36732  0.28305  1.0000
  O   O13       1.0  0.43551  0.82269  0.79049  1.0000
  O   O14       1.0  0.04866  0.17733  0.20951  1.0000
  O   O15       1.0  0.97599  0.32264  0.70954  1.0000
  O   O16       1.0  0.00812  0.67727  0.29051  1.0000
