data_image0
_chemical_formula_structural       K4H44C32S4N8O8
_chemical_formula_sum              "K4 H44 C32 S4 N8 O8"
_cell_length_a       4.18009
_cell_length_b       14.6895
_cell_length_c       16.6215
_cell_angle_alpha    90
_cell_angle_beta     90.0001
_cell_angle_gamma    90

_space_group_name_H-M_alt    "P 1"
_space_group_IT_number       1

loop_
  _space_group_symop_operation_xyz
  'x, y, z'

loop_
  _atom_site_type_symbol
  _atom_site_label
  _atom_site_symmetry_multiplicity
  _atom_site_fract_x
  _atom_site_fract_y
  _atom_site_fract_z
  _atom_site_occupancy
  K   K1        1.0  0.08855  0.87684  0.87153  1.0000
  K   K2        1.0  0.41145  0.12316  0.37153  1.0000
  K   K3        1.0  0.91145  0.37684  0.62848  1.0000
  K   K4        1.0  0.58855  0.62316  0.12848  1.0000
  H   H1        1.0  0.29747  0.71872  0.98902  1.0000
  H   H2        1.0  0.20253  0.28128  0.48902  1.0000
  H   H3        1.0  0.70253  0.21872  0.51098  1.0000
  H   H4        1.0  0.79747  0.78128  0.01098  1.0000
  H   H5        1.0  0.84991  0.55107  0.73899  1.0000
  H   H6        1.0  0.65009  0.44893  0.23899  1.0000
  H   H7        1.0  0.15009  0.05107  0.76101  1.0000
  H   H8        1.0  0.34991  0.94893  0.26101  1.0000
  H   H9        1.0  0.90798  0.66686  0.76853  1.0000
  H   H10       1.0  0.59202  0.33314  0.26853  1.0000
  H   H11       1.0  0.09202  0.16686  0.73147  1.0000
  H   H12       1.0  0.40798  0.83314  0.23147  1.0000
  H   H13       1.0  0.70817  0.65834  0.62746  1.0000
  H   H14       1.0  0.79183  0.34166  0.12746  1.0000
  H   H15       1.0  0.29183  0.15834  0.87254  1.0000
  H   H16       1.0  0.20817  0.84166  0.37254  1.0000
  H   H17       1.0  0.42747  0.71423  0.69049  1.0000
  H   H18       1.0  0.07253  0.28577  0.19049  1.0000
  H   H19       1.0  0.57253  0.21423  0.80951  1.0000
  H   H20       1.0  0.92747  0.78577  0.30951  1.0000
  H   H21       1.0  0.36338  0.59821  0.65997  1.0000
  H   H22       1.0  0.13662  0.40179  0.15997  1.0000
  H   H23       1.0  0.63662  0.09821  0.84003  1.0000
  H   H24       1.0  0.86338  0.90179  0.34003  1.0000
  H   H25       1.0  0.96707  0.39571  0.86836  1.0000
  H   H26       1.0  0.53293  0.60429  0.36836  1.0000
  H   H27       1.0  0.03293  0.89571  0.63164  1.0000
  H   H28       1.0  0.46707  0.10429  0.13164  1.0000
  H   H29       1.0  0.85651  0.44168  0.96410  1.0000
  H   H30       1.0  0.64349  0.55832  0.46410  1.0000
  H   H31       1.0  0.14349  0.94168  0.53590  1.0000
  H   H32       1.0  0.35651  0.05832  0.03590  1.0000
  H   H33       1.0  0.36858  0.38207  0.02340  1.0000
  H   H34       1.0  0.13142  0.61793  0.52340  1.0000
  H   H35       1.0  0.63142  0.88207  0.47660  1.0000
  H   H36       1.0  0.86858  0.11793  0.97660  1.0000
  H   H37       1.0  0.46245  0.33094  0.92829  1.0000
  H   H38       1.0  0.03755  0.66906  0.42829  1.0000
  H   H39       1.0  0.53755  0.83094  0.57171  1.0000
  H   H40       1.0  0.96245  0.16906  0.07171  1.0000
  H   H41       1.0  0.12355  0.29382  0.98423  1.0000
  H   H42       1.0  0.37646  0.70618  0.48423  1.0000
  H   H43       1.0  0.87645  0.79382  0.51577  1.0000
  H   H44       1.0  0.62354  0.20618  0.01577  1.0000
  C   C1        1.0  0.39007  0.51841  0.83673  1.0000
  C   C2        1.0  0.10993  0.48159  0.33673  1.0000
  C   C3        1.0  0.60993  0.01841  0.66327  1.0000
  C   C4        1.0  0.89007  0.98159  0.16327  1.0000
  C   C5        1.0  0.19519  0.57796  0.96682  1.0000
  C   C6        1.0  0.30481  0.42204  0.46682  1.0000
  C   C7        1.0  0.80481  0.07796  0.53318  1.0000
  C   C8        1.0  0.69519  0.92204  0.03318  1.0000
  C   C9        1.0  0.32618  0.66280  0.94680  1.0000
  C   C10       1.0  0.17381  0.33721  0.44680  1.0000
  C   C11       1.0  0.67382  0.16279  0.55320  1.0000
  C   C12       1.0  0.82619  0.83721  0.05320  1.0000
  C   C13       1.0  0.49353  0.67809  0.87499  1.0000
  C   C14       1.0  0.00646  0.32191  0.37499  1.0000
  C   C15       1.0  0.50647  0.17809  0.62501  1.0000
  C   C16       1.0  0.99353  0.82191  0.12501  1.0000
  C   C17       1.0  0.72991  0.61587  0.75120  1.0000
  C   C18       1.0  0.77009  0.38413  0.25120  1.0000
  C   C19       1.0  0.27009  0.11587  0.74880  1.0000
  C   C20       1.0  0.22991  0.88413  0.24880  1.0000
  C   C21       1.0  0.54310  0.64858  0.67818  1.0000
  C   C22       1.0  0.95690  0.35142  0.17818  1.0000
  C   C23       1.0  0.45690  0.14858  0.82182  1.0000
  C   C24       1.0  0.04310  0.85142  0.32182  1.0000
  C   C25       1.0  0.05722  0.42265  0.92543  1.0000
  C   C26       1.0  0.44278  0.57735  0.42542  1.0000
  C   C27       1.0  0.94278  0.92265  0.57458  1.0000
  C   C28       1.0  0.55722  0.07735  0.07458  1.0000
  C   C29       1.0  0.26808  0.35340  0.96789  1.0000
  C   C30       1.0  0.23192  0.64660  0.46789  1.0000
  C   C31       1.0  0.73192  0.85340  0.53211  1.0000
  C   C32       1.0  0.76808  0.14660  0.03211  1.0000
  S   S1        1.0  0.41974  0.43107  0.77102  1.0000
  S   S2        1.0  0.08026  0.56893  0.27102  1.0000
  S   S3        1.0  0.58026  0.93107  0.72897  1.0000
  S   S4        1.0  0.91974  0.06893  0.22898  1.0000
  N   N1        1.0  0.53039  0.60148  0.82288  1.0000
  N   N2        1.0  0.96961  0.39852  0.32288  1.0000
  N   N3        1.0  0.46961  0.10148  0.67712  1.0000
  N   N4        1.0  0.03039  0.89852  0.17712  1.0000
  N   N5        1.0  0.22314  0.50837  0.90728  1.0000
  N   N6        1.0  0.27686  0.49163  0.40728  1.0000
  N   N7        1.0  0.77686  0.00837  0.59272  1.0000
  N   N8        1.0  0.72313  0.99163  0.09272  1.0000
  O   O1        1.0  0.05832  0.55853  0.03235  1.0000
  O   O2        1.0  0.44168  0.44147  0.53235  1.0000
  O   O3        1.0  0.94168  0.05853  0.46765  1.0000
  O   O4        1.0  0.55832  0.94147  0.96765  1.0000
  O   O5        1.0  0.61189  0.75323  0.85327  1.0000
  O   O6        1.0  0.88811  0.24677  0.35327  1.0000
  O   O7        1.0  0.38811  0.25323  0.64673  1.0000
  O   O8        1.0  0.11189  0.74677  0.14673  1.0000
