data_image0
_chemical_formula_structural       Na4H44C32S4N8O8
_chemical_formula_sum              "Na4 H44 C32 S4 N8 O8"
_cell_length_a       7.66814
_cell_length_b       10.1615
_cell_length_c       14.2194
_cell_angle_alpha    108.421
_cell_angle_beta     90.0006
_cell_angle_gamma    89.9992

_space_group_name_H-M_alt    "P 1"
_space_group_IT_number       1

loop_
  _space_group_symop_operation_xyz
  'x, y, z'

loop_
  _atom_site_type_symbol
  _atom_site_label
  _atom_site_symmetry_multiplicity
  _atom_site_fract_x
  _atom_site_fract_y
  _atom_site_fract_z
  _atom_site_occupancy
  Na  Na1       1.0  0.54029  0.50777  0.88583  1.0000
  Na  Na2       1.0  0.04029  0.99224  0.61417  1.0000
  Na  Na3       1.0  0.45971  0.49223  0.11417  1.0000
  Na  Na4       1.0  0.95971  0.00777  0.38583  1.0000
  H   H1        1.0  0.25252  0.23862  0.67905  1.0000
  H   H2        1.0  0.75251  0.26138  0.82095  1.0000
  H   H3        1.0  0.74747  0.76138  0.32094  1.0000
  H   H4        1.0  0.24748  0.73862  0.17905  1.0000
  H   H5        1.0  0.32766  0.95765  0.36139  1.0000
  H   H6        1.0  0.82765  0.54235  0.13861  1.0000
  H   H7        1.0  0.67235  0.04235  0.63861  1.0000
  H   H8        1.0  0.17234  0.45765  0.86138  1.0000
  H   H9        1.0  0.53016  0.00244  0.31860  1.0000
  H   H10       1.0  0.03016  0.49756  0.18140  1.0000
  H   H11       1.0  0.46983  0.99755  0.68140  1.0000
  H   H12       1.0  0.96983  0.50245  0.81859  1.0000
  H   H13       1.0  0.66265  0.57338  0.62930  1.0000
  H   H14       1.0  0.16265  0.92661  0.87070  1.0000
  H   H15       1.0  0.33736  0.42661  0.37070  1.0000
  H   H16       1.0  0.83736  0.07339  0.12930  1.0000
  H   H17       1.0  0.73913  0.50772  0.50424  1.0000
  H   H18       1.0  0.23914  0.99228  0.99576  1.0000
  H   H19       1.0  0.26086  0.49229  0.49577  1.0000
  H   H20       1.0  0.76086  0.00772  0.00424  1.0000
  H   H21       1.0  0.88948  0.57441  0.60357  1.0000
  H   H22       1.0  0.38948  0.92558  0.89643  1.0000
  H   H23       1.0  0.11052  0.42558  0.39644  1.0000
  H   H24       1.0  0.61052  0.07442  0.10357  1.0000
  H   H25       1.0  0.81640  0.37996  0.66960  1.0000
  H   H26       1.0  0.31640  0.12004  0.83040  1.0000
  H   H27       1.0  0.18359  0.62003  0.33040  1.0000
  H   H28       1.0  0.68360  0.87996  0.16960  1.0000
  H   H29       1.0  0.89100  0.31286  0.54400  1.0000
  H   H30       1.0  0.39100  0.18713  0.95599  1.0000
  H   H31       1.0  0.10899  0.68713  0.45599  1.0000
  H   H32       1.0  0.60900  0.81287  0.04401  1.0000
  H   H33       1.0  0.18845  0.16349  0.31924  1.0000
  H   H34       1.0  0.68846  0.33651  0.18076  1.0000
  H   H35       1.0  0.81155  0.83650  0.68075  1.0000
  H   H36       1.0  0.31155  0.66349  0.81924  1.0000
  H   H37       1.0  0.27597  0.03433  0.21408  1.0000
  H   H38       1.0  0.77598  0.46567  0.28592  1.0000
  H   H39       1.0  0.72403  0.96566  0.78592  1.0000
  H   H40       1.0  0.22403  0.53434  0.71408  1.0000
  H   H41       1.0  0.39294  0.19049  0.27010  1.0000
  H   H42       1.0  0.89295  0.30951  0.22990  1.0000
  H   H43       1.0  0.60705  0.80950  0.72989  1.0000
  H   H44       1.0  0.10706  0.69050  0.77010  1.0000
  C   C1        1.0  0.34740  0.23197  0.62086  1.0000
  C   C2        1.0  0.84737  0.26801  0.87915  1.0000
  C   C3        1.0  0.65261  0.76802  0.37914  1.0000
  C   C4        1.0  0.15262  0.73197  0.12086  1.0000
  C   C5        1.0  0.59236  0.21376  0.47023  1.0000
  C   C6        1.0  0.09236  0.28624  0.02976  1.0000
  C   C7        1.0  0.40763  0.78622  0.52976  1.0000
  C   C8        1.0  0.90764  0.71377  0.97024  1.0000
  C   C9        1.0  0.40403  0.04314  0.35104  1.0000
  C   C10       1.0  0.90403  0.45687  0.14896  1.0000
  C   C11       1.0  0.59597  0.95686  0.64896  1.0000
  C   C12       1.0  0.09597  0.54314  0.85104  1.0000
  C   C13       1.0  0.31089  0.14792  0.52463  1.0000
  C   C14       1.0  0.81089  0.35209  0.97538  1.0000
  C   C15       1.0  0.68910  0.85209  0.47538  1.0000
  C   C16       1.0  0.18913  0.64791  0.02462  1.0000
  C   C17       1.0  0.50667  0.30145  0.64633  1.0000
  C   C18       1.0  0.00666  0.19855  0.85367  1.0000
  C   C19       1.0  0.49333  0.69855  0.35367  1.0000
  C   C20       1.0  0.99333  0.80146  0.14634  1.0000
  C   C21       1.0  0.76780  0.51563  0.58151  1.0000
  C   C22       1.0  0.26780  0.98437  0.91849  1.0000
  C   C23       1.0  0.23220  0.48437  0.41849  1.0000
  C   C24       1.0  0.73220  0.01563  0.08151  1.0000
  C   C25       1.0  0.78776  0.37199  0.59249  1.0000
  C   C26       1.0  0.28775  0.12800  0.90750  1.0000
  C   C27       1.0  0.21225  0.62801  0.40750  1.0000
  C   C28       1.0  0.71225  0.87200  0.09250  1.0000
  C   C29       1.0  0.30927  0.11203  0.28516  1.0000
  C   C30       1.0  0.80928  0.38798  0.21484  1.0000
  C   C31       1.0  0.69073  0.88797  0.71484  1.0000
  C   C32       1.0  0.19072  0.61203  0.78516  1.0000
  S   S1        1.0  0.72918  0.21426  0.37724  1.0000
  S   S2        1.0  0.22917  0.28574  0.12276  1.0000
  S   S3        1.0  0.27082  0.78574  0.62275  1.0000
  S   S4        1.0  0.77083  0.71427  0.87725  1.0000
  N   N1        1.0  0.43998  0.13830  0.45138  1.0000
  N   N2        1.0  0.93998  0.36170  0.04863  1.0000
  N   N3        1.0  0.56001  0.86170  0.54862  1.0000
  N   N4        1.0  0.06002  0.63830  0.95138  1.0000
  N   N5        1.0  0.62576  0.29023  0.56693  1.0000
  N   N6        1.0  0.12575  0.20976  0.93307  1.0000
  N   N7        1.0  0.37424  0.70977  0.43307  1.0000
  N   N8        1.0  0.87425  0.79023  0.06693  1.0000
  O   O1        1.0  0.55171  0.37190  0.73265  1.0000
  O   O2        1.0  0.05168  0.12810  0.76734  1.0000
  O   O3        1.0  0.44829  0.62810  0.26735  1.0000
  O   O4        1.0  0.94831  0.87189  0.23265  1.0000
  O   O5        1.0  0.17161  0.07768  0.49871  1.0000
  O   O6        1.0  0.67162  0.42234  0.00130  1.0000
  O   O7        1.0  0.82838  0.92233  0.50129  1.0000
  O   O8        1.0  0.32840  0.57768  0.99871  1.0000
