data_image0
_chemical_formula_structural       Li4H44C32S4N8O8
_chemical_formula_sum              "Li4 H44 C32 S4 N8 O8"
_cell_length_a       7.36495
_cell_length_b       10.3075
_cell_length_c       13.1434
_cell_angle_alpha    108.153
_cell_angle_beta     89.9998
_cell_angle_gamma    90.0002

_space_group_name_H-M_alt    "P 1"
_space_group_IT_number       1

loop_
  _space_group_symop_operation_xyz
  'x, y, z'

loop_
  _atom_site_type_symbol
  _atom_site_label
  _atom_site_symmetry_multiplicity
  _atom_site_fract_x
  _atom_site_fract_y
  _atom_site_fract_z
  _atom_site_occupancy
  Li  Li1       1.0  0.53147  0.50908  0.90041  1.0000
  Li  Li2       1.0  0.03147  0.99091  0.59959  1.0000
  Li  Li3       1.0  0.46852  0.49091  0.09959  1.0000
  Li  Li4       1.0  0.96852  0.00909  0.40041  1.0000
  H   H1        1.0  0.20908  0.26050  0.69530  1.0000
  H   H2        1.0  0.70908  0.23950  0.80470  1.0000
  H   H3        1.0  0.79092  0.73950  0.30470  1.0000
  H   H4        1.0  0.29092  0.76050  0.19530  1.0000
  H   H5        1.0  0.31961  0.96226  0.36436  1.0000
  H   H6        1.0  0.81962  0.53774  0.13564  1.0000
  H   H7        1.0  0.68038  0.03774  0.63564  1.0000
  H   H8        1.0  0.18038  0.46226  0.86436  1.0000
  H   H9        1.0  0.54427  0.99508  0.32852  1.0000
  H   H10       1.0  0.04427  0.50492  0.17147  1.0000
  H   H11       1.0  0.45572  0.00492  0.67147  1.0000
  H   H12       1.0  0.95572  0.49508  0.82853  1.0000
  H   H13       1.0  0.63442  0.58333  0.62130  1.0000
  H   H14       1.0  0.13442  0.91668  0.87871  1.0000
  H   H15       1.0  0.36559  0.41667  0.37871  1.0000
  H   H16       1.0  0.86559  0.08334  0.12129  1.0000
  H   H17       1.0  0.72905  0.49587  0.49281  1.0000
  H   H18       1.0  0.22906  0.00413  0.00719  1.0000
  H   H19       1.0  0.27095  0.50413  0.50719  1.0000
  H   H20       1.0  0.77096  0.99588  0.99281  1.0000
  H   H21       1.0  0.87270  0.58647  0.60042  1.0000
  H   H22       1.0  0.37270  0.91354  0.89959  1.0000
  H   H23       1.0  0.12731  0.41353  0.39959  1.0000
  H   H24       1.0  0.62731  0.08647  0.10041  1.0000
  H   H25       1.0  0.89005  0.33414  0.57378  1.0000
  H   H26       1.0  0.39005  0.16586  0.92621  1.0000
  H   H27       1.0  0.10995  0.66585  0.42621  1.0000
  H   H28       1.0  0.60996  0.83415  0.07379  1.0000
  H   H29       1.0  0.78743  0.42256  0.70007  1.0000
  H   H30       1.0  0.28743  0.07744  0.79993  1.0000
  H   H31       1.0  0.21257  0.57743  0.29993  1.0000
  H   H32       1.0  0.71258  0.92257  0.20007  1.0000
  H   H33       1.0  0.20241  0.15326  0.29938  1.0000
  H   H34       1.0  0.70242  0.34674  0.20061  1.0000
  H   H35       1.0  0.79758  0.84674  0.70061  1.0000
  H   H36       1.0  0.29758  0.65326  0.79938  1.0000
  H   H37       1.0  0.31747  0.02770  0.19614  1.0000
  H   H38       1.0  0.81748  0.47230  0.30386  1.0000
  H   H39       1.0  0.68252  0.97230  0.80386  1.0000
  H   H40       1.0  0.18251  0.52770  0.69614  1.0000
  H   H41       1.0  0.42820  0.18381  0.26408  1.0000
  H   H42       1.0  0.92820  0.31619  0.23592  1.0000
  H   H43       1.0  0.57179  0.81619  0.73591  1.0000
  H   H44       1.0  0.07179  0.68381  0.76409  1.0000
  C   C1        1.0  0.31636  0.24948  0.63668  1.0000
  C   C2        1.0  0.81636  0.25051  0.86333  1.0000
  C   C3        1.0  0.68365  0.75052  0.36332  1.0000
  C   C4        1.0  0.18365  0.74948  0.13667  1.0000
  C   C5        1.0  0.59406  0.21634  0.48420  1.0000
  C   C6        1.0  0.09406  0.28366  0.01579  1.0000
  C   C7        1.0  0.40594  0.78365  0.51579  1.0000
  C   C8        1.0  0.90594  0.71635  0.98421  1.0000
  C   C9        1.0  0.41129  0.04083  0.35420  1.0000
  C   C10       1.0  0.91130  0.45917  0.14579  1.0000
  C   C11       1.0  0.58870  0.95917  0.64580  1.0000
  C   C12       1.0  0.08870  0.54083  0.85421  1.0000
  C   C13       1.0  0.29349  0.15526  0.53539  1.0000
  C   C14       1.0  0.79349  0.34474  0.96461  1.0000
  C   C15       1.0  0.70651  0.84474  0.46461  1.0000
  C   C16       1.0  0.20651  0.65526  0.03539  1.0000
  C   C17       1.0  0.47600  0.32584  0.66627  1.0000
  C   C18       1.0  0.97600  0.17416  0.83373  1.0000
  C   C19       1.0  0.52401  0.67416  0.33373  1.0000
  C   C20       1.0  0.02401  0.82584  0.16627  1.0000
  C   C21       1.0  0.75032  0.52286  0.57960  1.0000
  C   C22       1.0  0.25032  0.97714  0.92040  1.0000
  C   C23       1.0  0.24969  0.47714  0.42041  1.0000
  C   C24       1.0  0.74969  0.02286  0.07960  1.0000
  C   C25       1.0  0.77312  0.39502  0.61312  1.0000
  C   C26       1.0  0.27312  0.10498  0.88688  1.0000
  C   C27       1.0  0.22688  0.60497  0.38688  1.0000
  C   C28       1.0  0.72689  0.89503  0.11312  1.0000
  C   C29       1.0  0.33510  0.10582  0.27422  1.0000
  C   C30       1.0  0.83510  0.39417  0.22578  1.0000
  C   C31       1.0  0.66490  0.89417  0.72578  1.0000
  C   C32       1.0  0.16489  0.60583  0.77422  1.0000
  S   S1        1.0  0.75560  0.20095  0.39025  1.0000
  S   S2        1.0  0.25561  0.29905  0.10975  1.0000
  S   S3        1.0  0.24439  0.79905  0.60974  1.0000
  S   S4        1.0  0.74439  0.70095  0.89026  1.0000
  N   N1        1.0  0.43667  0.14050  0.46134  1.0000
  N   N2        1.0  0.93667  0.35950  0.03866  1.0000
  N   N3        1.0  0.56332  0.85950  0.53866  1.0000
  N   N4        1.0  0.06332  0.64050  0.96134  1.0000
  N   N5        1.0  0.61158  0.30647  0.58574  1.0000
  N   N6        1.0  0.11158  0.19353  0.91425  1.0000
  N   N7        1.0  0.38842  0.69353  0.41425  1.0000
  N   N8        1.0  0.88842  0.80647  0.08575  1.0000
  O   O1        1.0  0.50721  0.40870  0.75762  1.0000
  O   O2        1.0  0.00721  0.09131  0.74238  1.0000
  O   O3        1.0  0.49280  0.59130  0.24238  1.0000
  O   O4        1.0  0.99280  0.90869  0.25762  1.0000
  O   O5        1.0  0.15332  0.07982  0.50625  1.0000
  O   O6        1.0  0.65332  0.42017  0.99375  1.0000
  O   O7        1.0  0.84667  0.92018  0.49375  1.0000
  O   O8        1.0  0.34667  0.57982  0.00625  1.0000
