data_image0
_chemical_formula_structural       Cd2Ni2H32C20N12O4
_chemical_formula_sum              "Cd2 Ni2 H32 C20 N12 O4"
_cell_length_a       7.52713
_cell_length_b       7.52711
_cell_length_c       14.1525
_cell_angle_alpha    77.2945
_cell_angle_beta     77.2943
_cell_angle_gamma    87.6391

_space_group_name_H-M_alt    "P 1"
_space_group_IT_number       1

loop_
  _space_group_symop_operation_xyz
  'x, y, z'

loop_
  _atom_site_type_symbol
  _atom_site_label
  _atom_site_symmetry_multiplicity
  _atom_site_fract_x
  _atom_site_fract_y
  _atom_site_fract_z
  _atom_site_occupancy
  Cd  Cd1       1.0  0.89045  0.10954  0.25000  1.0000
  Cd  Cd2       1.0  0.10954  0.89046  0.75000  1.0000
  Ni  Ni1       1.0  0.00002  0.49999  0.49999  1.0000
  Ni  Ni2       1.0  0.50000  1.00000  0.99999  1.0000
  H   H1        1.0  0.41678  0.11112  0.27795  1.0000
  H   H2        1.0  0.88886  0.58322  0.22205  1.0000
  H   H3        1.0  0.58321  0.88889  0.72205  1.0000
  H   H4        1.0  0.11113  0.41679  0.77795  1.0000
  H   H5        1.0  0.31775  0.06023  0.40663  1.0000
  H   H6        1.0  0.93977  0.68223  0.09337  1.0000
  H   H7        1.0  0.68225  0.93977  0.59337  1.0000
  H   H8        1.0  0.06024  0.31777  0.90664  1.0000
  H   H9        1.0  0.31624  0.79266  0.33140  1.0000
  H   H10       1.0  0.20732  0.68377  0.16860  1.0000
  H   H11       1.0  0.68376  0.20734  0.66860  1.0000
  H   H12       1.0  0.79268  0.31623  0.83141  1.0000
  H   H13       1.0  0.55993  0.80475  0.29229  1.0000
  H   H14       1.0  0.19523  0.44008  0.20772  1.0000
  H   H15       1.0  0.44007  0.19526  0.70770  1.0000
  H   H16       1.0  0.80475  0.55991  0.79230  1.0000
  H   H17       1.0  0.61972  0.52637  0.39448  1.0000
  H   H18       1.0  0.47363  0.38028  0.10553  1.0000
  H   H19       1.0  0.38029  0.47364  0.60551  1.0000
  H   H20       1.0  0.52636  0.61968  0.89450  1.0000
  H   H21       1.0  0.37801  0.48345  0.42796  1.0000
  H   H22       1.0  0.51655  0.62199  0.07205  1.0000
  H   H23       1.0  0.62200  0.51656  0.57204  1.0000
  H   H24       1.0  0.48345  0.37798  0.92798  1.0000
  H   H25       1.0  0.64357  0.99071  0.42443  1.0000
  H   H26       1.0  0.00930  0.35641  0.07557  1.0000
  H   H27       1.0  0.35642  0.00930  0.57557  1.0000
  H   H28       1.0  0.99071  0.64360  0.92443  1.0000
  H   H29       1.0  0.59122  0.20378  0.39873  1.0000
  H   H30       1.0  0.79623  0.40877  0.10126  1.0000
  H   H31       1.0  0.40878  0.79622  0.60126  1.0000
  H   H32       1.0  0.20379  0.59124  0.89873  1.0000
  C   C1        1.0  0.95529  0.69172  0.40324  1.0000
  C   C2        1.0  0.30828  0.04472  0.09675  1.0000
  C   C3        1.0  0.04473  0.30827  0.59675  1.0000
  C   C4        1.0  0.69172  0.95527  0.90324  1.0000
  C   C5        1.0  0.00854  0.65676  0.58170  1.0000
  C   C6        1.0  0.34322  0.99148  0.91829  1.0000
  C   C7        1.0  0.99148  0.34322  0.41828  1.0000
  C   C8        1.0  0.65677  0.00852  0.08171  1.0000
  C   C9        1.0  0.43649  0.03387  0.35026  1.0000
  C   C10       1.0  0.96613  0.56351  0.14973  1.0000
  C   C11       1.0  0.56350  0.96613  0.64973  1.0000
  C   C12       1.0  0.03388  0.43650  0.85027  1.0000
  C   C13       1.0  0.44231  0.83341  0.34881  1.0000
  C   C14       1.0  0.16659  0.55769  0.15119  1.0000
  C   C15       1.0  0.55769  0.16659  0.65119  1.0000
  C   C16       1.0  0.83341  0.44231  0.84882  1.0000
  C   C17       1.0  0.49224  0.54537  0.44763  1.0000
  C   C18       1.0  0.45464  0.50776  0.05238  1.0000
  C   C19       1.0  0.50777  0.45464  0.55236  1.0000
  C   C20       1.0  0.54536  0.49222  0.94765  1.0000
  N   N1        1.0  0.92736  0.81355  0.34088  1.0000
  N   N2        1.0  0.18645  0.07266  0.15911  1.0000
  N   N3        1.0  0.07265  0.18645  0.65911  1.0000
  N   N4        1.0  0.81354  0.92734  0.84088  1.0000
  N   N5        1.0  0.01287  0.75527  0.63484  1.0000
  N   N6        1.0  0.24471  0.98715  0.86514  1.0000
  N   N7        1.0  0.98714  0.24471  0.36515  1.0000
  N   N8        1.0  0.75526  0.01286  0.13485  1.0000
  N   N9        1.0  0.60897  0.09006  0.36946  1.0000
  N   N10       1.0  0.90994  0.39104  0.13054  1.0000
  N   N11       1.0  0.39102  0.90995  0.63054  1.0000
  N   N12       1.0  0.09006  0.60898  0.86946  1.0000
  O   O1        1.0  0.46047  0.73343  0.44503  1.0000
  O   O2        1.0  0.26658  0.53954  0.05497  1.0000
  O   O3        1.0  0.53954  0.26658  0.55496  1.0000
  O   O4        1.0  0.73343  0.46047  0.94505  1.0000
