data_image0
_chemical_formula_structural       Zn4Ni4H64C40N24O8
_chemical_formula_sum              "Zn4 Ni4 H64 C40 N24 O8"
_cell_length_a       8.8472
_cell_length_b       11.2335
_cell_length_c       14.7436
_cell_angle_alpha    90
_cell_angle_beta     90
_cell_angle_gamma    90

_space_group_name_H-M_alt    "P 1"
_space_group_IT_number       1

loop_
  _space_group_symop_operation_xyz
  'x, y, z'

loop_
  _atom_site_type_symbol
  _atom_site_label
  _atom_site_symmetry_multiplicity
  _atom_site_fract_x
  _atom_site_fract_y
  _atom_site_fract_z
  _atom_site_occupancy
  Zn  Zn1       1.0  0.38055  0.50000  0.75000  1.0000
  Zn  Zn2       1.0  0.11945  1.00000  0.25000  1.0000
  Zn  Zn3       1.0  0.61945  0.50000  0.25000  1.0000
  Zn  Zn4       1.0  0.88055  0.00000  0.75000  1.0000
  Ni  Ni1       1.0  0.00000  0.50000  1.00000  1.0000
  Ni  Ni2       1.0  0.50000  0.00000  0.50000  1.0000
  Ni  Ni3       1.0  0.49999  0.00000  1.00000  1.0000
  Ni  Ni4       1.0  0.00001  0.50000  0.50000  1.0000
  H   H1        1.0  0.45230  0.75608  0.66235  1.0000
  H   H2        1.0  0.04770  0.74392  0.16235  1.0000
  H   H3        1.0  0.04770  0.25607  0.33765  1.0000
  H   H4        1.0  0.45230  0.24393  0.83765  1.0000
  H   H5        1.0  0.54770  0.24392  0.33765  1.0000
  H   H6        1.0  0.95230  0.25608  0.83765  1.0000
  H   H7        1.0  0.95230  0.74392  0.66235  1.0000
  H   H8        1.0  0.54770  0.75608  0.16235  1.0000
  H   H9        1.0  0.61000  0.80275  0.72722  1.0000
  H   H10       1.0  0.89000  0.69725  0.22722  1.0000
  H   H11       1.0  0.89000  0.30275  0.27278  1.0000
  H   H12       1.0  0.61000  0.19725  0.77278  1.0000
  H   H13       1.0  0.39000  0.19725  0.27278  1.0000
  H   H14       1.0  0.11000  0.30275  0.77278  1.0000
  H   H15       1.0  0.11000  0.69725  0.72722  1.0000
  H   H16       1.0  0.39000  0.80275  0.22722  1.0000
  H   H17       1.0  0.69954  0.70595  0.58744  1.0000
  H   H18       1.0  0.80045  0.79405  0.08744  1.0000
  H   H19       1.0  0.80046  0.20595  0.41256  1.0000
  H   H20       1.0  0.69954  0.29405  0.91256  1.0000
  H   H21       1.0  0.30045  0.29405  0.41256  1.0000
  H   H22       1.0  0.19954  0.20595  0.91256  1.0000
  H   H23       1.0  0.19954  0.79405  0.58744  1.0000
  H   H24       1.0  0.30045  0.70594  0.08744  1.0000
  H   H25       1.0  0.74867  0.61629  0.68336  1.0000
  H   H26       1.0  0.75133  0.88371  0.18336  1.0000
  H   H27       1.0  0.75133  0.11629  0.31664  1.0000
  H   H28       1.0  0.74867  0.38371  0.81664  1.0000
  H   H29       1.0  0.25132  0.38371  0.31664  1.0000
  H   H30       1.0  0.24867  0.11629  0.81664  1.0000
  H   H31       1.0  0.24867  0.88371  0.68336  1.0000
  H   H32       1.0  0.25133  0.61629  0.18336  1.0000
  H   H33       1.0  0.60426  0.60417  0.47322  1.0000
  H   H34       1.0  0.89574  0.89583  0.97322  1.0000
  H   H35       1.0  0.89574  0.10417  0.52679  1.0000
  H   H36       1.0  0.60426  0.39583  0.02678  1.0000
  H   H37       1.0  0.39574  0.39583  0.52679  1.0000
  H   H38       1.0  0.10426  0.10417  0.02678  1.0000
  H   H39       1.0  0.10426  0.89583  0.47322  1.0000
  H   H40       1.0  0.39574  0.60417  0.97322  1.0000
  H   H41       1.0  0.41642  0.61802  0.51698  1.0000
  H   H42       1.0  0.08358  0.88198  0.01698  1.0000
  H   H43       1.0  0.08358  0.11802  0.48302  1.0000
  H   H44       1.0  0.41642  0.38198  0.98302  1.0000
  H   H45       1.0  0.58358  0.38198  0.48302  1.0000
  H   H46       1.0  0.91642  0.11802  0.98302  1.0000
  H   H47       1.0  0.91642  0.88198  0.51698  1.0000
  H   H48       1.0  0.58358  0.61802  0.01698  1.0000
  H   H49       1.0  0.42206  0.70650  0.81780  1.0000
  H   H50       1.0  0.07794  0.79350  0.31779  1.0000
  H   H51       1.0  0.07794  0.20649  0.18220  1.0000
  H   H52       1.0  0.42206  0.29350  0.68220  1.0000
  H   H53       1.0  0.57793  0.29350  0.18220  1.0000
  H   H54       1.0  0.92206  0.20649  0.68220  1.0000
  H   H55       1.0  0.92206  0.79350  0.81780  1.0000
  H   H56       1.0  0.57794  0.70649  0.31779  1.0000
  H   H57       1.0  0.58114  0.63060  0.82057  1.0000
  H   H58       1.0  0.91886  0.86940  0.32057  1.0000
  H   H59       1.0  0.91887  0.13059  0.17944  1.0000
  H   H60       1.0  0.58114  0.36940  0.67943  1.0000
  H   H61       1.0  0.41886  0.36941  0.17944  1.0000
  H   H62       1.0  0.08114  0.13059  0.67944  1.0000
  H   H63       1.0  0.08114  0.86940  0.82057  1.0000
  H   H64       1.0  0.41887  0.63059  0.32056  1.0000
  C   C1        1.0  0.13977  0.48887  0.90902  1.0000
  C   C2        1.0  0.36023  0.01114  0.40903  1.0000
  C   C3        1.0  0.36023  0.98887  0.09097  1.0000
  C   C4        1.0  0.13977  0.51114  0.59097  1.0000
  C   C5        1.0  0.86023  0.51113  0.09097  1.0000
  C   C6        1.0  0.63977  0.98886  0.59098  1.0000
  C   C7        1.0  0.63976  0.01114  0.90902  1.0000
  C   C8        1.0  0.86024  0.48887  0.40902  1.0000
  C   C9        1.0  0.11151  0.39624  0.07092  1.0000
  C   C10       1.0  0.38848  0.10375  0.57093  1.0000
  C   C11       1.0  0.38848  0.89625  0.92908  1.0000
  C   C12       1.0  0.11152  0.60376  0.42908  1.0000
  C   C13       1.0  0.88849  0.60375  0.92908  1.0000
  C   C14       1.0  0.61151  0.89625  0.42909  1.0000
  C   C15       1.0  0.61150  0.10375  0.07092  1.0000
  C   C16       1.0  0.88849  0.39625  0.57091  1.0000
  C   C17       1.0  0.54917  0.72408  0.70212  1.0000
  C   C18       1.0  0.95083  0.77592  0.20212  1.0000
  C   C19       1.0  0.95083  0.22408  0.29788  1.0000
  C   C20       1.0  0.54917  0.27592  0.79788  1.0000
  C   C21       1.0  0.45083  0.27592  0.29788  1.0000
  C   C22       1.0  0.04917  0.22408  0.79788  1.0000
  C   C23       1.0  0.04917  0.77592  0.70212  1.0000
  C   C24       1.0  0.45083  0.72408  0.20212  1.0000
  C   C25       1.0  0.65359  0.65040  0.64262  1.0000
  C   C26       1.0  0.84641  0.84960  0.14261  1.0000
  C   C27       1.0  0.84641  0.15040  0.35739  1.0000
  C   C28       1.0  0.65359  0.34960  0.85738  1.0000
  C   C29       1.0  0.34641  0.34960  0.35739  1.0000
  C   C30       1.0  0.15359  0.15040  0.85739  1.0000
  C   C31       1.0  0.15359  0.84960  0.64262  1.0000
  C   C32       1.0  0.34641  0.65040  0.14261  1.0000
  C   C33       1.0  0.51894  0.56211  0.51718  1.0000
  C   C34       1.0  0.98105  0.93789  0.01718  1.0000
  C   C35       1.0  0.98106  0.06211  0.48282  1.0000
  C   C36       1.0  0.51894  0.43789  0.98282  1.0000
  C   C37       1.0  0.48105  0.43789  0.48282  1.0000
  C   C38       1.0  0.01894  0.06211  0.98282  1.0000
  C   C39       1.0  0.01894  0.93789  0.51718  1.0000
  C   C40       1.0  0.48105  0.56211  0.01718  1.0000
  N   N1        1.0  0.22971  0.48175  0.85101  1.0000
  N   N2        1.0  0.27029  0.01825  0.35101  1.0000
  N   N3        1.0  0.27029  0.98175  0.14899  1.0000
  N   N4        1.0  0.22971  0.51825  0.64899  1.0000
  N   N5        1.0  0.77029  0.51824  0.14899  1.0000
  N   N6        1.0  0.72971  0.98176  0.64899  1.0000
  N   N7        1.0  0.72971  0.01825  0.85101  1.0000
  N   N8        1.0  0.77030  0.48175  0.35101  1.0000
  N   N9        1.0  0.18061  0.32998  0.11665  1.0000
  N   N10       1.0  0.31939  0.17001  0.61666  1.0000
  N   N11       1.0  0.31938  0.82999  0.88334  1.0000
  N   N12       1.0  0.18062  0.67002  0.38334  1.0000
  N   N13       1.0  0.81939  0.67001  0.88334  1.0000
  N   N14       1.0  0.68062  0.82998  0.38335  1.0000
  N   N15       1.0  0.68060  0.17002  0.11665  1.0000
  N   N16       1.0  0.81939  0.32998  0.61665  1.0000
  N   N17       1.0  0.49179  0.65262  0.77896  1.0000
  N   N18       1.0  0.00822  0.84738  0.27896  1.0000
  N   N19       1.0  0.00822  0.15262  0.22104  1.0000
  N   N20       1.0  0.49179  0.34738  0.72103  1.0000
  N   N21       1.0  0.50821  0.34738  0.22104  1.0000
  N   N22       1.0  0.99179  0.15262  0.72104  1.0000
  N   N23       1.0  0.99179  0.84738  0.77897  1.0000
  N   N24       1.0  0.50822  0.65262  0.27896  1.0000
  O   O1        1.0  0.57902  0.54797  0.60648  1.0000
  O   O2        1.0  0.92097  0.95203  0.10648  1.0000
  O   O3        1.0  0.92098  0.04798  0.39352  1.0000
  O   O4        1.0  0.57902  0.45203  0.89352  1.0000
  O   O5        1.0  0.42097  0.45203  0.39352  1.0000
  O   O6        1.0  0.07902  0.04797  0.89352  1.0000
  O   O7        1.0  0.07902  0.95203  0.60648  1.0000
  O   O8        1.0  0.42097  0.54797  0.10648  1.0000
