data_image0
_chemical_formula_structural       Sm2H24C26N6O18F8
_chemical_formula_sum              "Sm2 H24 C26 N6 O18 F8"
_cell_length_a       10.7693
_cell_length_b       10.8753
_cell_length_c       11.5602
_cell_angle_alpha    102.091
_cell_angle_beta     105.344
_cell_angle_gamma    100.633

_space_group_name_H-M_alt    "P 1"
_space_group_IT_number       1

loop_
  _space_group_symop_operation_xyz
  'x, y, z'

loop_
  _atom_site_type_symbol
  _atom_site_label
  _atom_site_symmetry_multiplicity
  _atom_site_fract_x
  _atom_site_fract_y
  _atom_site_fract_z
  _atom_site_occupancy
  Sm  Sm1       1.0  0.12096  0.38001  0.50419  1.0000
  Sm  Sm2       1.0  0.87904  0.61999  0.49581  1.0000
  H   H1        1.0  0.55454  0.60189  0.47548  1.0000
  H   H2        1.0  0.44546  0.39811  0.52451  1.0000
  H   H3        1.0  0.50427  0.72758  0.41761  1.0000
  H   H4        1.0  0.49574  0.27242  0.58239  1.0000
  H   H5        1.0  0.01887  0.95116  0.59264  1.0000
  H   H6        1.0  0.98114  0.04884  0.40737  1.0000
  H   H7        1.0  0.09615  0.01275  0.75351  1.0000
  H   H8        1.0  0.90385  0.98726  0.24650  1.0000
  H   H9        1.0  0.22648  0.32884  0.24629  1.0000
  H   H10       1.0  0.77351  0.67117  0.75370  1.0000
  H   H11       1.0  0.13134  0.22962  0.74348  1.0000
  H   H12       1.0  0.86867  0.77039  0.25652  1.0000
  H   H13       1.0  0.28795  0.65887  0.43282  1.0000
  H   H14       1.0  0.71205  0.34113  0.56717  1.0000
  H   H15       1.0  0.29543  0.07450  0.23580  1.0000
  H   H16       1.0  0.70455  0.92551  0.76421  1.0000
  H   H17       1.0  0.31293  0.17850  0.14060  1.0000
  H   H18       1.0  0.68707  0.82149  0.85941  1.0000
  H   H19       1.0  0.64806  0.33178  0.27858  1.0000
  H   H20       1.0  0.35196  0.66824  0.72141  1.0000
  H   H21       1.0  0.64216  0.16822  0.28662  1.0000
  H   H22       1.0  0.35784  0.83179  0.71337  1.0000
  H   H23       1.0  0.69014  0.22023  0.16576  1.0000
  H   H24       1.0  0.30988  0.77978  0.83424  1.0000
  C   C1        1.0  0.88723  0.45345  0.02912  1.0000
  C   C2        1.0  0.11277  0.54653  0.97088  1.0000
  C   C3        1.0  0.01341  0.51278  0.25977  1.0000
  C   C4        1.0  0.98659  0.48720  0.74022  1.0000
  C   C5        1.0  0.00712  0.50771  0.12610  1.0000
  C   C6        1.0  0.99289  0.49226  0.87389  1.0000
  C   C7        1.0  0.44175  0.41758  0.87525  1.0000
  C   C8        1.0  0.55824  0.58241  0.12477  1.0000
  C   C9        1.0  0.11963  0.55404  0.09429  1.0000
  C   C10       1.0  0.88037  0.44594  0.90571  1.0000
  C   C11       1.0  0.41661  0.37943  0.97616  1.0000
  C   C12       1.0  0.58338  0.62057  0.02386  1.0000
  C   C13       1.0  0.83896  0.28997  0.34524  1.0000
  C   C14       1.0  0.16105  0.71003  0.65476  1.0000
  C   C15       1.0  0.23548  0.24150  0.27877  1.0000
  C   C16       1.0  0.76451  0.75851  0.72124  1.0000
  C   C17       1.0  0.52678  0.54039  0.90276  1.0000
  C   C18       1.0  0.47322  0.45960  0.09725  1.0000
  C   C19       1.0  0.38258  0.33142  0.74140  1.0000
  C   C20       1.0  0.61742  0.66859  0.25861  1.0000
  C   C21       1.0  0.08305  0.14969  0.65754  1.0000
  C   C22       1.0  0.91696  0.85032  0.34246  1.0000
  C   C23       1.0  0.36347  0.60564  0.46048  1.0000
  C   C24       1.0  0.63653  0.39436  0.53951  1.0000
  C   C25       1.0  0.69560  0.25170  0.26393  1.0000
  C   C26       1.0  0.30442  0.74832  0.73606  1.0000
  N   N1        1.0  0.48428  0.65457  0.45849  1.0000
  N   N2        1.0  0.51572  0.34543  0.54150  1.0000
  N   N3        1.0  0.05982  0.03059  0.67018  1.0000
  N   N4        1.0  0.94018  0.96941  0.32983  1.0000
  N   N5        1.0  0.28102  0.15600  0.21048  1.0000
  N   N6        1.0  0.71897  0.84400  0.78952  1.0000
  O   O1        1.0  0.88103  0.39369  0.43857  1.0000
  O   O2        1.0  0.11898  0.60631  0.56143  1.0000
  O   O3        1.0  0.05050  0.17424  0.55329  1.0000
  O   O4        1.0  0.94952  0.82576  0.44671  1.0000
  O   O5        1.0  0.08695  0.44880  0.31170  1.0000
  O   O6        1.0  0.91306  0.55120  0.68830  1.0000
  O   O7        1.0  0.33341  0.50366  0.49353  1.0000
  O   O8        1.0  0.66659  0.49634  0.50645  1.0000
  O   O9        1.0  0.30367  0.37710  0.66863  1.0000
  O   O10       1.0  0.69634  0.62291  0.33138  1.0000
  O   O11       1.0  0.91771  0.22201  0.32489  1.0000
  O   O12       1.0  0.08229  0.77799  0.67511  1.0000
  O   O13       1.0  0.20382  0.22502  0.37168  1.0000
  O   O14       1.0  0.79617  0.77499  0.62831  1.0000
  O   O15       1.0  0.94369  0.57852  0.30433  1.0000
  O   O16       1.0  0.05630  0.42146  0.69566  1.0000
  O   O17       1.0  0.41829  0.22913  0.71526  1.0000
  O   O18       1.0  0.58171  0.77088  0.28475  1.0000
  F   F1        1.0  0.33201  0.26104  0.95764  1.0000
  F   F2        1.0  0.66798  0.73898  0.04238  1.0000
  F   F3        1.0  0.55818  0.58440  0.80915  1.0000
  F   F4        1.0  0.44183  0.41559  0.19086  1.0000
  F   F5        1.0  0.77504  0.40369  0.05387  1.0000
  F   F6        1.0  0.22496  0.59630  0.94612  1.0000
  F   F7        1.0  0.23880  0.61007  0.18476  1.0000
  F   F8        1.0  0.76118  0.38990  0.81522  1.0000
