data_image0
_chemical_formula_structural       Li2H10C14N4O14
_chemical_formula_sum              "Li2 H10 C14 N4 O14"
_cell_length_a       4.97604
_cell_length_b       6.03744
_cell_length_c       15.7908
_cell_angle_alpha    92.5981
_cell_angle_beta     90.0003
_cell_angle_gamma    89.9998

_space_group_name_H-M_alt    "P 1"
_space_group_IT_number       1

loop_
  _space_group_symop_operation_xyz
  'x, y, z'

loop_
  _atom_site_type_symbol
  _atom_site_label
  _atom_site_symmetry_multiplicity
  _atom_site_fract_x
  _atom_site_fract_y
  _atom_site_fract_z
  _atom_site_occupancy
  Li  Li1       1.0  0.49669  0.09754  0.04004  1.0000
  Li  Li2       1.0  0.99670  0.90247  0.95996  1.0000
  H   H1        1.0  0.49446  0.89971  0.37801  1.0000
  H   H2        1.0  0.99446  0.10030  0.62199  1.0000
  H   H3        1.0  0.04507  0.45264  0.38317  1.0000
  H   H4        1.0  0.54506  0.54735  0.61684  1.0000
  H   H5        1.0  0.17869  0.35074  0.23462  1.0000
  H   H6        1.0  0.67869  0.64926  0.76538  1.0000
  H   H7        1.0  0.51609  0.50536  0.08703  1.0000
  H   H8        1.0  0.01609  0.49465  0.91296  1.0000
  H   H9        1.0  0.29108  0.48749  0.01576  1.0000
  H   H10       1.0  0.79108  0.51251  0.98423  1.0000
  C   C1        1.0  0.01941  0.02172  0.13204  1.0000
  C   C2        1.0  0.51941  0.97828  0.86796  1.0000
  C   C3        1.0  0.91681  0.06777  0.22147  1.0000
  C   C4        1.0  0.41681  0.93223  0.77853  1.0000
  C   C5        1.0  0.72521  0.94351  0.26430  1.0000
  C   C6        1.0  0.22522  0.05649  0.73570  1.0000
  C   C7        1.0  0.63883  0.00226  0.34612  1.0000
  C   C8        1.0  0.13883  0.99774  0.65388  1.0000
  C   C9        1.0  0.75549  0.18636  0.38697  1.0000
  C   C10       1.0  0.25549  0.81363  0.61304  1.0000
  C   C11       1.0  0.95146  0.31283  0.34839  1.0000
  C   C12       1.0  0.45146  0.68716  0.65162  1.0000
  C   C13       1.0  0.02688  0.25326  0.26560  1.0000
  C   C14       1.0  0.52688  0.74674  0.73441  1.0000
  N   N1        1.0  0.61622  0.73807  0.22647  1.0000
  N   N2        1.0  0.11622  0.26193  0.77353  1.0000
  N   N3        1.0  0.67821  0.24023  0.47501  1.0000
  N   N4        1.0  0.17821  0.75976  0.52499  1.0000
  O   O1        1.0  0.85965  0.03738  0.06982  1.0000
  O   O2        1.0  0.35966  0.96263  0.93018  1.0000
  O   O3        1.0  0.26821  0.98652  0.12614  1.0000
  O   O4        1.0  0.76821  0.01348  0.87386  1.0000
  O   O5        1.0  0.46555  0.42545  0.03352  1.0000
  O   O6        1.0  0.96555  0.57455  0.96647  1.0000
  O   O7        1.0  0.73467  0.65291  0.16338  1.0000
  O   O8        1.0  0.23468  0.34710  0.83662  1.0000
  O   O9        1.0  0.41639  0.65576  0.25939  1.0000
  O   O10       1.0  0.91639  0.34425  0.74061  1.0000
  O   O11       1.0  0.83662  0.35301  0.51972  1.0000
  O   O12       1.0  0.33662  0.64699  0.48028  1.0000
  O   O13       1.0  0.46049  0.16843  0.50016  1.0000
  O   O14       1.0  0.96049  0.83157  0.49984  1.0000
