data_image0
_chemical_formula_structural       Nd4Ag4H24C48N16O32
_chemical_formula_sum              "Nd4 Ag4 H24 C48 N16 O32"
_cell_length_a       8.06767
_cell_length_b       10.1426
_cell_length_c       18.9178
_cell_angle_alpha    90
_cell_angle_beta     90
_cell_angle_gamma    95.5479

_space_group_name_H-M_alt    "P 1"
_space_group_IT_number       1

loop_
  _space_group_symop_operation_xyz
  'x, y, z'

loop_
  _atom_site_type_symbol
  _atom_site_label
  _atom_site_symmetry_multiplicity
  _atom_site_fract_x
  _atom_site_fract_y
  _atom_site_fract_z
  _atom_site_occupancy
  Nd  Nd1       1.0  0.75994  0.65043  0.39438  1.0000
  Nd  Nd2       1.0  0.74005  0.34957  0.89438  1.0000
  Nd  Nd3       1.0  0.24004  0.34956  0.60562  1.0000
  Nd  Nd4       1.0  0.25995  0.65043  0.10562  1.0000
  Ag  Ag1       1.0  0.10429  0.15760  0.42202  1.0000
  Ag  Ag2       1.0  0.39571  0.84240  0.92202  1.0000
  Ag  Ag3       1.0  0.89571  0.84240  0.57798  1.0000
  Ag  Ag4       1.0  0.60429  0.15760  0.07798  1.0000
  H   H1        1.0  0.51501  0.15369  0.41609  1.0000
  H   H2        1.0  0.98500  0.84632  0.91609  1.0000
  H   H3        1.0  0.48500  0.84632  0.58391  1.0000
  H   H4        1.0  0.01501  0.15368  0.08391  1.0000
  H   H5        1.0  0.11746  0.86039  0.42193  1.0000
  H   H6        1.0  0.38254  0.13961  0.92192  1.0000
  H   H7        1.0  0.88254  0.13961  0.57808  1.0000
  H   H8        1.0  0.61746  0.86039  0.07807  1.0000
  H   H9        1.0  0.31788  0.68474  0.41129  1.0000
  H   H10       1.0  0.18212  0.31526  0.91129  1.0000
  H   H11       1.0  0.68212  0.31526  0.58871  1.0000
  H   H12       1.0  0.81788  0.68474  0.08871  1.0000
  H   H13       1.0  0.61979  0.45428  0.12105  1.0000
  H   H14       1.0  0.88021  0.54572  0.62105  1.0000
  H   H15       1.0  0.38021  0.54573  0.87895  1.0000
  H   H16       1.0  0.11979  0.45428  0.37895  1.0000
  H   H17       1.0  0.76149  0.14540  0.24456  1.0000
  H   H18       1.0  0.73851  0.85460  0.74456  1.0000
  H   H19       1.0  0.23851  0.85460  0.75544  1.0000
  H   H20       1.0  0.26149  0.14540  0.25545  1.0000
  H   H21       1.0  0.79807  0.30059  0.34920  1.0000
  H   H22       1.0  0.70193  0.69941  0.84920  1.0000
  H   H23       1.0  0.20193  0.69941  0.65080  1.0000
  H   H24       1.0  0.29807  0.30059  0.15080  1.0000
  C   C1        1.0  0.58116  0.95133  0.40918  1.0000
  C   C2        1.0  0.91884  0.04867  0.90918  1.0000
  C   C3        1.0  0.41884  0.04866  0.59082  1.0000
  C   C4        1.0  0.08116  0.95133  0.09082  1.0000
  C   C5        1.0  0.47061  0.04871  0.41444  1.0000
  C   C6        1.0  0.02939  0.95129  0.91444  1.0000
  C   C7        1.0  0.52939  0.95129  0.58556  1.0000
  C   C8        1.0  0.97061  0.04871  0.08556  1.0000
  C   C9        1.0  0.25103  0.88613  0.41814  1.0000
  C   C10       1.0  0.24897  0.11388  0.91813  1.0000
  C   C11       1.0  0.74897  0.11387  0.58186  1.0000
  C   C12       1.0  0.75103  0.88613  0.08186  1.0000
  C   C13       1.0  0.36199  0.78953  0.41231  1.0000
  C   C14       1.0  0.13801  0.21047  0.91230  1.0000
  C   C15       1.0  0.63801  0.21047  0.58770  1.0000
  C   C16       1.0  0.86200  0.78953  0.08770  1.0000
  C   C17       1.0  0.76769  0.98412  0.40806  1.0000
  C   C18       1.0  0.73232  0.01588  0.90806  1.0000
  C   C19       1.0  0.23232  0.01586  0.59194  1.0000
  C   C20       1.0  0.26769  0.98413  0.09194  1.0000
  C   C21       1.0  0.66645  0.50165  0.23068  1.0000
  C   C22       1.0  0.83355  0.49835  0.73068  1.0000
  C   C23       1.0  0.33356  0.49835  0.76932  1.0000
  C   C24       1.0  0.16644  0.50165  0.26932  1.0000
  C   C25       1.0  0.65731  0.41813  0.17200  1.0000
  C   C26       1.0  0.84270  0.58187  0.67200  1.0000
  C   C27       1.0  0.34270  0.58187  0.82800  1.0000
  C   C28       1.0  0.15731  0.41814  0.32800  1.0000
  C   C29       1.0  0.73820  0.24936  0.23985  1.0000
  C   C30       1.0  0.76181  0.75065  0.73985  1.0000
  C   C31       1.0  0.26180  0.75065  0.76015  1.0000
  C   C32       1.0  0.23820  0.24935  0.26015  1.0000
  C   C33       1.0  0.75738  0.33458  0.29795  1.0000
  C   C34       1.0  0.74262  0.66542  0.79795  1.0000
  C   C35       1.0  0.24262  0.66542  0.70205  1.0000
  C   C36       1.0  0.25738  0.33458  0.20205  1.0000
  C   C37       1.0  0.60651  0.63849  0.22759  1.0000
  C   C38       1.0  0.89350  0.36151  0.72759  1.0000
  C   C39       1.0  0.39350  0.36152  0.77241  1.0000
  C   C40       1.0  0.10650  0.63849  0.27241  1.0000
  C   C41       1.0  0.95663  0.43224  0.48718  1.0000
  C   C42       1.0  0.54336  0.56776  0.98719  1.0000
  C   C43       1.0  0.04335  0.56776  0.51281  1.0000
  C   C44       1.0  0.45664  0.43225  0.01281  1.0000
  C   C45       1.0  0.54323  0.53802  0.53197  1.0000
  C   C46       1.0  0.95677  0.46197  0.03198  1.0000
  C   C47       1.0  0.45676  0.46196  0.46802  1.0000
  C   C48       1.0  0.04323  0.53803  0.96802  1.0000
  N   N1        1.0  0.52610  0.82175  0.40848  1.0000
  N   N2        1.0  0.97390  0.17825  0.90848  1.0000
  N   N3        1.0  0.47390  0.17824  0.59152  1.0000
  N   N4        1.0  0.02611  0.82175  0.09152  1.0000
  N   N5        1.0  0.30550  0.01550  0.41955  1.0000
  N   N6        1.0  0.19451  0.98450  0.91955  1.0000
  N   N7        1.0  0.69451  0.98450  0.58045  1.0000
  N   N8        1.0  0.80550  0.01550  0.08044  1.0000
  N   N9        1.0  0.72271  0.46101  0.29303  1.0000
  N   N10       1.0  0.77729  0.53899  0.79303  1.0000
  N   N11       1.0  0.27729  0.53899  0.70697  1.0000
  N   N12       1.0  0.22271  0.46101  0.20697  1.0000
  N   N13       1.0  0.69118  0.29180  0.17639  1.0000
  N   N14       1.0  0.80882  0.70820  0.67639  1.0000
  N   N15       1.0  0.30882  0.70820  0.82361  1.0000
  N   N16       1.0  0.19119  0.29180  0.32361  1.0000
  O   O1        1.0  0.85517  0.88600  0.40934  1.0000
  O   O2        1.0  0.64483  0.11399  0.90934  1.0000
  O   O3        1.0  0.14483  0.11398  0.59066  1.0000
  O   O4        1.0  0.35517  0.88601  0.09066  1.0000
  O   O5        1.0  0.82107  0.10517  0.40783  1.0000
  O   O6        1.0  0.67894  0.89483  0.90783  1.0000
  O   O7        1.0  0.17894  0.89482  0.59217  1.0000
  O   O8        1.0  0.32107  0.10517  0.09217  1.0000
  O   O9        1.0  0.64434  0.71470  0.27925  1.0000
  O   O10       1.0  0.85566  0.28530  0.77925  1.0000
  O   O11       1.0  0.35566  0.28530  0.72075  1.0000
  O   O12       1.0  0.14433  0.71470  0.22075  1.0000
  O   O13       1.0  0.52041  0.66399  0.17410  1.0000
  O   O14       1.0  0.97960  0.33601  0.67410  1.0000
  O   O15       1.0  0.47960  0.33602  0.82590  1.0000
  O   O16       1.0  0.02040  0.66399  0.32590  1.0000
  O   O17       1.0  0.84185  0.43613  0.44197  1.0000
  O   O18       1.0  0.65815  0.56387  0.94197  1.0000
  O   O19       1.0  0.15815  0.56387  0.55803  1.0000
  O   O20       1.0  0.34185  0.43614  0.05803  1.0000
  O   O21       1.0  0.00962  0.32895  0.51325  1.0000
  O   O22       1.0  0.49037  0.67105  0.01326  1.0000
  O   O23       1.0  0.99037  0.67104  0.48674  1.0000
  O   O24       1.0  0.50963  0.32896  0.98675  1.0000
  O   O25       1.0  0.64632  0.63640  0.51736  1.0000
  O   O26       1.0  0.85368  0.36359  0.01736  1.0000
  O   O27       1.0  0.35366  0.36358  0.48264  1.0000
  O   O28       1.0  0.14632  0.63642  0.98264  1.0000
  O   O29       1.0  0.50500  0.49441  0.59321  1.0000
  O   O30       1.0  0.99500  0.50559  0.09321  1.0000
  O   O31       1.0  0.49498  0.50558  0.40679  1.0000
  O   O32       1.0  0.00500  0.49442  0.90679  1.0000
