data_image0
_chemical_formula_structural       Cd2H8C8S8N12
_chemical_formula_sum              "Cd2 H8 C8 S8 N12"
_cell_length_a       7.94897
_cell_length_b       8.12776
_cell_length_c       8.12766
_cell_angle_alpha    82.6399
_cell_angle_beta     87.6568
_cell_angle_gamma    87.6564

_space_group_name_H-M_alt    "P 1"
_space_group_IT_number       1

loop_
  _space_group_symop_operation_xyz
  'x, y, z'

loop_
  _atom_site_type_symbol
  _atom_site_label
  _atom_site_symmetry_multiplicity
  _atom_site_fract_x
  _atom_site_fract_y
  _atom_site_fract_z
  _atom_site_occupancy
  Cd  Cd1       1.0  0.25000  0.08395  0.91605  1.0000
  Cd  Cd2       1.0  0.75000  0.91605  0.08395  1.0000
  H   H1        1.0  0.12042  0.37943  0.50388  1.0000
  H   H2        1.0  0.37958  0.49612  0.62056  1.0000
  H   H3        1.0  0.87958  0.62056  0.49612  1.0000
  H   H4        1.0  0.62042  0.50388  0.37944  1.0000
  H   H5        1.0  0.28030  0.31726  0.36432  1.0000
  H   H6        1.0  0.21970  0.63568  0.68274  1.0000
  H   H7        1.0  0.71970  0.68274  0.63568  1.0000
  H   H8        1.0  0.78030  0.36432  0.31726  1.0000
  C   C1        1.0  0.08085  0.71695  0.03170  1.0000
  C   C2        1.0  0.41915  0.96829  0.28304  1.0000
  C   C3        1.0  0.91915  0.28304  0.96829  1.0000
  C   C4        1.0  0.58085  0.03171  0.71695  1.0000
  C   C5        1.0  0.12321  0.50649  0.26933  1.0000
  C   C6        1.0  0.37679  0.73067  0.49350  1.0000
  C   C7        1.0  0.87680  0.49351  0.73067  1.0000
  C   C8        1.0  0.62321  0.26933  0.50650  1.0000
  S   S1        1.0  0.07333  0.84856  0.84791  1.0000
  S   S2        1.0  0.42667  0.15209  0.15145  1.0000
  S   S3        1.0  0.92667  0.15144  0.15209  1.0000
  S   S4        1.0  0.57333  0.84791  0.84856  1.0000
  S   S5        1.0  0.23844  0.56446  0.08355  1.0000
  S   S6        1.0  0.26156  0.91645  0.43554  1.0000
  S   S7        1.0  0.76157  0.43554  0.91645  1.0000
  S   S8        1.0  0.73844  0.08355  0.56446  1.0000
  N   N1        1.0  0.96153  0.71552  0.14960  1.0000
  N   N2        1.0  0.53847  0.85040  0.28448  1.0000
  N   N3        1.0  0.03847  0.28447  0.85040  1.0000
  N   N4        1.0  0.46153  0.14960  0.71553  1.0000
  N   N5        1.0  0.98280  0.59941  0.28447  1.0000
  N   N6        1.0  0.51719  0.71554  0.40059  1.0000
  N   N7        1.0  0.01720  0.40059  0.71554  1.0000
  N   N8        1.0  0.48280  0.28446  0.59941  1.0000
  N   N9        1.0  0.17153  0.38305  0.38426  1.0000
  N   N10       1.0  0.32846  0.61574  0.61696  1.0000
  N   N11       1.0  0.82847  0.61695  0.61574  1.0000
  N   N12       1.0  0.67153  0.38426  0.38304  1.0000
