data_image0
_chemical_formula_structural       Zn4H16C36N8O16
_chemical_formula_sum              "Zn4 H16 C36 N8 O16"
_cell_length_a       6.22474
_cell_length_b       8.44164
_cell_length_c       17.9073
_cell_angle_alpha    89.9995
_cell_angle_beta     95.0342
_cell_angle_gamma    90.0004

_space_group_name_H-M_alt    "P 1"
_space_group_IT_number       1

loop_
  _space_group_symop_operation_xyz
  'x, y, z'

loop_
  _atom_site_type_symbol
  _atom_site_label
  _atom_site_symmetry_multiplicity
  _atom_site_fract_x
  _atom_site_fract_y
  _atom_site_fract_z
  _atom_site_occupancy
  Zn  Zn1       1.0  0.17259  0.97680  0.81127  1.0000
  Zn  Zn2       1.0  0.32741  0.47680  0.68872  1.0000
  Zn  Zn3       1.0  0.82739  0.02320  0.18873  1.0000
  Zn  Zn4       1.0  0.67261  0.52320  0.31128  1.0000
  H   H1        1.0  0.41769  0.25172  0.21299  1.0000
  H   H2        1.0  0.08232  0.75172  0.28701  1.0000
  H   H3        1.0  0.58230  0.74828  0.78701  1.0000
  H   H4        1.0  0.91770  0.24828  0.71299  1.0000
  H   H5        1.0  0.20857  0.39382  0.94169  1.0000
  H   H6        1.0  0.29143  0.89383  0.55831  1.0000
  H   H7        1.0  0.79142  0.60619  0.05832  1.0000
  H   H8        1.0  0.70859  0.10617  0.44169  1.0000
  H   H9        1.0  0.86501  0.05864  0.01113  1.0000
  H   H10       1.0  0.63499  0.55865  0.48887  1.0000
  H   H11       1.0  0.13497  0.94136  0.98887  1.0000
  H   H12       1.0  0.36502  0.44135  0.51113  1.0000
  H   H13       1.0  0.20375  0.38569  0.10747  1.0000
  H   H14       1.0  0.29626  0.88569  0.39253  1.0000
  H   H15       1.0  0.79624  0.61432  0.89254  1.0000
  H   H16       1.0  0.70376  0.11431  0.60747  1.0000
  C   C1        1.0  0.45242  0.24097  0.15466  1.0000
  C   C2        1.0  0.04759  0.74096  0.34534  1.0000
  C   C3        1.0  0.54757  0.75903  0.84534  1.0000
  C   C4        1.0  0.95243  0.25903  0.65466  1.0000
  C   C5        1.0  0.59643  0.18526  0.05086  1.0000
  C   C6        1.0  0.90358  0.68527  0.44914  1.0000
  C   C7        1.0  0.40356  0.81474  0.94914  1.0000
  C   C8        1.0  0.09644  0.31473  0.55086  1.0000
  C   C9        1.0  0.41366  0.28141  0.03135  1.0000
  C   C10       1.0  0.08634  0.78141  0.46865  1.0000
  C   C11       1.0  0.58633  0.71859  0.96865  1.0000
  C   C12       1.0  0.91367  0.21859  0.53135  1.0000
  C   C13       1.0  0.35082  0.32153  0.95701  1.0000
  C   C14       1.0  0.14919  0.82154  0.54299  1.0000
  C   C15       1.0  0.64917  0.67847  0.04300  1.0000
  C   C16       1.0  0.85082  0.17847  0.45700  1.0000
  C   C17       1.0  0.66259  0.17017  0.92141  1.0000
  C   C18       1.0  0.83741  0.67017  0.57859  1.0000
  C   C19       1.0  0.33739  0.82983  0.07859  1.0000
  C   C20       1.0  0.16260  0.32983  0.42141  1.0000
  C   C21       1.0  0.72316  0.13068  0.99600  1.0000
  C   C22       1.0  0.77684  0.63068  0.50399  1.0000
  C   C23       1.0  0.27682  0.86932  0.00400  1.0000
  C   C24       1.0  0.22317  0.36931  0.49600  1.0000
  C   C25       1.0  0.47586  0.26319  0.90206  1.0000
  C   C26       1.0  0.02415  0.76320  0.59794  1.0000
  C   C27       1.0  0.52413  0.73681  0.09795  1.0000
  C   C28       1.0  0.97587  0.23681  0.40206  1.0000
  C   C29       1.0  0.79899  0.11729  0.86086  1.0000
  C   C30       1.0  0.70101  0.61729  0.63914  1.0000
  C   C31       1.0  0.20098  0.88271  0.13914  1.0000
  C   C32       1.0  0.29902  0.38271  0.36086  1.0000
  C   C33       1.0  0.39875  0.29344  0.82116  1.0000
  C   C34       1.0  0.10125  0.79344  0.67884  1.0000
  C   C35       1.0  0.60124  0.70657  0.17885  1.0000
  C   C36       1.0  0.89876  0.20656  0.32116  1.0000
  N   N1        1.0  0.61451  0.16191  0.12842  1.0000
  N   N2        1.0  0.88550  0.66191  0.37158  1.0000
  N   N3        1.0  0.38548  0.83809  0.87158  1.0000
  N   N4        1.0  0.11452  0.33809  0.62842  1.0000
  N   N5        1.0  0.32902  0.31350  0.09857  1.0000
  N   N6        1.0  0.17099  0.81351  0.40143  1.0000
  N   N7        1.0  0.67097  0.68650  0.90143  1.0000
  N   N8        1.0  0.82903  0.18649  0.59857  1.0000
  O   O1        1.0  0.76130  0.17216  0.79631  1.0000
  O   O2        1.0  0.73870  0.67216  0.70369  1.0000
  O   O3        1.0  0.23867  0.82784  0.20369  1.0000
  O   O4        1.0  0.26132  0.32783  0.29631  1.0000
  O   O5        1.0  0.95193  0.01730  0.88140  1.0000
  O   O6        1.0  0.54807  0.51731  0.61860  1.0000
  O   O7        1.0  0.04805  0.98270  0.11859  1.0000
  O   O8        1.0  0.45195  0.48269  0.38140  1.0000
  O   O9        1.0  0.42870  0.43107  0.79474  1.0000
  O   O10       1.0  0.07130  0.93107  0.70526  1.0000
  O   O11       1.0  0.57130  0.56893  0.20526  1.0000
  O   O12       1.0  0.92869  0.06893  0.29474  1.0000
  O   O13       1.0  0.29011  0.18755  0.78429  1.0000
  O   O14       1.0  0.20989  0.68755  0.71571  1.0000
  O   O15       1.0  0.70987  0.81246  0.21571  1.0000
  O   O16       1.0  0.79013  0.31246  0.28429  1.0000
