data_image0
_chemical_formula_structural       Ni4H48C32O28
_chemical_formula_sum              "Ni4 H48 C32 O28"
_cell_length_a       8.70391
_cell_length_b       10.7389
_cell_length_c       10.9145
_cell_angle_alpha    107.55
_cell_angle_beta     90
_cell_angle_gamma    90

_space_group_name_H-M_alt    "P 1"
_space_group_IT_number       1

loop_
  _space_group_symop_operation_xyz
  'x, y, z'

loop_
  _atom_site_type_symbol
  _atom_site_label
  _atom_site_symmetry_multiplicity
  _atom_site_fract_x
  _atom_site_fract_y
  _atom_site_fract_z
  _atom_site_occupancy
  Ni  Ni1       1.0  0.22326  0.71070  0.60003  1.0000
  Ni  Ni2       1.0  0.72423  0.78883  0.39984  1.0000
  Ni  Ni3       1.0  0.77622  0.28895  0.39989  1.0000
  Ni  Ni4       1.0  0.27600  0.21087  0.60016  1.0000
  H   H1        1.0  0.28217  0.79770  0.22803  1.0000
  H   H2        1.0  0.78148  0.70242  0.77184  1.0000
  H   H3        1.0  0.71807  0.20235  0.77215  1.0000
  H   H4        1.0  0.21819  0.29792  0.22808  1.0000
  H   H5        1.0  0.50718  0.98603  0.33043  1.0000
  H   H6        1.0  0.00593  0.51372  0.67005  1.0000
  H   H7        1.0  0.49331  0.01385  0.67005  1.0000
  H   H8        1.0  0.99331  0.48620  0.33021  1.0000
  H   H9        1.0  0.54437  0.00450  0.11251  1.0000
  H   H10       1.0  0.04269  0.49563  0.88828  1.0000
  H   H11       1.0  0.45679  0.99568  0.88826  1.0000
  H   H12       1.0  0.95679  0.50468  0.11216  1.0000
  H   H13       1.0  0.36249  0.92555  0.09450  1.0000
  H   H14       1.0  0.86127  0.57509  0.90595  1.0000
  H   H15       1.0  0.63827  0.07488  0.90581  1.0000
  H   H16       1.0  0.13821  0.42530  0.09438  1.0000
  H   H17       1.0  0.48307  0.72727  0.95550  1.0000
  H   H18       1.0  0.98230  0.77322  0.04461  1.0000
  H   H19       1.0  0.51754  0.27308  0.04469  1.0000
  H   H20       1.0  0.01716  0.22737  0.95526  1.0000
  H   H21       1.0  0.65861  0.81314  0.97405  1.0000
  H   H22       1.0  0.15759  0.68707  0.02626  1.0000
  H   H23       1.0  0.34219  0.18712  0.02640  1.0000
  H   H24       1.0  0.84181  0.31343  0.97399  1.0000
  H   H25       1.0  0.71867  0.66016  0.09781  1.0000
  H   H26       1.0  0.21814  0.83966  0.90208  1.0000
  H   H27       1.0  0.28165  0.33983  0.90243  1.0000
  H   H28       1.0  0.78177  0.16027  0.09763  1.0000
  H   H29       1.0  0.40350  0.60712  0.09840  1.0000
  H   H30       1.0  0.90290  0.89290  0.90164  1.0000
  H   H31       1.0  0.59679  0.39305  0.90160  1.0000
  H   H32       1.0  0.09705  0.10737  0.09810  1.0000
  H   H33       1.0  0.47999  0.66767  0.70431  1.0000
  H   H34       1.0  0.97986  0.83254  0.29426  1.0000
  H   H35       1.0  0.51989  0.33240  0.29525  1.0000
  H   H36       1.0  0.01967  0.16743  0.70493  1.0000
  H   H37       1.0  0.50340  0.76975  0.62479  1.0000
  H   H38       1.0  0.00526  0.73045  0.37352  1.0000
  H   H39       1.0  0.49567  0.23036  0.37482  1.0000
  H   H40       1.0  0.99537  0.26941  0.62533  1.0000
  H   H41       1.0  0.32066  0.47241  0.56584  1.0000
  H   H42       1.0  0.82125  0.02742  0.43393  1.0000
  H   H43       1.0  0.67897  0.52737  0.43486  1.0000
  H   H44       1.0  0.17877  0.97236  0.56554  1.0000
  H   H45       1.0  0.34967  0.50578  0.43115  1.0000
  H   H46       1.0  0.85017  0.99427  0.56884  1.0000
  H   H47       1.0  0.65040  0.49376  0.56954  1.0000
  H   H48       1.0  0.15048  0.00596  0.43087  1.0000
  C   C1        1.0  0.39842  0.78899  0.26304  1.0000
  C   C2        1.0  0.89780  0.71099  0.73695  1.0000
  C   C3        1.0  0.60184  0.21098  0.73709  1.0000
  C   C4        1.0  0.10191  0.28913  0.26297  1.0000
  C   C5        1.0  0.50504  0.89766  0.24797  1.0000
  C   C6        1.0  0.00407  0.60227  0.75233  1.0000
  C   C7        1.0  0.49539  0.10233  0.75237  1.0000
  C   C8        1.0  0.99539  0.39777  0.24783  1.0000
  C   C9        1.0  0.48442  0.91578  0.11559  1.0000
  C   C10       1.0  0.98326  0.58447  0.88484  1.0000
  C   C11       1.0  0.51629  0.08446  0.88481  1.0000
  C   C12       1.0  0.01622  0.41579  0.11543  1.0000
  C   C13       1.0  0.56099  0.78971  0.02681  1.0000
  C   C14       1.0  0.06012  0.71052  0.97341  1.0000
  C   C15       1.0  0.43961  0.21053  0.97347  1.0000
  C   C16       1.0  0.93940  0.28986  0.02667  1.0000
  C   C17       1.0  0.61699  0.72238  0.12440  1.0000
  C   C18       1.0  0.11633  0.77754  0.87565  1.0000
  C   C19       1.0  0.38339  0.27768  0.87583  1.0000
  C   C20       1.0  0.88344  0.22251  0.12423  1.0000
  C   C21       1.0  0.48052  0.66095  0.17580  1.0000
  C   C22       1.0  0.97992  0.83903  0.82423  1.0000
  C   C23       1.0  0.51972  0.33908  0.82427  1.0000
  C   C24       1.0  0.01997  0.16109  0.17555  1.0000
  C   C25       1.0  0.38695  0.78762  0.40117  1.0000
  C   C26       1.0  0.88674  0.71212  0.59871  1.0000
  C   C27       1.0  0.61312  0.21213  0.59887  1.0000
  C   C28       1.0  0.11309  0.28770  0.40113  1.0000
  C   C29       1.0  0.52856  0.56907  0.25296  1.0000
  C   C30       1.0  0.02787  0.93087  0.74713  1.0000
  C   C31       1.0  0.47159  0.43074  0.74700  1.0000
  C   C32       1.0  0.97186  0.06910  0.25250  1.0000
  O   O1        1.0  0.43792  0.74821  0.68981  1.0000
  O   O2        1.0  0.93844  0.75207  0.30946  1.0000
  O   O3        1.0  0.56173  0.25198  0.31022  1.0000
  O   O4        1.0  0.06153  0.24780  0.68987  1.0000
  O   O5        1.0  0.26117  0.74615  0.43288  1.0000
  O   O6        1.0  0.76122  0.75385  0.56691  1.0000
  O   O7        1.0  0.73892  0.25340  0.56704  1.0000
  O   O8        1.0  0.23869  0.24601  0.43285  1.0000
  O   O9        1.0  0.28437  0.52307  0.50764  1.0000
  O   O10       1.0  0.78540  0.97645  0.49200  1.0000
  O   O11       1.0  0.71541  0.47661  0.49288  1.0000
  O   O12       1.0  0.21539  0.02315  0.50756  1.0000
  O   O13       1.0  0.44512  0.47190  0.25015  1.0000
  O   O14       1.0  0.94479  0.02833  0.75029  1.0000
  O   O15       1.0  0.55502  0.52784  0.74954  1.0000
  O   O16       1.0  0.05493  0.97163  0.24932  1.0000
  O   O17       1.0  0.50285  0.82165  0.47511  1.0000
  O   O18       1.0  0.00247  0.67754  0.52474  1.0000
  O   O19       1.0  0.49726  0.17803  0.52494  1.0000
  O   O20       1.0  0.99726  0.32192  0.47509  1.0000
  O   O21       1.0  0.65169  0.59866  0.32082  1.0000
  O   O22       1.0  0.15066  0.90089  0.67886  1.0000
  O   O23       1.0  0.34831  0.40107  0.67933  1.0000
  O   O24       1.0  0.84884  0.09888  0.32053  1.0000
  O   O25       1.0  0.65672  0.83479  0.23476  1.0000
  O   O26       1.0  0.15590  0.66494  0.76537  1.0000
  O   O27       1.0  0.34365  0.16517  0.76551  1.0000
  O   O28       1.0  0.84368  0.33488  0.23464  1.0000
