data_image0
_chemical_formula_structural       Cu4H28C20O28
_chemical_formula_sum              "Cu4 H28 C20 O28"
_cell_length_a       9.36211
_cell_length_b       10.8097
_cell_length_c       10.8099
_cell_angle_alpha    111.869
_cell_angle_beta     105.634
_cell_angle_gamma    105.633

_space_group_name_H-M_alt    "P 1"
_space_group_IT_number       1

loop_
  _space_group_symop_operation_xyz
  'x, y, z'

loop_
  _atom_site_type_symbol
  _atom_site_label
  _atom_site_symmetry_multiplicity
  _atom_site_fract_x
  _atom_site_fract_y
  _atom_site_fract_z
  _atom_site_occupancy
  Cu  Cu1       1.0  0.64577  0.20054  0.32892  1.0000
  Cu  Cu2       1.0  0.85424  0.67107  0.79947  1.0000
  Cu  Cu3       1.0  0.35423  0.79946  0.67107  1.0000
  Cu  Cu4       1.0  0.14576  0.32893  0.20053  1.0000
  H   H1        1.0  0.79181  0.92860  0.50799  1.0000
  H   H2        1.0  0.70821  0.49201  0.07142  1.0000
  H   H3        1.0  0.20819  0.07140  0.49200  1.0000
  H   H4        1.0  0.29180  0.50799  0.92859  1.0000
  H   H5        1.0  0.39377  0.14467  0.11296  1.0000
  H   H6        1.0  0.10624  0.88704  0.85533  1.0000
  H   H7        1.0  0.60623  0.85533  0.88704  1.0000
  H   H8        1.0  0.89377  0.11296  0.14467  1.0000
  H   H9        1.0  0.41145  0.99304  0.08950  1.0000
  H   H10       1.0  0.08855  0.91049  0.00695  1.0000
  H   H11       1.0  0.58854  0.00696  0.91050  1.0000
  H   H12       1.0  0.91146  0.08951  0.99304  1.0000
  H   H13       1.0  0.95908  0.33256  0.44850  1.0000
  H   H14       1.0  0.54093  0.55150  0.66744  1.0000
  H   H15       1.0  0.04092  0.66743  0.55150  1.0000
  H   H16       1.0  0.45908  0.44850  0.33256  1.0000
  H   H17       1.0  0.89658  0.37514  0.58105  1.0000
  H   H18       1.0  0.60343  0.41896  0.62485  1.0000
  H   H19       1.0  0.10342  0.62485  0.41895  1.0000
  H   H20       1.0  0.39658  0.58104  0.37515  1.0000
  H   H21       1.0  0.43271  0.21649  0.45106  1.0000
  H   H22       1.0  0.06728  0.54893  0.78351  1.0000
  H   H23       1.0  0.56729  0.78352  0.54894  1.0000
  H   H24       1.0  0.93271  0.45107  0.21649  1.0000
  H   H25       1.0  0.54140  0.17931  0.56310  1.0000
  H   H26       1.0  0.95858  0.43689  0.82068  1.0000
  H   H27       1.0  0.45858  0.82068  0.43690  1.0000
  H   H28       1.0  0.04141  0.56310  0.17932  1.0000
  C   C1        1.0  0.75763  0.83872  0.28243  1.0000
  C   C2        1.0  0.74239  0.71757  0.16125  1.0000
  C   C3        1.0  0.24237  0.16127  0.71756  1.0000
  C   C4        1.0  0.25761  0.28243  0.83873  1.0000
  C   C5        1.0  0.77142  0.83226  0.41123  1.0000
  C   C6        1.0  0.72860  0.58879  0.16775  1.0000
  C   C7        1.0  0.22858  0.16774  0.58876  1.0000
  C   C8        1.0  0.27140  0.41122  0.83225  1.0000
  C   C9        1.0  0.76401  0.70499  0.42019  1.0000
  C   C10       1.0  0.73601  0.57985  0.29505  1.0000
  C   C11       1.0  0.23599  0.29502  0.57982  1.0000
  C   C12       1.0  0.26400  0.42015  0.70496  1.0000
  C   C13       1.0  0.76074  0.97461  0.27315  1.0000
  C   C14       1.0  0.73929  0.72685  0.02541  1.0000
  C   C15       1.0  0.23926  0.02539  0.72685  1.0000
  C   C16       1.0  0.26072  0.27315  0.97459  1.0000
  C   C17       1.0  0.78785  0.71221  0.56565  1.0000
  C   C18       1.0  0.71215  0.43435  0.28781  1.0000
  C   C19       1.0  0.21214  0.28780  0.43435  1.0000
  C   C20       1.0  0.28785  0.56566  0.71220  1.0000
  O   O1        1.0  0.86534  0.03570  0.23854  1.0000
  O   O2        1.0  0.63471  0.76146  0.96430  1.0000
  O   O3        1.0  0.13468  0.96430  0.76147  1.0000
  O   O4        1.0  0.36531  0.23854  0.03570  1.0000
  O   O5        1.0  0.65027  0.01321  0.30290  1.0000
  O   O6        1.0  0.84973  0.69710  0.98680  1.0000
  O   O7        1.0  0.34973  0.98678  0.69709  1.0000
  O   O8        1.0  0.15026  0.30290  0.01320  1.0000
  O   O9        1.0  0.72389  0.77938  0.64020  1.0000
  O   O10       1.0  0.77613  0.35981  0.22064  1.0000
  O   O11       1.0  0.27611  0.22064  0.35980  1.0000
  O   O12       1.0  0.22387  0.64019  0.77936  1.0000
  O   O13       1.0  0.87594  0.65222  0.61205  1.0000
  O   O14       1.0  0.62405  0.38797  0.34781  1.0000
  O   O15       1.0  0.12405  0.34779  0.38795  1.0000
  O   O16       1.0  0.37596  0.61204  0.65221  1.0000
  O   O17       1.0  0.42442  0.08653  0.16271  1.0000
  O   O18       1.0  0.07560  0.83729  0.91347  1.0000
  O   O19       1.0  0.57558  0.91347  0.83729  1.0000
  O   O20       1.0  0.92441  0.16272  0.08653  1.0000
  O   O21       1.0  0.87229  0.30085  0.48017  1.0000
  O   O22       1.0  0.62771  0.51983  0.69915  1.0000
  O   O23       1.0  0.12771  0.69914  0.51983  1.0000
  O   O24       1.0  0.37229  0.48016  0.30085  1.0000
  O   O25       1.0  0.54924  0.23925  0.51472  1.0000
  O   O26       1.0  0.95076  0.48527  0.76074  1.0000
  O   O27       1.0  0.45076  0.76075  0.48528  1.0000
  O   O28       1.0  0.04924  0.51472  0.23925  1.0000
