data_image0
_chemical_formula_structural       Cu4H28C20O28
_chemical_formula_sum              "Cu4 H28 C20 O28"
_cell_length_a       9.37098
_cell_length_b       10.8191
_cell_length_c       10.8191
_cell_angle_alpha    111.732
_cell_angle_beta     105.531
_cell_angle_gamma    105.532

_space_group_name_H-M_alt    "P 1"
_space_group_IT_number       1

loop_
  _space_group_symop_operation_xyz
  'x, y, z'

loop_
  _atom_site_type_symbol
  _atom_site_label
  _atom_site_symmetry_multiplicity
  _atom_site_fract_x
  _atom_site_fract_y
  _atom_site_fract_z
  _atom_site_occupancy
  Cu  Cu1       1.0  0.35250  0.29756  0.17061  1.0000
  Cu  Cu2       1.0  0.14751  0.82939  0.70243  1.0000
  Cu  Cu3       1.0  0.64750  0.70244  0.82939  1.0000
  Cu  Cu4       1.0  0.85249  0.17061  0.29758  1.0000
  H   H1        1.0  0.45683  0.31876  0.93572  1.0000
  H   H2        1.0  0.04318  0.06429  0.68125  1.0000
  H   H3        1.0  0.54317  0.68124  0.06428  1.0000
  H   H4        1.0  0.95682  0.93571  0.31875  1.0000
  H   H5        1.0  0.04008  0.16723  0.05146  1.0000
  H   H6        1.0  0.45992  0.94854  0.83277  1.0000
  H   H7        1.0  0.95992  0.83278  0.94853  1.0000
  H   H8        1.0  0.54008  0.05146  0.16723  1.0000
  H   H9        1.0  0.10332  0.12502  0.91954  1.0000
  H   H10       1.0  0.39668  0.08046  0.87498  1.0000
  H   H11       1.0  0.89668  0.87499  0.08046  1.0000
  H   H12       1.0  0.60332  0.91954  0.12502  1.0000
  H   H13       1.0  0.20827  0.57131  0.99352  1.0000
  H   H14       1.0  0.29174  0.00644  0.42866  1.0000
  H   H15       1.0  0.79174  0.42869  0.00647  1.0000
  H   H16       1.0  0.70828  0.99356  0.57134  1.0000
  H   H17       1.0  0.56620  0.28239  0.04780  1.0000
  H   H18       1.0  0.93380  0.95220  0.71761  1.0000
  H   H19       1.0  0.43380  0.71760  0.95220  1.0000
  H   H20       1.0  0.06619  0.04779  0.28239  1.0000
  H   H21       1.0  0.60421  0.35335  0.38539  1.0000
  H   H22       1.0  0.89577  0.61463  0.64665  1.0000
  H   H23       1.0  0.39579  0.64665  0.61462  1.0000
  H   H24       1.0  0.10422  0.38538  0.35335  1.0000
  H   H25       1.0  0.58428  0.50370  0.40677  1.0000
  H   H26       1.0  0.91570  0.59323  0.49628  1.0000
  H   H27       1.0  0.41571  0.49629  0.59323  1.0000
  H   H28       1.0  0.08429  0.40677  0.50372  1.0000
  C   C1        1.0  0.23845  0.52465  0.22760  1.0000
  C   C2        1.0  0.26158  0.77239  0.47535  1.0000
  C   C3        1.0  0.76155  0.47536  0.77239  1.0000
  C   C4        1.0  0.73842  0.22760  0.52465  1.0000
  C   C5        1.0  0.24226  0.66060  0.21850  1.0000
  C   C6        1.0  0.25775  0.78149  0.33937  1.0000
  C   C7        1.0  0.75775  0.33940  0.78152  1.0000
  C   C8        1.0  0.74227  0.21853  0.66065  1.0000
  C   C9        1.0  0.22877  0.66731  0.09001  1.0000
  C   C10       1.0  0.27124  0.90998  0.33265  1.0000
  C   C11       1.0  0.77125  0.33268  0.91001  1.0000
  C   C12       1.0  0.72876  0.09003  0.66734  1.0000
  C   C13       1.0  0.23606  0.79442  0.08086  1.0000
  C   C14       1.0  0.26390  0.91910  0.20554  1.0000
  C   C15       1.0  0.76392  0.20556  0.91912  1.0000
  C   C16       1.0  0.73609  0.08089  0.79444  1.0000
  C   C17       1.0  0.21256  0.78771  0.93578  1.0000
  C   C18       1.0  0.28745  0.06420  0.21230  1.0000
  C   C19       1.0  0.78746  0.21231  0.06422  1.0000
  C   C20       1.0  0.71255  0.93580  0.78771  1.0000
  O   O1        1.0  0.44975  0.25897  0.98428  1.0000
  O   O2        1.0  0.05025  0.01572  0.74102  1.0000
  O   O3        1.0  0.55025  0.74102  0.01572  1.0000
  O   O4        1.0  0.94975  0.98428  0.25897  1.0000
  O   O5        1.0  0.12728  0.19876  0.02018  1.0000
  O   O6        1.0  0.37272  0.97982  0.80124  1.0000
  O   O7        1.0  0.87272  0.80126  0.97982  1.0000
  O   O8        1.0  0.62729  0.02018  0.19877  1.0000
  O   O9        1.0  0.57313  0.41081  0.33475  1.0000
  O   O10       1.0  0.92687  0.66526  0.58918  1.0000
  O   O11       1.0  0.42687  0.58918  0.66526  1.0000
  O   O12       1.0  0.07313  0.33475  0.41082  1.0000
  O   O13       1.0  0.34822  0.48510  0.19766  1.0000
  O   O14       1.0  0.15179  0.80233  0.51488  1.0000
  O   O15       1.0  0.65179  0.51490  0.80237  1.0000
  O   O16       1.0  0.84822  0.19769  0.48512  1.0000
  O   O17       1.0  0.13333  0.46421  0.26204  1.0000
  O   O18       1.0  0.36669  0.73795  0.53578  1.0000
  O   O19       1.0  0.86667  0.53579  0.73795  1.0000
  O   O20       1.0  0.63331  0.26205  0.46422  1.0000
  O   O21       1.0  0.12481  0.84800  0.88953  1.0000
  O   O22       1.0  0.37517  0.11045  0.15198  1.0000
  O   O23       1.0  0.87517  0.15199  0.11046  1.0000
  O   O24       1.0  0.62483  0.88954  0.84801  1.0000
  O   O25       1.0  0.27669  0.72075  0.86140  1.0000
  O   O26       1.0  0.22331  0.13857  0.27922  1.0000
  O   O27       1.0  0.72331  0.27923  0.13860  1.0000
  O   O28       1.0  0.77668  0.86142  0.72076  1.0000
