data_image0
_chemical_formula_structural       Zn2H30C30N4O10
_chemical_formula_sum              "Zn2 H30 C30 N4 O10"
_cell_length_a       8.65861
_cell_length_b       9.61375
_cell_length_c       10.854
_cell_angle_alpha    110.022
_cell_angle_beta     97.7476
_cell_angle_gamma    110.311

_space_group_name_H-M_alt    "P 1"
_space_group_IT_number       1

loop_
  _space_group_symop_operation_xyz
  'x, y, z'

loop_
  _atom_site_type_symbol
  _atom_site_label
  _atom_site_symmetry_multiplicity
  _atom_site_fract_x
  _atom_site_fract_y
  _atom_site_fract_z
  _atom_site_occupancy
  Zn  Zn1       1.0  0.11490  0.03986  0.19291  1.0000
  Zn  Zn2       1.0  0.88510  0.96014  0.80709  1.0000
  H   H1        1.0  0.31099  0.03410  0.45688  1.0000
  H   H2        1.0  0.68901  0.96590  0.54312  1.0000
  H   H3        1.0  0.64775  0.27051  0.60729  1.0000
  H   H4        1.0  0.35225  0.72949  0.39271  1.0000
  H   H5        1.0  0.48957  0.50038  0.28393  1.0000
  H   H6        1.0  0.51043  0.49962  0.71607  1.0000
  H   H7        1.0  0.35217  0.30126  0.15498  1.0000
  H   H8        1.0  0.64783  0.69874  0.84502  1.0000
  H   H9        1.0  0.57847  0.37201  0.19215  1.0000
  H   H10       1.0  0.42153  0.62799  0.80785  1.0000
  H   H11       1.0  0.95175  0.52047  0.77253  1.0000
  H   H12       1.0  0.04825  0.47954  0.22747  1.0000
  H   H13       1.0  0.38752  0.91379  0.10145  1.0000
  H   H14       1.0  0.61248  0.08621  0.89855  1.0000
  H   H15       1.0  0.79962  0.57498  0.59785  1.0000
  H   H16       1.0  0.20038  0.42502  0.40215  1.0000
  H   H17       1.0  0.76600  0.55601  0.42717  1.0000
  H   H18       1.0  0.23400  0.44399  0.57283  1.0000
  H   H19       1.0  0.88483  0.34596  0.36876  1.0000
  H   H20       1.0  0.11518  0.65404  0.63124  1.0000
  H   H21       1.0  0.91050  0.35711  0.53712  1.0000
  H   H22       1.0  0.08951  0.64289  0.46288  1.0000
  H   H23       1.0  0.30540  0.41267  0.99996  1.0000
  H   H24       1.0  0.69460  0.58733  0.00004  1.0000
  H   H25       1.0  0.66494  0.93609  0.16683  1.0000
  H   H26       1.0  0.33506  0.06391  0.83317  1.0000
  H   H27       1.0  0.73169  0.88787  0.30363  1.0000
  H   H28       1.0  0.26831  0.11212  0.69637  1.0000
  H   H29       1.0  0.55543  0.94610  0.29767  1.0000
  H   H30       1.0  0.44457  0.05390  0.70233  1.0000
  C   C1        1.0  0.10720  0.85132  0.91664  1.0000
  C   C2        1.0  0.89280  0.14868  0.08336  1.0000
  C   C3        1.0  0.39401  0.13918  0.44422  1.0000
  C   C4        1.0  0.60599  0.86082  0.55578  1.0000
  C   C5        1.0  0.47059  0.30060  0.33870  1.0000
  C   C6        1.0  0.52941  0.69940  0.66130  1.0000
  C   C7        1.0  0.16611  0.72898  0.93390  1.0000
  C   C8        1.0  0.83389  0.27102  0.06610  1.0000
  C   C9        1.0  0.55782  0.25424  0.51798  1.0000
  C   C10       1.0  0.44218  0.74577  0.48202  1.0000
  C   C11       1.0  0.47287  0.37302  0.23791  1.0000
  C   C12       1.0  0.52713  0.62698  0.76209  1.0000
  C   C13       1.0  0.06922  0.56253  0.85188  1.0000
  C   C14       1.0  0.93078  0.43747  0.14812  1.0000
  C   C15       1.0  0.31549  0.78332  0.03900  1.0000
  C   C16       1.0  0.68451  0.21668  0.96100  1.0000
  C   C17       1.0  0.77232  0.49000  0.49123  1.0000
  C   C18       1.0  0.22768  0.51001  0.50877  1.0000
  C   C19       1.0  0.11900  0.44856  0.87663  1.0000
  C   C20       1.0  0.88100  0.55144  0.12337  1.0000
  C   C21       1.0  0.36648  0.66930  0.06219  1.0000
  C   C22       1.0  0.63352  0.33069  0.93781  1.0000
  C   C23       1.0  0.91210  0.42863  0.47633  1.0000
  C   C24       1.0  0.08791  0.57137  0.52367  1.0000
  C   C25       1.0  0.26688  0.50177  0.98159  1.0000
  C   C26       1.0  0.73312  0.49823  0.01841  1.0000
  C   C27       1.0  0.00609  0.26902  0.79380  1.0000
  C   C28       1.0  0.99391  0.73098  0.20620  1.0000
  C   C29       1.0  0.62079  0.88125  0.23652  1.0000
  C   C30       1.0  0.37921  0.11875  0.76348  1.0000
  N   N1        1.0  0.34096  0.16925  0.33349  1.0000
  N   N2        1.0  0.65904  0.83075  0.66651  1.0000
  N   N3        1.0  0.60356  0.35490  0.45073  1.0000
  N   N4        1.0  0.39644  0.64510  0.54928  1.0000
  O   O1        1.0  0.17308  0.99624  0.01103  1.0000
  O   O2        1.0  0.82692  0.00376  0.98897  1.0000
  O   O3        1.0  0.95142  0.82576  0.16097  1.0000
  O   O4        1.0  0.04858  0.17424  0.83903  1.0000
  O   O5        1.0  0.00868  0.19446  0.19392  1.0000
  O   O6        1.0  0.99132  0.80554  0.80608  1.0000
  O   O7        1.0  0.51020  0.71044  0.16103  1.0000
  O   O8        1.0  0.48980  0.28956  0.83897  1.0000
  O   O9        1.0  0.88257  0.22264  0.69298  1.0000
  O   O10       1.0  0.11743  0.77736  0.30702  1.0000
