data_image0
_chemical_formula_structural       Yb2H18C28S4O20
_chemical_formula_sum              "Yb2 H18 C28 S4 O20"
_cell_length_a       7.33845
_cell_length_b       7.83584
_cell_length_c       13.6433
_cell_angle_alpha    85.8861
_cell_angle_beta     86.9436
_cell_angle_gamma    85.7059

_space_group_name_H-M_alt    "P 1"
_space_group_IT_number       1

loop_
  _space_group_symop_operation_xyz
  'x, y, z'

loop_
  _atom_site_type_symbol
  _atom_site_label
  _atom_site_symmetry_multiplicity
  _atom_site_fract_x
  _atom_site_fract_y
  _atom_site_fract_z
  _atom_site_occupancy
  Yb  Yb1       1.0  0.32853  0.17121  0.51504  1.0000
  Yb  Yb2       1.0  0.67147  0.82880  0.48496  1.0000
  H   H1        1.0  0.96627  0.57156  0.77693  1.0000
  H   H2        1.0  0.03373  0.42844  0.22307  1.0000
  H   H3        1.0  0.95458  0.12588  0.75820  1.0000
  H   H4        1.0  0.04541  0.87412  0.24180  1.0000
  H   H5        1.0  0.79804  0.12935  0.92355  1.0000
  H   H6        1.0  0.20196  0.87065  0.07645  1.0000
  H   H7        1.0  0.52549  0.81716  0.21793  1.0000
  H   H8        1.0  0.47451  0.18284  0.78207  1.0000
  H   H9        1.0  0.52990  0.26306  0.23439  1.0000
  H   H10       1.0  0.47010  0.73694  0.76561  1.0000
  H   H11       1.0  0.69666  0.26031  0.07087  1.0000
  H   H12       1.0  0.30335  0.73969  0.92913  1.0000
  H   H13       1.0  0.97429  0.35081  0.59481  1.0000
  H   H14       1.0  0.02571  0.64919  0.40519  1.0000
  H   H15       1.0  0.13267  0.47796  0.59453  1.0000
  H   H16       1.0  0.86733  0.52204  0.40547  1.0000
  H   H17       1.0  0.33522  0.89676  0.39238  1.0000
  H   H18       1.0  0.66478  0.10324  0.60762  1.0000
  C   C1        1.0  0.92895  0.69426  0.80801  1.0000
  C   C2        1.0  0.07106  0.30573  0.19199  1.0000
  C   C3        1.0  0.96857  0.84869  0.75753  1.0000
  C   C4        1.0  0.03143  0.15131  0.24248  1.0000
  C   C5        1.0  0.92179  0.00601  0.79833  1.0000
  C   C6        1.0  0.07821  0.99399  0.20167  1.0000
  C   C7        1.0  0.83296  0.00773  0.89096  1.0000
  C   C8        1.0  0.16704  0.99227  0.10904  1.0000
  C   C9        1.0  0.56048  0.69444  0.18624  1.0000
  C   C10       1.0  0.43952  0.30556  0.81376  1.0000
  C   C11       1.0  0.51651  0.53944  0.23510  1.0000
  C   C12       1.0  0.48349  0.46056  0.76490  1.0000
  C   C13       1.0  0.56400  0.38264  0.19438  1.0000
  C   C14       1.0  0.43600  0.61735  0.80562  1.0000
  C   C15       1.0  0.65817  0.38178  0.10301  1.0000
  C   C16       1.0  0.34184  0.61822  0.89699  1.0000
  C   C17       1.0  0.80421  0.53098  0.95551  1.0000
  C   C18       1.0  0.19579  0.46901  0.04449  1.0000
  C   C19       1.0  0.69879  0.85871  0.04239  1.0000
  C   C20       1.0  0.30121  0.14129  0.95761  1.0000
  C   C21       1.0  0.79162  0.85396  0.94310  1.0000
  C   C22       1.0  0.20838  0.14604  0.05690  1.0000
  C   C23       1.0  0.84046  0.69655  0.90135  1.0000
  C   C24       1.0  0.15955  0.30345  0.09865  1.0000
  C   C25       1.0  0.70277  0.53578  0.05241  1.0000
  C   C26       1.0  0.29723  0.46422  0.94759  1.0000
  C   C27       1.0  0.65321  0.69313  0.09412  1.0000
  C   C28       1.0  0.34679  0.30687  0.90588  1.0000
  S   S1        1.0  0.07371  0.84599  0.63712  1.0000
  S   S2        1.0  0.92629  0.15401  0.36288  1.0000
  S   S3        1.0  0.40645  0.54586  0.35400  1.0000
  S   S4        1.0  0.59355  0.45414  0.64600  1.0000
  O   O1        1.0  0.18922  0.99341  0.62920  1.0000
  O   O2        1.0  0.81078  0.00659  0.37080  1.0000
  O   O3        1.0  0.92241  0.87410  0.57037  1.0000
  O   O4        1.0  0.07759  0.12590  0.42963  1.0000
  O   O5        1.0  0.17790  0.68166  0.62925  1.0000
  O   O6        1.0  0.82210  0.31834  0.37075  1.0000
  O   O7        1.0  0.36757  0.36747  0.38427  1.0000
  O   O8        1.0  0.63243  0.63253  0.61573  1.0000
  O   O9        1.0  0.54023  0.61198  0.41502  1.0000
  O   O10       1.0  0.45977  0.38802  0.58498  1.0000
  O   O11       1.0  0.24149  0.66234  0.34454  1.0000
  O   O12       1.0  0.75851  0.33766  0.65546  1.0000
  O   O13       1.0  0.65964  0.99534  0.08129  1.0000
  O   O14       1.0  0.34036  0.00466  0.91871  1.0000
  O   O15       1.0  0.85990  0.39330  0.92137  1.0000
  O   O16       1.0  0.14010  0.60670  0.07864  1.0000
  O   O17       1.0  0.42098  0.95680  0.42684  1.0000
  O   O18       1.0  0.57902  0.04320  0.57316  1.0000
  O   O19       1.0  0.10534  0.36217  0.57776  1.0000
  O   O20       1.0  0.89466  0.63783  0.42224  1.0000
