data_image0
_chemical_formula_structural       Zn4H40C56N36
_chemical_formula_sum              "Zn4 H40 C56 N36"
_cell_length_a       6.76546
_cell_length_b       10.594
_cell_length_c       20.331
_cell_angle_alpha    90
_cell_angle_beta     94.057
_cell_angle_gamma    90

_space_group_name_H-M_alt    "P 1"
_space_group_IT_number       1

loop_
  _space_group_symop_operation_xyz
  'x, y, z'

loop_
  _atom_site_type_symbol
  _atom_site_label
  _atom_site_symmetry_multiplicity
  _atom_site_fract_x
  _atom_site_fract_y
  _atom_site_fract_z
  _atom_site_occupancy
  Zn  Zn1       1.0  0.57755  0.65798  0.78278  1.0000
  Zn  Zn2       1.0  0.92245  0.15798  0.21722  1.0000
  Zn  Zn3       1.0  0.42245  0.34202  0.21722  1.0000
  Zn  Zn4       1.0  0.07755  0.84202  0.78278  1.0000
  H   H1        1.0  0.75301  0.65441  0.92537  1.0000
  H   H2        1.0  0.74699  0.15442  0.07463  1.0000
  H   H3        1.0  0.24699  0.34558  0.07463  1.0000
  H   H4        1.0  0.25302  0.84559  0.92537  1.0000
  H   H5        1.0  0.79825  0.49611  0.01942  1.0000
  H   H6        1.0  0.70175  0.99611  0.98058  1.0000
  H   H7        1.0  0.20175  0.50389  0.98058  1.0000
  H   H8        1.0  0.29825  0.00389  0.01942  1.0000
  H   H9        1.0  0.69319  0.27215  0.99565  1.0000
  H   H10       1.0  0.80681  0.77215  0.00435  1.0000
  H   H11       1.0  0.30681  0.72785  0.00435  1.0000
  H   H12       1.0  0.19319  0.22785  0.99565  1.0000
  H   H13       1.0  0.54565  0.21529  0.88439  1.0000
  H   H14       1.0  0.95435  0.71529  0.11561  1.0000
  H   H15       1.0  0.45435  0.78471  0.11561  1.0000
  H   H16       1.0  0.04565  0.28471  0.88439  1.0000
  H   H17       1.0  0.44439  0.18048  0.78695  1.0000
  H   H18       1.0  0.05561  0.68048  0.21305  1.0000
  H   H19       1.0  0.55561  0.81952  0.21305  1.0000
  H   H20       1.0  0.94439  0.31952  0.78695  1.0000
  H   H21       1.0  0.29946  0.15828  0.67270  1.0000
  H   H22       1.0  0.20053  0.65828  0.32730  1.0000
  H   H23       1.0  0.70053  0.84172  0.32730  1.0000
  H   H24       1.0  0.79946  0.34172  0.67270  1.0000
  H   H25       1.0  0.25124  0.35446  0.60148  1.0000
  H   H26       1.0  0.24875  0.85446  0.39852  1.0000
  H   H27       1.0  0.74876  0.64554  0.39852  1.0000
  H   H28       1.0  0.75124  0.14554  0.60148  1.0000
  H   H29       1.0  0.35270  0.56348  0.65150  1.0000
  H   H30       1.0  0.14730  0.06348  0.34850  1.0000
  H   H31       1.0  0.64731  0.43652  0.34850  1.0000
  H   H32       1.0  0.85270  0.93652  0.65150  1.0000
  H   H33       1.0  0.21082  0.67473  0.54745  1.0000
  H   H34       1.0  0.28918  0.17473  0.45255  1.0000
  H   H35       1.0  0.78918  0.32527  0.45255  1.0000
  H   H36       1.0  0.71082  0.82527  0.54745  1.0000
  H   H37       1.0  0.72015  0.41923  0.56103  1.0000
  H   H38       1.0  0.77984  0.91924  0.43897  1.0000
  H   H39       1.0  0.27984  0.58077  0.43897  1.0000
  H   H40       1.0  0.22016  0.08077  0.56103  1.0000
  C   C1        1.0  0.70543  0.55632  0.92027  1.0000
  C   C2        1.0  0.79457  0.05632  0.07973  1.0000
  C   C3        1.0  0.29457  0.44368  0.07973  1.0000
  C   C4        1.0  0.20543  0.94368  0.92027  1.0000
  C   C5        1.0  0.73205  0.46851  0.97103  1.0000
  C   C6        1.0  0.76795  0.96851  0.02897  1.0000
  C   C7        1.0  0.26796  0.53149  0.02897  1.0000
  C   C8        1.0  0.23205  0.03149  0.97103  1.0000
  C   C9        1.0  0.67301  0.34442  0.95768  1.0000
  C   C10       1.0  0.82699  0.84442  0.04232  1.0000
  C   C11       1.0  0.32698  0.65558  0.04232  1.0000
  C   C12       1.0  0.17301  0.15558  0.95768  1.0000
  C   C13       1.0  0.58829  0.31241  0.89549  1.0000
  C   C14       1.0  0.91171  0.81242  0.10451  1.0000
  C   C15       1.0  0.41171  0.68759  0.10451  1.0000
  C   C16       1.0  0.08829  0.18759  0.89549  1.0000
  C   C17       1.0  0.56127  0.40716  0.84768  1.0000
  C   C18       1.0  0.93873  0.90717  0.15232  1.0000
  C   C19       1.0  0.43873  0.59284  0.15232  1.0000
  C   C20       1.0  0.06127  0.09284  0.84768  1.0000
  C   C21       1.0  0.46933  0.38437  0.78040  1.0000
  C   C22       1.0  0.03066  0.88437  0.21960  1.0000
  C   C23       1.0  0.53067  0.61563  0.21960  1.0000
  C   C24       1.0  0.96933  0.11563  0.78040  1.0000
  C   C25       1.0  0.41832  0.26418  0.75639  1.0000
  C   C26       1.0  0.08168  0.76417  0.24361  1.0000
  C   C27       1.0  0.58168  0.73582  0.24361  1.0000
  C   C28       1.0  0.91832  0.23583  0.75639  1.0000
  C   C29       1.0  0.33875  0.25212  0.69158  1.0000
  C   C30       1.0  0.16124  0.75212  0.30842  1.0000
  C   C31       1.0  0.66124  0.74787  0.30842  1.0000
  C   C32       1.0  0.83875  0.24788  0.69158  1.0000
  C   C33       1.0  0.31256  0.35970  0.65244  1.0000
  C   C34       1.0  0.18744  0.85970  0.34756  1.0000
  C   C35       1.0  0.68744  0.64030  0.34756  1.0000
  C   C36       1.0  0.81256  0.14030  0.65244  1.0000
  C   C37       1.0  0.36699  0.47627  0.67980  1.0000
  C   C38       1.0  0.13301  0.97627  0.32020  1.0000
  C   C39       1.0  0.63301  0.52373  0.32020  1.0000
  C   C40       1.0  0.86699  0.02373  0.67980  1.0000
  C   C41       1.0  0.92726  0.60371  0.62610  1.0000
  C   C42       1.0  0.57274  0.10371  0.37390  1.0000
  C   C43       1.0  0.07274  0.39628  0.37390  1.0000
  C   C44       1.0  0.42726  0.89629  0.62610  1.0000
  C   C45       1.0  0.96163  0.55246  0.56140  1.0000
  C   C46       1.0  0.53837  0.05246  0.43860  1.0000
  C   C47       1.0  0.03837  0.44754  0.43860  1.0000
  C   C48       1.0  0.46163  0.94754  0.56140  1.0000
  C   C49       1.0  0.11845  0.59852  0.52627  1.0000
  C   C50       1.0  0.38155  0.09852  0.47373  1.0000
  C   C51       1.0  0.88155  0.40148  0.47373  1.0000
  C   C52       1.0  0.61845  0.90148  0.52627  1.0000
  C   C53       1.0  0.84342  0.45363  0.53425  1.0000
  C   C54       1.0  0.65658  0.95363  0.46575  1.0000
  C   C55       1.0  0.15658  0.54637  0.46575  1.0000
  C   C56       1.0  0.34342  0.04637  0.53425  1.0000
  N   N1        1.0  0.62144  0.52667  0.86076  1.0000
  N   N2        1.0  0.87856  0.02667  0.13924  1.0000
  N   N3        1.0  0.37856  0.47333  0.13924  1.0000
  N   N4        1.0  0.12144  0.97334  0.86076  1.0000
  N   N5        1.0  0.44254  0.48792  0.74211  1.0000
  N   N6        1.0  0.05746  0.98792  0.25789  1.0000
  N   N7        1.0  0.55746  0.51208  0.25789  1.0000
  N   N8        1.0  0.94254  0.01208  0.74211  1.0000
  N   N9        1.0  0.82043  0.62627  0.72108  1.0000
  N   N10       1.0  0.67957  0.12627  0.27892  1.0000
  N   N11       1.0  0.17957  0.37373  0.27892  1.0000
  N   N12       1.0  0.32043  0.87373  0.72108  1.0000
  N   N13       1.0  0.80252  0.55326  0.66788  1.0000
  N   N14       1.0  0.69748  0.05326  0.33212  1.0000
  N   N15       1.0  0.19748  0.44674  0.33212  1.0000
  N   N16       1.0  0.30252  0.94674  0.66788  1.0000
  N   N17       1.0  0.95119  0.71752  0.71173  1.0000
  N   N18       1.0  0.54881  0.21752  0.28827  1.0000
  N   N19       1.0  0.04881  0.28248  0.28827  1.0000
  N   N20       1.0  0.45119  0.78248  0.71173  1.0000
  N   N21       1.0  0.02164  0.70580  0.65274  1.0000
  N   N22       1.0  0.47836  0.20580  0.34726  1.0000
  N   N23       1.0  0.97836  0.29420  0.34726  1.0000
  N   N24       1.0  0.52164  0.79420  0.65274  1.0000
  N   N25       1.0  0.74609  0.80013  0.83429  1.0000
  N   N26       1.0  0.75392  0.30013  0.16571  1.0000
  N   N27       1.0  0.25392  0.19987  0.16571  1.0000
  N   N28       1.0  0.24609  0.69987  0.83429  1.0000
  N   N29       1.0  0.67441  0.89942  0.84890  1.0000
  N   N30       1.0  0.82560  0.39942  0.15110  1.0000
  N   N31       1.0  0.32559  0.10058  0.15110  1.0000
  N   N32       1.0  0.17441  0.60058  0.84890  1.0000
  N   N33       1.0  0.61154  0.99742  0.86375  1.0000
  N   N34       1.0  0.88846  0.49742  0.13625  1.0000
  N   N35       1.0  0.38846  0.00258  0.13625  1.0000
  N   N36       1.0  0.11154  0.50258  0.86375  1.0000
