data_image0
_chemical_formula_structural       Cu6Si2H42C56I6N6
_chemical_formula_sum              "Cu6 Si2 H42 C56 I6 N6"
_cell_length_a       12.4367
_cell_length_b       12.4909
_cell_length_c       12.6407
_cell_angle_alpha    61.9303
_cell_angle_beta     61.7973
_cell_angle_gamma    62.1077

_space_group_name_H-M_alt    "P 1"
_space_group_IT_number       1

loop_
  _space_group_symop_operation_xyz
  'x, y, z'

loop_
  _atom_site_type_symbol
  _atom_site_label
  _atom_site_symmetry_multiplicity
  _atom_site_fract_x
  _atom_site_fract_y
  _atom_site_fract_z
  _atom_site_occupancy
  Cu  Cu1       1.0  0.84529  0.01069  0.23420  1.0000
  Cu  Cu2       1.0  0.22994  0.84316  0.01358  1.0000
  Cu  Cu3       1.0  0.00877  0.23022  0.84550  1.0000
  Cu  Cu4       1.0  0.15472  0.98932  0.76579  1.0000
  Cu  Cu5       1.0  0.77005  0.15684  0.98643  1.0000
  Cu  Cu6       1.0  0.99124  0.76978  0.15450  1.0000
  Si  Si1       1.0  0.34202  0.34358  0.34578  1.0000
  Si  Si2       1.0  0.65798  0.65642  0.65422  1.0000
  H   H1        1.0  0.58678  0.14279  0.25833  1.0000
  H   H2        1.0  0.25508  0.58478  0.14427  1.0000
  H   H3        1.0  0.14008  0.25525  0.58866  1.0000
  H   H4        1.0  0.41323  0.85721  0.74166  1.0000
  H   H5        1.0  0.74491  0.41522  0.85573  1.0000
  H   H6        1.0  0.85992  0.74475  0.41135  1.0000
  H   H7        1.0  0.89498  0.95219  0.45219  1.0000
  H   H8        1.0  0.45289  0.89335  0.95199  1.0000
  H   H9        1.0  0.95280  0.45084  0.89248  1.0000
  H   H10       1.0  0.10503  0.04781  0.54781  1.0000
  H   H11       1.0  0.54710  0.10665  0.04801  1.0000
  H   H12       1.0  0.04719  0.54917  0.10752  1.0000
  H   H13       1.0  0.39172  0.26869  0.58720  1.0000
  H   H14       1.0  0.58781  0.39426  0.26888  1.0000
  H   H15       1.0  0.26709  0.58834  0.39394  1.0000
  H   H16       1.0  0.60828  0.73132  0.41280  1.0000
  H   H17       1.0  0.41219  0.60573  0.73112  1.0000
  H   H18       1.0  0.73291  0.41166  0.60607  1.0000
  H   H19       1.0  0.90441  0.95080  0.64504  1.0000
  H   H20       1.0  0.64815  0.90497  0.95005  1.0000
  H   H21       1.0  0.95340  0.64531  0.90130  1.0000
  H   H22       1.0  0.09560  0.04920  0.35496  1.0000
  H   H23       1.0  0.35185  0.09503  0.04995  1.0000
  H   H24       1.0  0.04661  0.35469  0.09870  1.0000
  H   H25       1.0  0.50697  0.18446  0.73721  1.0000
  H   H26       1.0  0.74081  0.51008  0.18331  1.0000
  H   H27       1.0  0.18511  0.73956  0.50775  1.0000
  H   H28       1.0  0.49303  0.81555  0.26278  1.0000
  H   H29       1.0  0.25919  0.48992  0.81668  1.0000
  H   H30       1.0  0.81490  0.26044  0.49226  1.0000
  H   H31       1.0  0.21861  0.36071  0.22941  1.0000
  H   H32       1.0  0.22417  0.21934  0.36224  1.0000
  H   H33       1.0  0.36016  0.22661  0.22290  1.0000
  H   H34       1.0  0.78139  0.63928  0.77060  1.0000
  H   H35       1.0  0.77583  0.78066  0.63777  1.0000
  H   H36       1.0  0.63984  0.77339  0.77710  1.0000
  H   H37       1.0  0.71229  0.06587  0.78711  1.0000
  H   H38       1.0  0.79207  0.71516  0.06433  1.0000
  H   H39       1.0  0.06885  0.78917  0.71080  1.0000
  H   H40       1.0  0.28771  0.93413  0.21288  1.0000
  H   H41       1.0  0.20793  0.28484  0.93567  1.0000
  H   H42       1.0  0.93115  0.21082  0.28921  1.0000
  C   C1        1.0  0.58358  0.14344  0.34600  1.0000
  C   C2        1.0  0.34396  0.58267  0.14446  1.0000
  C   C3        1.0  0.14119  0.34392  0.58520  1.0000
  C   C4        1.0  0.41642  0.85656  0.65399  1.0000
  C   C5        1.0  0.65604  0.41733  0.85554  1.0000
  C   C6        1.0  0.85881  0.65607  0.41481  1.0000
  C   C7        1.0  0.69607  0.07085  0.48330  1.0000
  C   C8        1.0  0.48397  0.69566  0.07053  1.0000
  C   C9        1.0  0.07026  0.48265  0.69571  1.0000
  C   C10       1.0  0.30394  0.92915  0.51670  1.0000
  C   C11       1.0  0.51603  0.30434  0.92948  1.0000
  C   C12       1.0  0.92973  0.51736  0.30429  1.0000
  C   C13       1.0  0.47194  0.21869  0.41672  1.0000
  C   C14       1.0  0.41481  0.47272  0.22021  1.0000
  C   C15       1.0  0.21658  0.41557  0.47421  1.0000
  C   C16       1.0  0.52807  0.78131  0.58328  1.0000
  C   C17       1.0  0.58519  0.52728  0.77979  1.0000
  C   C18       1.0  0.78343  0.58443  0.52580  1.0000
  C   C19       1.0  0.81085  0.00295  0.51477  1.0000
  C   C20       1.0  0.51623  0.81023  0.00243  1.0000
  C   C21       1.0  0.00350  0.51430  0.80904  1.0000
  C   C22       1.0  0.18916  0.99705  0.48522  1.0000
  C   C23       1.0  0.48376  0.18977  0.99757  1.0000
  C   C24       1.0  0.99649  0.48570  0.19096  1.0000
  C   C25       1.0  0.58550  0.13858  0.56451  1.0000
  C   C26       1.0  0.56601  0.58651  0.13805  1.0000
  C   C27       1.0  0.13790  0.56503  0.58591  1.0000
  C   C28       1.0  0.41451  0.86141  0.43548  1.0000
  C   C29       1.0  0.43399  0.41348  0.86195  1.0000
  C   C30       1.0  0.86209  0.43497  0.41409  1.0000
  C   C31       1.0  0.47412  0.21323  0.52780  1.0000
  C   C32       1.0  0.52787  0.47570  0.21364  1.0000
  C   C33       1.0  0.21172  0.52799  0.47580  1.0000
  C   C34       1.0  0.52589  0.78677  0.47219  1.0000
  C   C35       1.0  0.47212  0.52430  0.78635  1.0000
  C   C36       1.0  0.78828  0.47201  0.52420  1.0000
  C   C37       1.0  0.81524  0.00203  0.62233  1.0000
  C   C38       1.0  0.62510  0.81583  0.00126  1.0000
  C   C39       1.0  0.00377  0.62272  0.81309  1.0000
  C   C40       1.0  0.18476  0.99797  0.37767  1.0000
  C   C41       1.0  0.37490  0.18417  0.99874  1.0000
  C   C42       1.0  0.99623  0.37728  0.18691  1.0000
  C   C43       1.0  0.59250  0.13375  0.67555  1.0000
  C   C44       1.0  0.67860  0.59462  0.13270  1.0000
  C   C45       1.0  0.13435  0.67703  0.59249  1.0000
  C   C46       1.0  0.40751  0.86626  0.32444  1.0000
  C   C47       1.0  0.32140  0.40538  0.86729  1.0000
  C   C48       1.0  0.86565  0.32297  0.40751  1.0000
  C   C49       1.0  0.28053  0.28185  0.28477  1.0000
  C   C50       1.0  0.71947  0.71815  0.71524  1.0000
  C   C51       1.0  0.70557  0.06693  0.70371  1.0000
  C   C52       1.0  0.70747  0.70753  0.06586  1.0000
  C   C53       1.0  0.06890  0.70508  0.70440  1.0000
  C   C54       1.0  0.29443  0.93308  0.29628  1.0000
  C   C55       1.0  0.29253  0.29247  0.93414  1.0000
  C   C56       1.0  0.93111  0.29492  0.29560  1.0000
  I   I1        1.0  0.07113  0.86384  0.24516  1.0000
  I   I2        1.0  0.24492  0.06717  0.86234  1.0000
  I   I3        1.0  0.86451  0.24476  0.06898  1.0000
  I   I4        1.0  0.92887  0.13616  0.75484  1.0000
  I   I5        1.0  0.75508  0.93282  0.13766  1.0000
  I   I6        1.0  0.13549  0.75525  0.93101  1.0000
  N   N1        1.0  0.69203  0.07321  0.37496  1.0000
  N   N2        1.0  0.37403  0.69065  0.07348  1.0000
  N   N3        1.0  0.07164  0.37312  0.69242  1.0000
  N   N4        1.0  0.30797  0.92679  0.62504  1.0000
  N   N5        1.0  0.62597  0.30934  0.92652  1.0000
  N   N6        1.0  0.92836  0.62688  0.30758  1.0000
