data_image0
_chemical_formula_structural       Cu2Si2H42C56I2N6
_chemical_formula_sum              "Cu2 Si2 H42 C56 I2 N6"
_cell_length_a       10.0813
_cell_length_b       11.2989
_cell_length_c       14.137
_cell_angle_alpha    112.529
_cell_angle_beta     95.6962
_cell_angle_gamma    99.3779

_space_group_name_H-M_alt    "P 1"
_space_group_IT_number       1

loop_
  _space_group_symop_operation_xyz
  'x, y, z'

loop_
  _atom_site_type_symbol
  _atom_site_label
  _atom_site_symmetry_multiplicity
  _atom_site_fract_x
  _atom_site_fract_y
  _atom_site_fract_z
  _atom_site_occupancy
  Cu  Cu1       1.0  0.45328  0.58845  0.46790  1.0000
  Cu  Cu2       1.0  0.54672  0.41156  0.53210  1.0000
  Si  Si1       1.0  0.67774  0.11490  0.75706  1.0000
  Si  Si2       1.0  0.32226  0.88510  0.24294  1.0000
  H   H1        1.0  0.83048  0.98130  0.65799  1.0000
  H   H2        1.0  0.16952  0.01870  0.34201  1.0000
  H   H3        1.0  0.90755  0.15186  0.70973  1.0000
  H   H4        1.0  0.09245  0.84814  0.29027  1.0000
  H   H5        1.0  0.77816  0.08230  0.59773  1.0000
  H   H6        1.0  0.22184  0.91770  0.40227  1.0000
  H   H7        1.0  0.61387  0.82537  0.63483  1.0000
  H   H8        1.0  0.38613  0.17463  0.36517  1.0000
  H   H9        1.0  0.18697  0.60038  0.44859  1.0000
  H   H10       1.0  0.81303  0.39962  0.55141  1.0000
  H   H11       1.0  0.96088  0.65721  0.42474  1.0000
  H   H12       1.0  0.03912  0.34278  0.57526  1.0000
  H   H13       1.0  0.93270  0.88477  0.51878  1.0000
  H   H14       1.0  0.06729  0.11523  0.48122  1.0000
  H   H15       1.0  0.13092  0.05933  0.63703  1.0000
  H   H16       1.0  0.86907  0.94067  0.36297  1.0000
  H   H17       1.0  0.37844  0.12676  0.71392  1.0000
  H   H18       1.0  0.62156  0.87324  0.28608  1.0000
  H   H19       1.0  0.54093  0.02704  0.91029  1.0000
  H   H20       1.0  0.45907  0.97297  0.08971  1.0000
  H   H21       1.0  0.79575  0.05762  0.20736  1.0000
  H   H22       1.0  0.20425  0.94238  0.79264  1.0000
  H   H23       1.0  0.04134  0.13889  0.29102  1.0000
  H   H24       1.0  0.95866  0.86111  0.70898  1.0000
  H   H25       1.0  0.21210  0.22285  0.20423  1.0000
  H   H26       1.0  0.78790  0.77715  0.79577  1.0000
  H   H27       1.0  0.13896  0.23022  0.03369  1.0000
  H   H28       1.0  0.86104  0.76978  0.96631  1.0000
  H   H29       1.0  0.95089  0.19212  0.89010  1.0000
  H   H30       1.0  0.04911  0.80788  0.10990  1.0000
  H   H31       1.0  0.59950  0.21574  0.60433  1.0000
  H   H32       1.0  0.40050  0.78427  0.39566  1.0000
  H   H33       1.0  0.49284  0.61829  0.69082  1.0000
  H   H34       1.0  0.50717  0.38171  0.30918  1.0000
  H   H35       1.0  0.48886  0.80620  0.85759  1.0000
  H   H36       1.0  0.51114  0.19380  0.14241  1.0000
  H   H37       1.0  0.57093  0.80238  0.02693  1.0000
  H   H38       1.0  0.42907  0.19762  0.97307  1.0000
  H   H39       1.0  0.64036  0.60269  0.03342  1.0000
  H   H40       1.0  0.35965  0.39731  0.96658  1.0000
  H   H41       1.0  0.67441  0.37648  0.93990  1.0000
  H   H42       1.0  0.32559  0.62352  0.06010  1.0000
  C   C1        1.0  0.81089  0.07905  0.67289  1.0000
  C   C2        1.0  0.18911  0.92095  0.32711  1.0000
  C   C3        1.0  0.51351  0.99118  0.68557  1.0000
  C   C4        1.0  0.48649  0.00882  0.31443  1.0000
  C   C5        1.0  0.51778  0.85783  0.63021  1.0000
  C   C6        1.0  0.48221  0.14217  0.36980  1.0000
  C   C7        1.0  0.28746  0.79698  0.55652  1.0000
  C   C8        1.0  0.71254  0.20302  0.44348  1.0000
  C   C9        1.0  0.17359  0.70030  0.48879  1.0000
  C   C10       1.0  0.82641  0.29970  0.51121  1.0000
  C   C11       1.0  0.04880  0.73252  0.47585  1.0000
  C   C12       1.0  0.95119  0.26747  0.52415  1.0000
  C   C13       1.0  0.03261  0.86211  0.52972  1.0000
  C   C14       1.0  0.96739  0.13789  0.47028  1.0000
  C   C15       1.0  0.14210  0.95871  0.59553  1.0000
  C   C16       1.0  0.85790  0.04129  0.40446  1.0000
  C   C17       1.0  0.27205  0.92904  0.61041  1.0000
  C   C18       1.0  0.72795  0.07096  0.38959  1.0000
  C   C19       1.0  0.38852  0.02520  0.67478  1.0000
  C   C20       1.0  0.61148  0.97480  0.32522  1.0000
  C   C21       1.0  0.73879  0.11177  0.88539  1.0000
  C   C22       1.0  0.26121  0.88824  0.11461  1.0000
  C   C23       1.0  0.65060  0.06328  0.94146  1.0000
  C   C24       1.0  0.34940  0.93672  0.05855  1.0000
  C   C25       1.0  0.82624  0.10026  0.07404  1.0000
  C   C26       1.0  0.17376  0.89974  0.92597  1.0000
  C   C27       1.0  0.87157  0.09538  0.17028  1.0000
  C   C28       1.0  0.12843  0.90461  0.82973  1.0000
  C   C29       1.0  0.00781  0.13965  0.21566  1.0000
  C   C30       1.0  0.99219  0.86034  0.78434  1.0000
  C   C31       1.0  0.10518  0.18849  0.16658  1.0000
  C   C32       1.0  0.89482  0.81150  0.83342  1.0000
  C   C33       1.0  0.06455  0.19339  0.07243  1.0000
  C   C34       1.0  0.93545  0.80661  0.92757  1.0000
  C   C35       1.0  0.92483  0.15079  0.02467  1.0000
  C   C36       1.0  0.07517  0.84920  0.97534  1.0000
  C   C37       1.0  0.87656  0.15505  0.92904  1.0000
  C   C38       1.0  0.12344  0.84496  0.07096  1.0000
  C   C39       1.0  0.64047  0.27818  0.77220  1.0000
  C   C40       1.0  0.35954  0.72182  0.22779  1.0000
  C   C41       1.0  0.60336  0.29551  0.67960  1.0000
  C   C42       1.0  0.39664  0.70449  0.32039  1.0000
  C   C43       1.0  0.56993  0.50541  0.76794  1.0000
  C   C44       1.0  0.43008  0.49459  0.23206  1.0000
  C   C45       1.0  0.52610  0.61740  0.76636  1.0000
  C   C46       1.0  0.47391  0.38261  0.23364  1.0000
  C   C47       1.0  0.52483  0.72080  0.85858  1.0000
  C   C48       1.0  0.47517  0.27920  0.14141  1.0000
  C   C49       1.0  0.56882  0.71737  0.95558  1.0000
  C   C50       1.0  0.43118  0.28263  0.04442  1.0000
  C   C51       1.0  0.60909  0.60804  0.95921  1.0000
  C   C52       1.0  0.39092  0.39196  0.04079  1.0000
  C   C53       1.0  0.60923  0.49893  0.86593  1.0000
  C   C54       1.0  0.39077  0.50107  0.13407  1.0000
  C   C55       1.0  0.64513  0.38271  0.86565  1.0000
  C   C56       1.0  0.35486  0.61729  0.13434  1.0000
  I   I1        1.0  0.28386  0.38794  0.47253  1.0000
  I   I2        1.0  0.71614  0.61206  0.52747  1.0000
  N   N1        1.0  0.41214  0.76367  0.56744  1.0000
  N   N2        1.0  0.58786  0.23633  0.43256  1.0000
  N   N3        1.0  0.69033  0.05722  0.03134  1.0000
  N   N4        1.0  0.30967  0.94278  0.96866  1.0000
  N   N5        1.0  0.57189  0.40334  0.67521  1.0000
  N   N6        1.0  0.42811  0.59666  0.32479  1.0000
