data_image0
_chemical_formula_structural       Cs4P4H16C8O24
_chemical_formula_sum              "Cs4 P4 H16 C8 O24"
_cell_length_a       5.12499
_cell_length_b       9.03373
_cell_length_c       15.1395
_cell_angle_alpha    90.0004
_cell_angle_beta     90
_cell_angle_gamma    90.0001

_space_group_name_H-M_alt    "P 1"
_space_group_IT_number       1

loop_
  _space_group_symop_operation_xyz
  'x, y, z'

loop_
  _atom_site_type_symbol
  _atom_site_label
  _atom_site_symmetry_multiplicity
  _atom_site_fract_x
  _atom_site_fract_y
  _atom_site_fract_z
  _atom_site_occupancy
  Cs  Cs1       1.0  0.78054  0.10633  0.58593  1.0000
  Cs  Cs2       1.0  0.71946  0.89367  0.08593  1.0000
  Cs  Cs3       1.0  0.21946  0.60633  0.91407  1.0000
  Cs  Cs4       1.0  0.28054  0.39367  0.41407  1.0000
  P   P1        1.0  0.28676  0.68842  0.63487  1.0000
  P   P2        1.0  0.21324  0.31157  0.13487  1.0000
  P   P3        1.0  0.71324  0.18843  0.86513  1.0000
  P   P4        1.0  0.78676  0.81157  0.36513  1.0000
  H   H1        1.0  0.51272  0.80401  0.52547  1.0000
  H   H2        1.0  0.98728  0.19599  0.02547  1.0000
  H   H3        1.0  0.48728  0.30401  0.97453  1.0000
  H   H4        1.0  0.01272  0.69599  0.47453  1.0000
  H   H5        1.0  0.60482  0.53733  0.71288  1.0000
  H   H6        1.0  0.89518  0.46266  0.21288  1.0000
  H   H7        1.0  0.39518  0.03734  0.78712  1.0000
  H   H8        1.0  0.10481  0.96267  0.28712  1.0000
  H   H9        1.0  0.79919  0.54984  0.57988  1.0000
  H   H10       1.0  0.70081  0.45016  0.07988  1.0000
  H   H11       1.0  0.20081  0.04984  0.92012  1.0000
  H   H12       1.0  0.29920  0.95016  0.42012  1.0000
  H   H13       1.0  0.01461  0.33244  0.75646  1.0000
  H   H14       1.0  0.48539  0.66755  0.25646  1.0000
  H   H15       1.0  0.98539  0.83245  0.74354  1.0000
  H   H16       1.0  0.51461  0.16756  0.24354  1.0000
  C   C1        1.0  0.48627  0.51804  0.65304  1.0000
  C   C2        1.0  0.01373  0.48195  0.15304  1.0000
  C   C3        1.0  0.51373  0.01805  0.84696  1.0000
  C   C4        1.0  0.98627  0.98196  0.34696  1.0000
  C   C5        1.0  0.29960  0.39126  0.67200  1.0000
  C   C6        1.0  0.20040  0.60873  0.17200  1.0000
  C   C7        1.0  0.70040  0.89127  0.82800  1.0000
  C   C8        1.0  0.79960  0.10874  0.32800  1.0000
  O   O1        1.0  0.20500  0.74572  0.72488  1.0000
  O   O2        1.0  0.29500  0.25428  0.22488  1.0000
  O   O3        1.0  0.79500  0.24572  0.77512  1.0000
  O   O4        1.0  0.70500  0.75428  0.27512  1.0000
  O   O5        1.0  0.48072  0.80452  0.59250  1.0000
  O   O6        1.0  0.01928  0.19548  0.09250  1.0000
  O   O7        1.0  0.51928  0.30452  0.90750  1.0000
  O   O8        1.0  0.98072  0.69548  0.40750  1.0000
  O   O9        1.0  0.06922  0.65029  0.56946  1.0000
  O   O10       1.0  0.43078  0.34971  0.06946  1.0000
  O   O11       1.0  0.93078  0.15029  0.93054  1.0000
  O   O12       1.0  0.56922  0.84971  0.43054  1.0000
  O   O13       1.0  0.64261  0.48352  0.57874  1.0000
  O   O14       1.0  0.85739  0.51648  0.07874  1.0000
  O   O15       1.0  0.35739  0.98352  0.92126  1.0000
  O   O16       1.0  0.14261  0.01648  0.42126  1.0000
  O   O17       1.0  0.27309  0.28472  0.62124  1.0000
  O   O18       1.0  0.22691  0.71527  0.12124  1.0000
  O   O19       1.0  0.72691  0.78473  0.87876  1.0000
  O   O20       1.0  0.77309  0.21528  0.37876  1.0000
  O   O21       1.0  0.16599  0.41195  0.74497  1.0000
  O   O22       1.0  0.33401  0.58804  0.24498  1.0000
  O   O23       1.0  0.83402  0.91196  0.75502  1.0000
  O   O24       1.0  0.66599  0.08804  0.25502  1.0000
