data_image0
_chemical_formula_structural       SrZnH10C14N2O10
_chemical_formula_sum              "Sr1 Zn1 H10 C14 N2 O10"
_cell_length_a       5.16956
_cell_length_b       7.89351
_cell_length_c       10.4565
_cell_angle_alpha    81.8981
_cell_angle_beta     83.0697
_cell_angle_gamma    78.3692

_space_group_name_H-M_alt    "P 1"
_space_group_IT_number       1

loop_
  _space_group_symop_operation_xyz
  'x, y, z'

loop_
  _atom_site_type_symbol
  _atom_site_label
  _atom_site_symmetry_multiplicity
  _atom_site_fract_x
  _atom_site_fract_y
  _atom_site_fract_z
  _atom_site_occupancy
  Sr  Sr1       1.0  0.50000  0.00000  0.50000  1.0000
  Zn  Zn1       1.0  0.00000  1.00000  1.00000  1.0000
  H   H1        1.0  0.28333  0.84043  0.80097  1.0000
  H   H2        1.0  0.71667  0.15957  0.19903  1.0000
  H   H3        1.0  0.48659  0.91808  0.86888  1.0000
  H   H4        1.0  0.51341  0.08192  0.13113  1.0000
  H   H5        1.0  0.77312  0.46209  0.62175  1.0000
  H   H6        1.0  0.22688  0.53791  0.37824  1.0000
  H   H7        1.0  0.34522  0.58373  0.84645  1.0000
  H   H8        1.0  0.65478  0.41627  0.15355  1.0000
  H   H9        1.0  0.32654  0.30344  0.98726  1.0000
  H   H10       1.0  0.67345  0.69655  0.01274  1.0000
  C   C1        1.0  0.04833  0.72100  0.63916  1.0000
  C   C2        1.0  0.95166  0.27900  0.36084  1.0000
  C   C3        1.0  0.05625  0.54725  0.72355  1.0000
  C   C4        1.0  0.94376  0.45275  0.27645  1.0000
  C   C5        1.0  0.89914  0.43111  0.70117  1.0000
  C   C6        1.0  0.10086  0.56889  0.29883  1.0000
  C   C7        1.0  0.90454  0.27505  0.78293  1.0000
  C   C8        1.0  0.09546  0.72495  0.21707  1.0000
  C   C9        1.0  0.21636  0.49957  0.82616  1.0000
  C   C10       1.0  0.78365  0.50044  0.17384  1.0000
  C   C11       1.0  0.20611  0.34355  0.90554  1.0000
  C   C12       1.0  0.79389  0.65645  0.09446  1.0000
  C   C13       1.0  0.74203  0.14229  0.76422  1.0000
  C   C14       1.0  0.25797  0.85771  0.23577  1.0000
  N   N1        1.0  0.05220  0.23442  0.88481  1.0000
  N   N2        1.0  0.94780  0.76559  0.11519  1.0000
  O   O1        1.0  0.21863  0.81240  0.65379  1.0000
  O   O2        1.0  0.78137  0.18760  0.34621  1.0000
  O   O3        1.0  0.33159  0.85669  0.88772  1.0000
  O   O4        1.0  0.66841  0.14331  0.11228  1.0000
  O   O5        1.0  0.87329  0.76360  0.56063  1.0000
  O   O6        1.0  0.12671  0.23640  0.43937  1.0000
  O   O7        1.0  0.74752  0.00990  0.85201  1.0000
  O   O8        1.0  0.25247  0.99011  0.14799  1.0000
  O   O9        1.0  0.61172  0.16798  0.66734  1.0000
  O   O10       1.0  0.38828  0.83202  0.33266  1.0000
