data_image0
_chemical_formula_structural       SrCoH10C14N2O10
_chemical_formula_sum              "Sr1 Co1 H10 C14 N2 O10"
_cell_length_a       5.21063
_cell_length_b       7.76652
_cell_length_c       10.3746
_cell_angle_alpha    80.7578
_cell_angle_beta     82.9229
_cell_angle_gamma    77.2214

_space_group_name_H-M_alt    "P 1"
_space_group_IT_number       1

loop_
  _space_group_symop_operation_xyz
  'x, y, z'

loop_
  _atom_site_type_symbol
  _atom_site_label
  _atom_site_symmetry_multiplicity
  _atom_site_fract_x
  _atom_site_fract_y
  _atom_site_fract_z
  _atom_site_occupancy
  Sr  Sr1       1.0  0.50000  1.00000  0.50000  1.0000
  Co  Co1       1.0  0.00000  1.00000  1.00000  1.0000
  H   H1        1.0  0.29471  0.83146  0.79966  1.0000
  H   H2        1.0  0.70528  0.16854  0.20034  1.0000
  H   H3        1.0  0.49170  0.90645  0.87203  1.0000
  H   H4        1.0  0.50830  0.09355  0.12797  1.0000
  H   H5        1.0  0.77753  0.45393  0.62269  1.0000
  H   H6        1.0  0.22247  0.54607  0.37731  1.0000
  H   H7        1.0  0.33458  0.56926  0.85570  1.0000
  H   H8        1.0  0.66542  0.43074  0.14431  1.0000
  H   H9        1.0  0.30890  0.28733  0.00104  1.0000
  H   H10       1.0  0.69110  0.71267  0.99896  1.0000
  C   C1        1.0  0.05388  0.71254  0.63855  1.0000
  C   C2        1.0  0.94612  0.28746  0.36145  1.0000
  C   C3        1.0  0.05571  0.53719  0.72673  1.0000
  C   C4        1.0  0.94429  0.46281  0.27327  1.0000
  C   C5        1.0  0.89991  0.42119  0.70438  1.0000
  C   C6        1.0  0.10009  0.57881  0.29562  1.0000
  C   C7        1.0  0.90219  0.26240  0.78798  1.0000
  C   C8        1.0  0.09781  0.73761  0.21202  1.0000
  C   C9        1.0  0.20820  0.48549  0.83369  1.0000
  C   C10       1.0  0.79180  0.51451  0.16631  1.0000
  C   C11       1.0  0.19545  0.32714  0.91607  1.0000
  C   C12       1.0  0.80455  0.67285  0.08392  1.0000
  C   C13       1.0  0.74782  0.12783  0.77358  1.0000
  C   C14       1.0  0.25218  0.87216  0.22643  1.0000
  N   N1        1.0  0.04502  0.21638  0.89438  1.0000
  N   N2        1.0  0.95497  0.78362  0.10562  1.0000
  O   O1        1.0  0.22653  0.80131  0.65195  1.0000
  O   O2        1.0  0.77346  0.19869  0.34805  1.0000
  O   O3        1.0  0.34063  0.84468  0.88782  1.0000
  O   O4        1.0  0.65937  0.15532  0.11218  1.0000
  O   O5        1.0  0.88182  0.75991  0.55729  1.0000
  O   O6        1.0  0.11817  0.24010  0.44271  1.0000
  O   O7        1.0  0.76861  0.99424  0.86815  1.0000
  O   O8        1.0  0.23138  0.00576  0.13185  1.0000
  O   O9        1.0  0.60905  0.14392  0.68055  1.0000
  O   O10       1.0  0.39095  0.85608  0.31945  1.0000
