data_image0
_chemical_formula_structural       Sr2Zn2H40C28N4O30
_chemical_formula_sum              "Sr2 Zn2 H40 C28 N4 O30"
_cell_length_a       9.22098
_cell_length_b       9.97766
_cell_length_c       14.2343
_cell_angle_alpha    109.021
_cell_angle_beta     92.7824
_cell_angle_gamma    99.8228

_space_group_name_H-M_alt    "P 1"
_space_group_IT_number       1

loop_
  _space_group_symop_operation_xyz
  'x, y, z'

loop_
  _atom_site_type_symbol
  _atom_site_label
  _atom_site_symmetry_multiplicity
  _atom_site_fract_x
  _atom_site_fract_y
  _atom_site_fract_z
  _atom_site_occupancy
  Sr  Sr1       1.0  0.04880  0.03001  0.27901  1.0000
  Sr  Sr2       1.0  0.95119  0.96999  0.72099  1.0000
  Zn  Zn1       1.0  0.50000  0.00000  0.00000  1.0000
  Zn  Zn2       1.0  0.50000  0.50000  0.50000  1.0000
  H   H1        1.0  0.07107  0.78730  0.11078  1.0000
  H   H2        1.0  0.92894  0.21271  0.88921  1.0000
  H   H3        1.0  0.91920  0.75323  0.14570  1.0000
  H   H4        1.0  0.08080  0.24677  0.85429  1.0000
  H   H5        1.0  0.91548  0.86092  0.43316  1.0000
  H   H6        1.0  0.08452  0.13909  0.56684  1.0000
  H   H7        1.0  0.94461  0.74852  0.33261  1.0000
  H   H8        1.0  0.05539  0.25148  0.66739  1.0000
  H   H9        1.0  0.75438  0.13831  0.35779  1.0000
  H   H10       1.0  0.24562  0.86170  0.64221  1.0000
  H   H11       1.0  0.86979  0.27738  0.37085  1.0000
  H   H12       1.0  0.13021  0.72263  0.62914  1.0000
  H   H13       1.0  0.20705  0.32219  0.33644  1.0000
  H   H14       1.0  0.79296  0.67781  0.66356  1.0000
  H   H15       1.0  0.20359  0.31542  0.22323  1.0000
  H   H16       1.0  0.79641  0.68457  0.77677  1.0000
  H   H17       1.0  0.20962  0.01003  0.07992  1.0000
  H   H18       1.0  0.79038  0.98998  0.92008  1.0000
  H   H19       1.0  0.07277  0.92794  1.00000  1.0000
  H   H20       1.0  0.92727  0.07204  0.99998  1.0000
  H   H21       1.0  0.65665  0.69231  0.18806  1.0000
  H   H22       1.0  0.34334  0.30768  0.81193  1.0000
  H   H23       1.0  0.32412  0.04007  0.57056  1.0000
  H   H24       1.0  0.67588  0.95992  0.42944  1.0000
  H   H25       1.0  0.38002  0.09032  0.18794  1.0000
  H   H26       1.0  0.61998  0.90969  0.81207  1.0000
  H   H27       1.0  0.36713  0.21221  0.13509  1.0000
  H   H28       1.0  0.63287  0.78779  0.86491  1.0000
  H   H29       1.0  0.24516  0.70923  0.96275  1.0000
  H   H30       1.0  0.75484  0.29078  0.03724  1.0000
  H   H31       1.0  0.57393  0.27873  0.34936  1.0000
  H   H32       1.0  0.42608  0.72128  0.65065  1.0000
  H   H33       1.0  0.57700  0.40996  0.30752  1.0000
  H   H34       1.0  0.42300  0.59004  0.69249  1.0000
  H   H35       1.0  0.75758  0.43189  0.63064  1.0000
  H   H36       1.0  0.24243  0.56811  0.36936  1.0000
  H   H37       1.0  0.22024  0.50439  0.03197  1.0000
  H   H38       1.0  0.77975  0.49562  0.96802  1.0000
  H   H39       1.0  0.77342  0.23605  0.70320  1.0000
  H   H40       1.0  0.22658  0.76394  0.29679  1.0000
  C   C1        1.0  0.70152  0.92445  0.12258  1.0000
  C   C2        1.0  0.29848  0.07555  0.87742  1.0000
  C   C3        1.0  0.28979  0.24401  0.48459  1.0000
  C   C4        1.0  0.71021  0.75599  0.51541  1.0000
  C   C5        1.0  0.56775  0.80321  0.09862  1.0000
  C   C6        1.0  0.43225  0.19679  0.90137  1.0000
  C   C7        1.0  0.42128  0.23933  0.55048  1.0000
  C   C8        1.0  0.57872  0.76067  0.44952  1.0000
  C   C9        1.0  0.56365  0.69293  0.13841  1.0000
  C   C10       1.0  0.43634  0.30707  0.86158  1.0000
  C   C11       1.0  0.42164  0.12579  0.58694  1.0000
  C   C12       1.0  0.57836  0.87420  0.41306  1.0000
  C   C13       1.0  0.33301  0.70189  0.01386  1.0000
  C   C14       1.0  0.66699  0.29811  0.98613  1.0000
  C   C15       1.0  0.43786  0.58318  0.11552  1.0000
  C   C16       1.0  0.56212  0.41681  0.88448  1.0000
  C   C17       1.0  0.66369  0.34334  0.61951  1.0000
  C   C18       1.0  0.33631  0.65665  0.38049  1.0000
  C   C19       1.0  0.54953  0.12239  0.64233  1.0000
  C   C20       1.0  0.45047  0.87761  0.35767  1.0000
  C   C21       1.0  0.32026  0.58805  0.05175  1.0000
  C   C22       1.0  0.67973  0.41196  0.94825  1.0000
  C   C23       1.0  0.43670  0.46435  0.16050  1.0000
  C   C24       1.0  0.56329  0.53565  0.83950  1.0000
  C   C25       1.0  0.67258  0.23388  0.65913  1.0000
  C   C26       1.0  0.32743  0.76611  0.34087  1.0000
  C   C27       1.0  0.55401  0.99870  0.68110  1.0000
  C   C28       1.0  0.44599  0.00130  0.31890  1.0000
  N   N1        1.0  0.45368  0.80803  0.03767  1.0000
  N   N2        1.0  0.54632  0.19197  0.96232  1.0000
  N   N3        1.0  0.54068  0.34607  0.56667  1.0000
  N   N4        1.0  0.45932  0.65393  0.43333  1.0000
  O   O1        1.0  0.81282  0.91134  0.17173  1.0000
  O   O2        1.0  0.18718  0.08865  0.82828  1.0000
  O   O3        1.0  0.17738  0.14285  0.46416  1.0000
  O   O4        1.0  0.82262  0.85715  0.53584  1.0000
  O   O5        1.0  0.02196  0.74151  0.15588  1.0000
  O   O6        1.0  0.97804  0.25850  0.84412  1.0000
  O   O7        1.0  0.95745  0.85148  0.36887  1.0000
  O   O8        1.0  0.04255  0.14853  0.63113  1.0000
  O   O9        1.0  0.86223  0.17910  0.37135  1.0000
  O   O10       1.0  0.13777  0.82091  0.62864  1.0000
  O   O11       1.0  0.14393  0.28448  0.27120  1.0000
  O   O12       1.0  0.85607  0.71552  0.72880  1.0000
  O   O13       1.0  0.10517  0.95445  0.07101  1.0000
  O   O14       1.0  0.89483  0.04556  0.92898  1.0000
  O   O15       1.0  0.32515  0.00231  0.27185  1.0000
  O   O16       1.0  0.67485  0.99768  0.72815  1.0000
  O   O17       1.0  0.69410  0.02989  0.09219  1.0000
  O   O18       1.0  0.30590  0.97011  0.90781  1.0000
  O   O19       1.0  0.30227  0.34804  0.45001  1.0000
  O   O20       1.0  0.69773  0.65195  0.54999  1.0000
  O   O21       1.0  0.37844  0.10871  0.12314  1.0000
  O   O22       1.0  0.62156  0.89130  0.87686  1.0000
  O   O23       1.0  0.59996  0.38567  0.36906  1.0000
  O   O24       1.0  0.40004  0.61433  0.63094  1.0000
  O   O25       1.0  0.55057  0.47564  0.21728  1.0000
  O   O26       1.0  0.44941  0.52436  0.78272  1.0000
  O   O27       1.0  0.32175  0.36250  0.13624  1.0000
  O   O28       1.0  0.67823  0.63749  0.86375  1.0000
  O   O29       1.0  0.43740  0.90293  0.66430  1.0000
  O   O30       1.0  0.56260  0.09708  0.33572  1.0000
