data_image0
_chemical_formula_structural       Sr2Cu2H12C28N4O16
_chemical_formula_sum              "Sr2 Cu2 H12 C28 N4 O16"
_cell_length_a       8.55695
_cell_length_b       9.83267
_cell_length_c       9.80806
_cell_angle_alpha    59.9321
_cell_angle_beta     88.0043
_cell_angle_gamma    86.0268

_space_group_name_H-M_alt    "P 1"
_space_group_IT_number       1

loop_
  _space_group_symop_operation_xyz
  'x, y, z'

loop_
  _atom_site_type_symbol
  _atom_site_label
  _atom_site_symmetry_multiplicity
  _atom_site_fract_x
  _atom_site_fract_y
  _atom_site_fract_z
  _atom_site_occupancy
  Sr  Sr1       1.0  0.25000  0.98854  0.02308  1.0000
  Sr  Sr2       1.0  0.75000  0.01146  0.97692  1.0000
  Cu  Cu1       1.0  0.50000  0.50000  1.00000  1.0000
  Cu  Cu2       1.0  0.00000  0.50000  1.00000  1.0000
  H   H1        1.0  0.60725  0.34903  0.57541  1.0000
  H   H2        1.0  0.89276  0.07591  0.57551  1.0000
  H   H3        1.0  0.39275  0.65097  0.42459  1.0000
  H   H4        1.0  0.10724  0.92409  0.42449  1.0000
  H   H5        1.0  0.32419  0.05355  0.49076  1.0000
  H   H6        1.0  0.17599  0.45594  0.49076  1.0000
  H   H7        1.0  0.67581  0.94644  0.50924  1.0000
  H   H8        1.0  0.82400  0.54406  0.50924  1.0000
  H   H9        1.0  0.63056  0.52514  0.27778  1.0000
  H   H10       1.0  0.86939  0.19732  0.27791  1.0000
  H   H11       1.0  0.36944  0.47486  0.72222  1.0000
  H   H12       1.0  0.13061  0.80268  0.72209  1.0000
  C   C1        1.0  0.46306  0.18916  0.55395  1.0000
  C   C2        1.0  0.03702  0.25720  0.55400  1.0000
  C   C3        1.0  0.53694  0.81084  0.44605  1.0000
  C   C4        1.0  0.96298  0.74280  0.44599  1.0000
  C   C5        1.0  0.41476  0.25438  0.28812  1.0000
  C   C6        1.0  0.08526  0.45773  0.28815  1.0000
  C   C7        1.0  0.58524  0.74562  0.71188  1.0000
  C   C8        1.0  0.91474  0.54227  0.71185  1.0000
  C   C9        1.0  0.55134  0.32194  0.49425  1.0000
  C   C10       1.0  0.94866  0.18414  0.49433  1.0000
  C   C11       1.0  0.44866  0.67805  0.50575  1.0000
  C   C12       1.0  0.05133  0.81586  0.50567  1.0000
  C   C13       1.0  0.39438  0.15519  0.44818  1.0000
  C   C14       1.0  0.10572  0.39689  0.44822  1.0000
  C   C15       1.0  0.60562  0.84480  0.55182  1.0000
  C   C16       1.0  0.89428  0.60311  0.55178  1.0000
  C   C17       1.0  0.34473  0.22924  0.16476  1.0000
  C   C18       1.0  0.15532  0.60613  0.16470  1.0000
  C   C19       1.0  0.65527  0.77076  0.83524  1.0000
  C   C20       1.0  0.84468  0.39387  0.83530  1.0000
  C   C21       1.0  0.56568  0.41843  0.33130  1.0000
  C   C22       1.0  0.93427  0.25055  0.33139  1.0000
  C   C23       1.0  0.43432  0.58157  0.66871  1.0000
  C   C24       1.0  0.06573  0.74946  0.66861  1.0000
  C   C25       1.0  0.43453  0.08527  0.72857  1.0000
  C   C26       1.0  0.06559  0.18640  0.72865  1.0000
  C   C27       1.0  0.56547  0.91473  0.27142  1.0000
  C   C28       1.0  0.93441  0.81360  0.27135  1.0000
  N   N1        1.0  0.49793  0.38398  0.23149  1.0000
  N   N2        1.0  0.00202  0.38476  0.23154  1.0000
  N   N3        1.0  0.50207  0.61602  0.76852  1.0000
  N   N4        1.0  0.99798  0.61524  0.76846  1.0000
  O   O1        1.0  0.36588  0.33783  0.02024  1.0000
  O   O2        1.0  0.13426  0.64184  0.02021  1.0000
  O   O3        1.0  0.63412  0.66217  0.97975  1.0000
  O   O4        1.0  0.86574  0.35816  0.97980  1.0000
  O   O5        1.0  0.34619  0.97269  0.77059  1.0000
  O   O6        1.0  0.15390  0.25692  0.77076  1.0000
  O   O7        1.0  0.65380  0.02731  0.22941  1.0000
  O   O8        1.0  0.84610  0.74308  0.22924  1.0000
  O   O9        1.0  0.27077  0.10962  0.20454  1.0000
  O   O10       1.0  0.22923  0.68608  0.20438  1.0000
  O   O11       1.0  0.72923  0.89038  0.79546  1.0000
  O   O12       1.0  0.77077  0.31392  0.79562  1.0000
  O   O13       1.0  0.49595  0.12082  0.82231  1.0000
  O   O14       1.0  0.00419  0.05708  0.82230  1.0000
  O   O15       1.0  0.50405  0.87918  0.17769  1.0000
  O   O16       1.0  0.99580  0.94292  0.17770  1.0000
