data_image0
_chemical_formula_structural       Sr4H20C28N4O20
_chemical_formula_sum              "Sr4 H20 C28 N4 O20"
_cell_length_a       6.46127
_cell_length_b       7.18866
_cell_length_c       18.5861
_cell_angle_alpha    89.9998
_cell_angle_beta     90.0003
_cell_angle_gamma    89.9995

_space_group_name_H-M_alt    "P 1"
_space_group_IT_number       1

loop_
  _space_group_symop_operation_xyz
  'x, y, z'

loop_
  _atom_site_type_symbol
  _atom_site_label
  _atom_site_symmetry_multiplicity
  _atom_site_fract_x
  _atom_site_fract_y
  _atom_site_fract_z
  _atom_site_occupancy
  Sr  Sr1       1.0  0.56075  0.53098  0.69305  1.0000
  Sr  Sr2       1.0  0.93926  0.46902  0.19305  1.0000
  Sr  Sr3       1.0  0.43924  0.03099  0.80694  1.0000
  Sr  Sr4       1.0  0.06075  0.96902  0.30695  1.0000
  H   H1        1.0  0.94013  0.57291  0.47660  1.0000
  H   H2        1.0  0.55987  0.42709  0.97660  1.0000
  H   H3        1.0  0.05986  0.07292  0.02340  1.0000
  H   H4        1.0  0.44013  0.92708  0.52340  1.0000
  H   H5        1.0  0.52310  0.39009  0.38671  1.0000
  H   H6        1.0  0.97690  0.60990  0.88670  1.0000
  H   H7        1.0  0.47690  0.89010  0.11330  1.0000
  H   H8        1.0  0.02310  0.10989  0.61330  1.0000
  H   H9        1.0  0.88754  0.33522  0.78869  1.0000
  H   H10       1.0  0.61247  0.66477  0.28869  1.0000
  H   H11       1.0  0.11247  0.83523  0.71131  1.0000
  H   H12       1.0  0.38753  0.16478  0.21131  1.0000
  H   H13       1.0  0.00010  0.49663  0.74379  1.0000
  H   H14       1.0  0.49991  0.50337  0.24379  1.0000
  H   H15       1.0  0.99990  0.99662  0.75621  1.0000
  H   H16       1.0  0.50009  0.00337  0.25621  1.0000
  H   H17       1.0  0.67016  0.40890  0.51211  1.0000
  H   H18       1.0  0.82985  0.59110  0.01210  1.0000
  H   H19       1.0  0.32983  0.90890  0.98790  1.0000
  H   H20       1.0  0.17016  0.09109  0.48789  1.0000
  C   C1        1.0  0.19395  0.52982  0.54943  1.0000
  C   C2        1.0  0.30606  0.47019  0.04942  1.0000
  C   C3        1.0  0.80604  0.02982  0.95058  1.0000
  C   C4        1.0  0.69395  0.97019  0.45057  1.0000
  C   C5        1.0  0.10185  0.53243  0.48145  1.0000
  C   C6        1.0  0.39815  0.46757  0.98144  1.0000
  C   C7        1.0  0.89814  0.03244  0.01855  1.0000
  C   C8        1.0  0.60185  0.96756  0.51855  1.0000
  C   C9        1.0  0.21917  0.48022  0.42164  1.0000
  C   C10       1.0  0.28083  0.51978  0.92163  1.0000
  C   C11       1.0  0.78083  0.98023  0.07837  1.0000
  C   C12       1.0  0.71917  0.01977  0.57836  1.0000
  C   C13       1.0  0.42633  0.43027  0.43215  1.0000
  C   C14       1.0  0.07367  0.56973  0.93214  1.0000
  C   C15       1.0  0.57367  0.93027  0.06786  1.0000
  C   C16       1.0  0.92633  0.06972  0.56786  1.0000
  C   C17       1.0  0.50789  0.44059  0.50144  1.0000
  C   C18       1.0  0.99211  0.55941  0.00143  1.0000
  C   C19       1.0  0.49210  0.94060  0.99857  1.0000
  C   C20       1.0  0.00790  0.05940  0.49857  1.0000
  C   C21       1.0  0.06581  0.56500  0.61636  1.0000
  C   C22       1.0  0.43420  0.43501  0.11635  1.0000
  C   C23       1.0  0.93419  0.06498  0.88365  1.0000
  C   C24       1.0  0.56580  0.93501  0.38364  1.0000
  C   C25       1.0  0.12431  0.47272  0.34774  1.0000
  C   C26       1.0  0.37569  0.52728  0.84773  1.0000
  C   C27       1.0  0.87570  0.97274  0.15226  1.0000
  C   C28       1.0  0.62430  0.02729  0.65226  1.0000
  N   N1        1.0  0.39543  0.48872  0.55929  1.0000
  N   N2        1.0  0.10457  0.51128  0.05928  1.0000
  N   N3        1.0  0.60455  0.98872  0.94072  1.0000
  N   N4        1.0  0.89544  0.01127  0.44072  1.0000
  O   O1        1.0  0.16413  0.58645  0.67610  1.0000
  O   O2        1.0  0.33588  0.41355  0.17610  1.0000
  O   O3        1.0  0.83587  0.08644  0.82390  1.0000
  O   O4        1.0  0.66413  0.91355  0.32390  1.0000
  O   O5        1.0  0.87223  0.56629  0.60956  1.0000
  O   O6        1.0  0.62776  0.43374  0.10955  1.0000
  O   O7        1.0  0.12775  0.06625  0.89045  1.0000
  O   O8        1.0  0.37225  0.93373  0.39045  1.0000
  O   O9        1.0  0.08208  0.62441  0.31604  1.0000
  O   O10       1.0  0.41791  0.37559  0.81603  1.0000
  O   O11       1.0  0.91792  0.12441  0.18397  1.0000
  O   O12       1.0  0.58207  0.87560  0.68397  1.0000
  O   O13       1.0  0.09126  0.31451  0.32006  1.0000
  O   O14       1.0  0.40876  0.68549  0.82006  1.0000
  O   O15       1.0  0.90875  0.81452  0.17994  1.0000
  O   O16       1.0  0.59126  0.18549  0.67994  1.0000
  O   O17       1.0  0.87938  0.46727  0.77495  1.0000
  O   O18       1.0  0.62062  0.53272  0.27495  1.0000
  O   O19       1.0  0.12061  0.96727  0.72505  1.0000
  O   O20       1.0  0.37938  0.03273  0.22505  1.0000
