data_image0
_chemical_formula_structural       Sr2Cu2H32C28N4O26
_chemical_formula_sum              "Sr2 Cu2 H32 C28 N4 O26"
_cell_length_a       6.86902
_cell_length_b       8.19605
_cell_length_c       17.3033
_cell_angle_alpha    93.3112
_cell_angle_beta     98.2858
_cell_angle_gamma    112.357

_space_group_name_H-M_alt    "P 1"
_space_group_IT_number       1

loop_
  _space_group_symop_operation_xyz
  'x, y, z'

loop_
  _atom_site_type_symbol
  _atom_site_label
  _atom_site_symmetry_multiplicity
  _atom_site_fract_x
  _atom_site_fract_y
  _atom_site_fract_z
  _atom_site_occupancy
  Sr  Sr1       1.0  0.64146  0.30764  0.46247  1.0000
  Sr  Sr2       1.0  0.35854  0.69235  0.53752  1.0000
  Cu  Cu1       1.0  0.74521  0.68304  0.99054  1.0000
  Cu  Cu2       1.0  0.25479  0.31696  0.00946  1.0000
  H   H1        1.0  0.24088  0.07741  0.54376  1.0000
  H   H2        1.0  0.75912  0.92260  0.45624  1.0000
  H   H3        1.0  0.17756  0.99491  0.45693  1.0000
  H   H4        1.0  0.82244  0.00509  0.54307  1.0000
  H   H5        1.0  0.42609  0.04776  0.29022  1.0000
  H   H6        1.0  0.57392  0.95224  0.70978  1.0000
  H   H7        1.0  0.38996  0.92219  0.35836  1.0000
  H   H8        1.0  0.61003  0.07780  0.64164  1.0000
  H   H9        1.0  0.89415  0.31421  0.33478  1.0000
  H   H10       1.0  0.10584  0.68578  0.66522  1.0000
  H   H11       1.0  0.78467  0.40478  0.27740  1.0000
  H   H12       1.0  0.21532  0.59522  0.72260  1.0000
  H   H13       1.0  0.93150  0.72467  0.54404  1.0000
  H   H14       1.0  0.06850  0.27533  0.45596  1.0000
  H   H15       1.0  0.92739  0.71455  0.45219  1.0000
  H   H16       1.0  0.07261  0.28545  0.54780  1.0000
  H   H17       1.0  0.69700  0.23791  0.76175  1.0000
  H   H18       1.0  0.30299  0.76209  0.23825  1.0000
  H   H19       1.0  0.63517  0.72351  0.70527  1.0000
  H   H20       1.0  0.36483  0.27649  0.29473  1.0000
  H   H21       1.0  0.74144  0.34290  0.90251  1.0000
  H   H22       1.0  0.25857  0.65709  0.09749  1.0000
  H   H23       1.0  0.18229  0.70753  0.98360  1.0000
  H   H24       1.0  0.81771  0.29247  0.01641  1.0000
  H   H25       1.0  0.20194  0.89465  0.02955  1.0000
  H   H26       1.0  0.79806  0.10535  0.97045  1.0000
  H   H27       1.0  0.71785  0.01629  0.07354  1.0000
  H   H28       1.0  0.28214  0.98371  0.92646  1.0000
  H   H29       1.0  0.81960  0.15223  0.21234  1.0000
  H   H30       1.0  0.18040  0.84777  0.78766  1.0000
  H   H31       1.0  0.90126  0.67821  0.27722  1.0000
  H   H32       1.0  0.09875  0.32180  0.72278  1.0000
  C   C1        1.0  0.63128  0.41464  0.63490  1.0000
  C   C2        1.0  0.36873  0.58536  0.36510  1.0000
  C   C3        1.0  0.65705  0.47124  0.72146  1.0000
  C   C4        1.0  0.34295  0.52876  0.27854  1.0000
  C   C5        1.0  0.68881  0.36475  0.77789  1.0000
  C   C6        1.0  0.31119  0.63525  0.22211  1.0000
  C   C7        1.0  0.65388  0.63472  0.74718  1.0000
  C   C8        1.0  0.34612  0.36527  0.25282  1.0000
  C   C9        1.0  0.71235  0.42197  0.85723  1.0000
  C   C10       1.0  0.28765  0.57803  0.14277  1.0000
  C   C11       1.0  0.67838  0.68399  0.82720  1.0000
  C   C12       1.0  0.32163  0.31601  0.17280  1.0000
  C   C13       1.0  0.67352  0.85549  0.86022  1.0000
  C   C14       1.0  0.32648  0.14451  0.13978  1.0000
  C   C15       1.0  0.76119  0.94597  0.11984  1.0000
  C   C16       1.0  0.23880  0.05403  0.88016  1.0000
  C   C17       1.0  0.80623  0.69032  0.15367  1.0000
  C   C18       1.0  0.19377  0.30968  0.84633  1.0000
  C   C19       1.0  0.78168  0.50719  0.12289  1.0000
  C   C20       1.0  0.21833  0.49281  0.87711  1.0000
  C   C21       1.0  0.81832  0.02095  0.19823  1.0000
  C   C22       1.0  0.18168  0.97905  0.80176  1.0000
  C   C23       1.0  0.86284  0.75589  0.23301  1.0000
  C   C24       1.0  0.13715  0.24412  0.76699  1.0000
  C   C25       1.0  0.87285  0.92592  0.25578  1.0000
  C   C26       1.0  0.12715  0.07409  0.74422  1.0000
  C   C27       1.0  0.94006  0.00157  0.34130  1.0000
  C   C28       1.0  0.05994  0.99843  0.65870  1.0000
  N   N1        1.0  0.70600  0.57815  0.88120  1.0000
  N   N2        1.0  0.29400  0.42185  0.11881  1.0000
  N   N3        1.0  0.76069  0.78629  0.09804  1.0000
  N   N4        1.0  0.23932  0.21371  0.90196  1.0000
  O   O1        1.0  0.44240  0.50452  0.41419  1.0000
  O   O2        1.0  0.55761  0.49547  0.58581  1.0000
  O   O3        1.0  0.30394  0.04850  0.49965  1.0000
  O   O4        1.0  0.69606  0.95150  0.50035  1.0000
  O   O5        1.0  0.44992  0.04802  0.34784  1.0000
  O   O6        1.0  0.55007  0.95197  0.65216  1.0000
  O   O7        1.0  0.81334  0.39209  0.33364  1.0000
  O   O8        1.0  0.18666  0.60791  0.66636  1.0000
  O   O9        1.0  0.94520  0.65307  0.49818  1.0000
  O   O10       1.0  0.05481  0.34693  0.50182  1.0000
  O   O11       1.0  0.68832  0.28991  0.61510  1.0000
  O   O12       1.0  0.31169  0.71009  0.38491  1.0000
  O   O13       1.0  0.69979  0.87979  0.93677  1.0000
  O   O14       1.0  0.30022  0.12021  0.06323  1.0000
  O   O15       1.0  0.64786  0.96428  0.81677  1.0000
  O   O16       1.0  0.35213  0.03571  0.18322  1.0000
  O   O17       1.0  0.26175  0.52964  0.95333  1.0000
  O   O18       1.0  0.73825  0.47036  0.04667  1.0000
  O   O19       1.0  0.10692  0.76942  0.01004  1.0000
  O   O20       1.0  0.89308  0.23058  0.98996  1.0000
  O   O21       1.0  0.79696  0.39974  0.16916  1.0000
  O   O22       1.0  0.20305  0.60027  0.83085  1.0000
  O   O23       1.0  0.00993  0.16836  0.35853  1.0000
  O   O24       1.0  0.99007  0.83164  0.64147  1.0000
  O   O25       1.0  0.92451  0.89077  0.39127  1.0000
  O   O26       1.0  0.07549  0.10924  0.60873  1.0000
