data_image0
_chemical_formula_structural       Cu2H16C12N2Cl2O2
_chemical_formula_sum              "Cu2 H16 C12 N2 Cl2 O2"
_cell_length_a       6.04012
_cell_length_b       8.2359
_cell_length_c       8.17018
_cell_angle_alpha    72.0379
_cell_angle_beta     77.5435
_cell_angle_gamma    71.4668

_space_group_name_H-M_alt    "P 1"
_space_group_IT_number       1

loop_
  _space_group_symop_operation_xyz
  'x, y, z'

loop_
  _atom_site_type_symbol
  _atom_site_label
  _atom_site_symmetry_multiplicity
  _atom_site_fract_x
  _atom_site_fract_y
  _atom_site_fract_z
  _atom_site_occupancy
  Cu  Cu1       1.0  0.30758  0.00077  0.89807  1.0000
  Cu  Cu2       1.0  0.69244  0.99922  0.10193  1.0000
  H   H1        1.0  0.24852  0.37675  0.95178  1.0000
  H   H2        1.0  0.75148  0.62326  0.04821  1.0000
  H   H3        1.0  0.54812  0.38640  0.90999  1.0000
  H   H4        1.0  0.45188  0.61360  0.09002  1.0000
  H   H5        1.0  0.40615  0.39289  0.73745  1.0000
  H   H6        1.0  0.59387  0.60711  0.26255  1.0000
  H   H7        1.0  0.86080  0.17952  0.74685  1.0000
  H   H8        1.0  0.13918  0.82050  0.25314  1.0000
  H   H9        1.0  0.56939  0.13331  0.57083  1.0000
  H   H10       1.0  0.43059  0.86668  0.42918  1.0000
  H   H11       1.0  0.74758  0.36518  0.45524  1.0000
  H   H12       1.0  0.25242  0.63482  0.54475  1.0000
  H   H13       1.0  0.48737  0.30740  0.26993  1.0000
  H   H14       1.0  0.51263  0.69259  0.73008  1.0000
  H   H15       1.0  0.06366  0.43226  0.21137  1.0000
  H   H16       1.0  0.93634  0.56776  0.78862  1.0000
  C   C1        1.0  0.42176  0.33426  0.87680  1.0000
  C   C2        1.0  0.57824  0.66575  0.12320  1.0000
  C   C3        1.0  0.99279  0.21390  0.63801  1.0000
  C   C4        1.0  0.00722  0.78610  0.36199  1.0000
  C   C5        1.0  0.38989  0.18748  0.53858  1.0000
  C   C6        1.0  0.61010  0.81252  0.46142  1.0000
  C   C7        1.0  0.93211  0.31533  0.47509  1.0000
  C   C8        1.0  0.06788  0.68466  0.52490  1.0000
  C   C9        1.0  0.34197  0.28585  0.37188  1.0000
  C   C10       1.0  0.65802  0.71413  0.62812  1.0000
  C   C11       1.0  0.10813  0.35246  0.33961  1.0000
  C   C12       1.0  0.89188  0.64752  0.66039  1.0000
  N   N1        1.0  0.21872  0.15247  0.66949  1.0000
  N   N2        1.0  0.78126  0.84752  0.33053  1.0000
  Cl  Cl1       1.0  0.10607  0.80547  0.91644  1.0000
  Cl  Cl2       1.0  0.89395  0.19453  0.08356  1.0000
  O   O1        1.0  0.50539  0.14682  0.91290  1.0000
  O   O2        1.0  0.49461  0.85318  0.08709  1.0000
