data_image0
_chemical_formula_structural       H52Pd4C52S4Br8N4
_chemical_formula_sum              "H52 Pd4 C52 S4 Br8 N4"
_cell_length_a       8.87243
_cell_length_b       11.5109
_cell_length_c       13.8035
_cell_angle_alpha    90
_cell_angle_beta     90
_cell_angle_gamma    90

_space_group_name_H-M_alt    "P 1"
_space_group_IT_number       1

loop_
  _space_group_symop_operation_xyz
  'x, y, z'

loop_
  _atom_site_type_symbol
  _atom_site_label
  _atom_site_symmetry_multiplicity
  _atom_site_fract_x
  _atom_site_fract_y
  _atom_site_fract_z
  _atom_site_occupancy
  H   H1        1.0  0.78540  0.85477  0.34592  1.0000
  H   H2        1.0  0.28540  0.14522  0.65408  1.0000
  H   H3        1.0  0.28540  0.35478  0.15408  1.0000
  H   H4        1.0  0.78540  0.64523  0.84592  1.0000
  H   H5        1.0  0.59431  0.90818  0.35420  1.0000
  H   H6        1.0  0.09431  0.09182  0.64580  1.0000
  H   H7        1.0  0.09431  0.40818  0.14580  1.0000
  H   H8        1.0  0.59431  0.59182  0.85420  1.0000
  H   H9        1.0  0.97992  0.98470  0.30431  1.0000
  H   H10       1.0  0.47992  0.01529  0.69569  1.0000
  H   H11       1.0  0.47992  0.48471  0.19569  1.0000
  H   H12       1.0  0.97992  0.51530  0.80431  1.0000
  H   H13       1.0  0.05521  0.18190  0.24367  1.0000
  H   H14       1.0  0.55521  0.81810  0.75634  1.0000
  H   H15       1.0  0.55521  0.68190  0.25634  1.0000
  H   H16       1.0  0.05521  0.31810  0.74367  1.0000
  H   H17       1.0  0.86930  0.34723  0.26383  1.0000
  H   H18       1.0  0.36930  0.65277  0.73617  1.0000
  H   H19       1.0  0.36930  0.84723  0.23617  1.0000
  H   H20       1.0  0.86930  0.15277  0.76383  1.0000
  H   H21       1.0  0.66624  0.41938  0.31117  1.0000
  H   H22       1.0  0.16624  0.58062  0.68883  1.0000
  H   H23       1.0  0.16624  0.91938  0.18883  1.0000
  H   H24       1.0  0.66624  0.08062  0.81117  1.0000
  H   H25       1.0  0.58834  0.35736  0.42014  1.0000
  H   H26       1.0  0.08834  0.64263  0.57986  1.0000
  H   H27       1.0  0.08834  0.85737  0.07986  1.0000
  H   H28       1.0  0.58834  0.14263  0.92014  1.0000
  H   H29       1.0  0.50578  0.32460  0.30451  1.0000
  H   H30       1.0  0.00578  0.67540  0.69549  1.0000
  H   H31       1.0  0.00578  0.82460  0.19549  1.0000
  H   H32       1.0  0.50578  0.17540  0.80451  1.0000
  H   H33       1.0  0.42582  0.81417  0.43556  1.0000
  H   H34       1.0  0.92583  0.18583  0.56444  1.0000
  H   H35       1.0  0.92583  0.31417  0.06444  1.0000
  H   H36       1.0  0.42583  0.68583  0.93556  1.0000
  H   H37       1.0  0.30148  0.62543  0.44938  1.0000
  H   H38       1.0  0.80148  0.37457  0.55062  1.0000
  H   H39       1.0  0.80148  0.12543  0.05062  1.0000
  H   H40       1.0  0.30148  0.87457  0.94938  1.0000
  H   H41       1.0  0.41923  0.46446  0.54625  1.0000
  H   H42       1.0  0.91923  0.53554  0.45375  1.0000
  H   H43       1.0  0.91923  0.96446  0.95375  1.0000
  H   H44       1.0  0.41923  0.03554  0.04625  1.0000
  H   H45       1.0  0.66341  0.49855  0.62864  1.0000
  H   H46       1.0  0.16341  0.50145  0.37136  1.0000
  H   H47       1.0  0.16341  0.99855  0.87136  1.0000
  H   H48       1.0  0.66341  0.00145  0.12864  1.0000
  H   H49       1.0  0.79869  0.68735  0.60634  1.0000
  H   H50       1.0  0.29869  0.31265  0.39366  1.0000
  H   H51       1.0  0.29869  0.18735  0.89366  1.0000
  H   H52       1.0  0.79869  0.81265  0.10634  1.0000
  Pd  Pd1       1.0  0.46272  0.12351  0.42990  1.0000
  Pd  Pd2       1.0  0.96272  0.87649  0.57010  1.0000
  Pd  Pd3       1.0  0.96272  0.62351  0.07010  1.0000
  Pd  Pd4       1.0  0.46272  0.37649  0.92990  1.0000
  C   C1        1.0  0.71130  0.92093  0.37775  1.0000
  C   C2        1.0  0.21130  0.07907  0.62225  1.0000
  C   C3        1.0  0.21130  0.42093  0.12225  1.0000
  C   C4        1.0  0.71130  0.57907  0.87775  1.0000
  C   C5        1.0  0.66374  0.13680  0.36625  1.0000
  C   C6        1.0  0.16374  0.86320  0.63375  1.0000
  C   C7        1.0  0.16374  0.63680  0.13374  1.0000
  C   C8        1.0  0.66374  0.36320  0.86625  1.0000
  C   C9        1.0  0.76127  0.04136  0.35178  1.0000
  C   C10       1.0  0.26127  0.95864  0.64822  1.0000
  C   C11       1.0  0.26127  0.54136  0.14822  1.0000
  C   C12       1.0  0.76127  0.45864  0.85178  1.0000
  C   C13       1.0  0.90271  0.05813  0.30997  1.0000
  C   C14       1.0  0.40271  0.94186  0.69003  1.0000
  C   C15       1.0  0.40271  0.55814  0.19003  1.0000
  C   C16       1.0  0.90271  0.44187  0.80997  1.0000
  C   C17       1.0  0.94555  0.16789  0.27699  1.0000
  C   C18       1.0  0.44554  0.83211  0.72301  1.0000
  C   C19       1.0  0.44554  0.66789  0.22301  1.0000
  C   C20       1.0  0.94555  0.33211  0.77699  1.0000
  C   C21       1.0  0.84624  0.25877  0.28793  1.0000
  C   C22       1.0  0.34624  0.74123  0.71207  1.0000
  C   C23       1.0  0.34624  0.75877  0.21207  1.0000
  C   C24       1.0  0.84624  0.24123  0.78793  1.0000
  C   C25       1.0  0.61116  0.34327  0.34302  1.0000
  C   C26       1.0  0.11116  0.65673  0.65697  1.0000
  C   C27       1.0  0.11116  0.84327  0.15697  1.0000
  C   C28       1.0  0.61116  0.15673  0.84302  1.0000
  C   C29       1.0  0.62423  0.76087  0.51690  1.0000
  C   C30       1.0  0.12423  0.23913  0.48310  1.0000
  C   C31       1.0  0.12423  0.26087  0.98310  1.0000
  C   C32       1.0  0.62423  0.73913  0.01690  1.0000
  C   C33       1.0  0.48298  0.74398  0.47399  1.0000
  C   C34       1.0  0.98298  0.25603  0.52601  1.0000
  C   C35       1.0  0.98298  0.24398  0.02601  1.0000
  C   C36       1.0  0.48298  0.75602  0.97399  1.0000
  C   C37       1.0  0.41148  0.63665  0.48303  1.0000
  C   C38       1.0  0.91148  0.36335  0.51697  1.0000
  C   C39       1.0  0.91148  0.13665  0.01697  1.0000
  C   C40       1.0  0.41148  0.86335  0.98303  1.0000
  C   C41       1.0  0.47655  0.54760  0.53751  1.0000
  C   C42       1.0  0.97655  0.45240  0.46249  1.0000
  C   C43       1.0  0.97655  0.04760  0.96249  1.0000
  C   C44       1.0  0.47655  0.95240  0.03751  1.0000
  C   C45       1.0  0.61482  0.56643  0.58326  1.0000
  C   C46       1.0  0.11482  0.43357  0.41674  1.0000
  C   C47       1.0  0.11482  0.06643  0.91674  1.0000
  C   C48       1.0  0.61481  0.93357  0.08326  1.0000
  C   C49       1.0  0.68999  0.67200  0.57192  1.0000
  C   C50       1.0  0.18999  0.32800  0.42808  1.0000
  C   C51       1.0  0.18999  0.17200  0.92808  1.0000
  C   C52       1.0  0.68999  0.82800  0.07192  1.0000
  S   S1        1.0  0.71175  0.89989  0.50961  1.0000
  S   S2        1.0  0.21175  0.10011  0.49038  1.0000
  S   S3        1.0  0.21175  0.39989  0.99038  1.0000
  S   S4        1.0  0.71175  0.60011  0.00961  1.0000
  Br  Br1       1.0  0.36031  0.07647  0.26855  1.0000
  Br  Br2       1.0  0.86031  0.92353  0.73145  1.0000
  Br  Br3       1.0  0.86031  0.57647  0.23145  1.0000
  Br  Br4       1.0  0.36031  0.42353  0.76855  1.0000
  Br  Br5       1.0  0.56987  0.20194  0.58121  1.0000
  Br  Br6       1.0  0.06987  0.79806  0.41879  1.0000
  Br  Br7       1.0  0.06987  0.70194  0.91879  1.0000
  Br  Br8       1.0  0.56987  0.29806  0.08121  1.0000
  N   N1        1.0  0.71104  0.24211  0.33248  1.0000
  N   N2        1.0  0.21104  0.75789  0.66752  1.0000
  N   N3        1.0  0.21104  0.74211  0.16752  1.0000
  N   N4        1.0  0.71104  0.25789  0.83248  1.0000
