data_image0
_chemical_formula_structural       Cu4H24C20S2N8O12
_chemical_formula_sum              "Cu4 H24 C20 S2 N8 O12"
_cell_length_a       9.20672
_cell_length_b       9.29645
_cell_length_c       10.7742
_cell_angle_alpha    84.1418
_cell_angle_beta     84.5662
_cell_angle_gamma    83.8531

_space_group_name_H-M_alt    "P 1"
_space_group_IT_number       1

loop_
  _space_group_symop_operation_xyz
  'x, y, z'

loop_
  _atom_site_type_symbol
  _atom_site_label
  _atom_site_symmetry_multiplicity
  _atom_site_fract_x
  _atom_site_fract_y
  _atom_site_fract_z
  _atom_site_occupancy
  Cu  Cu1       1.0  0.34482  0.14555  0.94276  1.0000
  Cu  Cu2       1.0  0.64167  0.87164  0.07236  1.0000
  Cu  Cu3       1.0  0.06992  0.92837  0.66169  1.0000
  Cu  Cu4       1.0  0.91807  0.07453  0.34933  1.0000
  H   H1        1.0  0.57472  0.27476  0.04490  1.0000
  H   H2        1.0  0.51320  0.68836  0.94873  1.0000
  H   H3        1.0  0.51885  0.43106  0.99538  1.0000
  H   H4        1.0  0.67965  0.64064  0.95874  1.0000
  H   H5        1.0  0.81262  0.08346  0.64328  1.0000
  H   H6        1.0  0.16532  0.91173  0.36170  1.0000
  H   H7        1.0  0.53739  0.22022  0.68970  1.0000
  H   H8        1.0  0.44284  0.77893  0.31648  1.0000
  H   H9        1.0  0.17466  0.44743  0.54690  1.0000
  H   H10       1.0  0.82573  0.55117  0.45762  1.0000
  H   H11       1.0  0.03031  0.38005  0.34877  1.0000
  H   H12       1.0  0.97216  0.61766  0.65476  1.0000
  H   H13       1.0  0.53378  0.90020  0.63665  1.0000
  H   H14       1.0  0.45457  0.10252  0.35292  1.0000
  H   H15       1.0  0.56322  0.74424  0.54722  1.0000
  H   H16       1.0  0.41069  0.26549  0.43188  1.0000
  H   H17       1.0  0.63345  0.73623  0.69858  1.0000
  H   H18       1.0  0.37044  0.26309  0.27112  1.0000
  H   H19       1.0  0.32606  0.47365  0.74327  1.0000
  H   H20       1.0  0.67851  0.52104  0.25785  1.0000
  H   H21       1.0  0.51407  0.49354  0.76083  1.0000
  H   H22       1.0  0.49628  0.50256  0.22095  1.0000
  H   H23       1.0  0.44893  0.51023  0.60588  1.0000
  H   H24       1.0  0.53769  0.49233  0.38297  1.0000
  C   C1        1.0  0.86399  0.84744  0.87580  1.0000
  C   C2        1.0  0.11506  0.15118  0.13048  1.0000
  C   C3        1.0  0.75485  0.96614  0.83211  1.0000
  C   C4        1.0  0.22603  0.03539  0.17634  1.0000
  C   C5        1.0  0.73767  0.06539  0.72572  1.0000
  C   C6        1.0  0.24197  0.93322  0.28111  1.0000
  C   C7        1.0  0.59761  0.13635  0.74733  1.0000
  C   C8        1.0  0.38275  0.86421  0.26014  1.0000
  C   C9        1.0  0.20707  0.16019  0.72860  1.0000
  C   C10       1.0  0.78071  0.84203  0.28268  1.0000
  C   C11       1.0  0.14666  0.21349  0.60940  1.0000
  C   C12       1.0  0.84484  0.78773  0.39970  1.0000
  C   C13       1.0  0.13605  0.34482  0.53209  1.0000
  C   C14       1.0  0.86135  0.65461  0.47398  1.0000
  C   C15       1.0  0.06275  0.31334  0.43202  1.0000
  C   C16       1.0  0.93524  0.68582  0.57375  1.0000
  C   C17       1.0  0.54413  0.78134  0.64131  1.0000
  C   C18       1.0  0.44610  0.22147  0.34208  1.0000
  C   C19       1.0  0.42144  0.52967  0.70460  1.0000
  C   C20       1.0  0.57888  0.46780  0.28765  1.0000
  S   S1        1.0  0.37496  0.72087  0.71436  1.0000
  S   S2        1.0  0.62430  0.27520  0.28723  1.0000
  N   N1        1.0  0.63026  0.98158  0.91036  1.0000
  N   N2        1.0  0.35191  0.02411  0.10006  1.0000
  N   N3        1.0  0.53588  0.08248  0.86012  1.0000
  N   N4        1.0  0.44614  0.92217  0.14927  1.0000
  N   N5        1.0  0.08262  0.11280  0.55626  1.0000
  N   N6        1.0  0.90612  0.88928  0.45419  1.0000
  N   N7        1.0  0.03270  0.17201  0.45056  1.0000
  N   N8        1.0  0.95987  0.82880  0.55791  1.0000
  O   O1        1.0  0.82391  0.77435  0.98000  1.0000
  O   O2        1.0  0.15059  0.21792  0.02345  1.0000
  O   O3        1.0  0.98603  0.81397  0.81638  1.0000
  O   O4        1.0  0.99385  0.18668  0.19172  1.0000
  O   O5        1.0  0.48483  0.33569  0.02709  1.0000
  O   O6        1.0  0.58641  0.60471  0.94378  1.0000
  O   O7        1.0  0.27866  0.24263  0.78266  1.0000
  O   O8        1.0  0.70749  0.76134  0.22849  1.0000
  O   O9        1.0  0.18621  0.02968  0.77176  1.0000
  O   O10       1.0  0.79947  0.97322  0.23980  1.0000
  O   O11       1.0  0.26270  0.76561  0.61912  1.0000
  O   O12       1.0  0.72037  0.23262  0.39533  1.0000
