data_image0
_chemical_formula_structural       Cd4H20C40N12O16
_chemical_formula_sum              "Cd4 H20 C40 N12 O16"
_cell_length_a       7.48036
_cell_length_b       12.1291
_cell_length_c       13.1792
_cell_angle_alpha    84.9788
_cell_angle_beta     73.5155
_cell_angle_gamma    72.0192

_space_group_name_H-M_alt    "P 1"
_space_group_IT_number       1

loop_
  _space_group_symop_operation_xyz
  'x, y, z'

loop_
  _atom_site_type_symbol
  _atom_site_label
  _atom_site_symmetry_multiplicity
  _atom_site_fract_x
  _atom_site_fract_y
  _atom_site_fract_z
  _atom_site_occupancy
  Cd  Cd1       1.0  0.13465  0.98504  0.64796  1.0000
  Cd  Cd2       1.0  0.76772  0.01506  0.35175  1.0000
  Cd  Cd3       1.0  0.87034  0.51484  0.14808  1.0000
  Cd  Cd4       1.0  0.53278  0.48507  0.85189  1.0000
  H   H1        1.0  0.75009  0.77656  0.93331  1.0000
  H   H2        1.0  0.45988  0.22405  0.06659  1.0000
  H   H3        1.0  0.27729  0.72350  0.43338  1.0000
  H   H4        1.0  0.43295  0.27637  0.56677  1.0000
  H   H5        1.0  0.55761  0.87162  0.62520  1.0000
  H   H6        1.0  0.05515  0.12788  0.37454  1.0000
  H   H7        1.0  0.18010  0.62815  0.12553  1.0000
  H   H8        1.0  0.93283  0.37185  0.87454  1.0000
  H   H9        1.0  0.91383  0.82278  0.54375  1.0000
  H   H10       1.0  0.28028  0.17681  0.45646  1.0000
  H   H11       1.0  0.48727  0.67714  0.04373  1.0000
  H   H12       1.0  0.20725  0.32293  0.95613  1.0000
  H   H13       1.0  0.13391  0.63355  0.59288  1.0000
  H   H14       1.0  0.35955  0.36620  0.40799  1.0000
  H   H15       1.0  0.51770  0.86654  0.09253  1.0000
  H   H16       1.0  0.47611  0.13355  0.90739  1.0000
  H   H17       1.0  0.98293  0.50308  0.71982  1.0000
  H   H18       1.0  0.20500  0.49697  0.28109  1.0000
  H   H19       1.0  0.23587  0.99729  0.21925  1.0000
  H   H20       1.0  0.45211  0.00286  0.78052  1.0000
  C   C1        1.0  0.85919  0.87241  0.81959  1.0000
  C   C2        1.0  0.55143  0.12790  0.18008  1.0000
  C   C3        1.0  0.48263  0.62743  0.31980  1.0000
  C   C4        1.0  0.42870  0.37244  0.68022  1.0000
  C   C5        1.0  0.05562  0.79858  0.82115  1.0000
  C   C6        1.0  0.67559  0.20164  0.17863  1.0000
  C   C7        1.0  0.60508  0.70133  0.32123  1.0000
  C   C8        1.0  0.62666  0.29849  0.67871  1.0000
  C   C9        1.0  0.11770  0.69837  0.87993  1.0000
  C   C10       1.0  0.69622  0.30190  0.11996  1.0000
  C   C11       1.0  0.56652  0.80168  0.37990  1.0000
  C   C12       1.0  0.74740  0.19821  0.61998  1.0000
  C   C13       1.0  0.00722  0.63598  0.96211  1.0000
  C   C14       1.0  0.60544  0.36451  0.03786  1.0000
  C   C15       1.0  0.39336  0.86419  0.46197  1.0000
  C   C16       1.0  0.71906  0.13572  0.53787  1.0000
  C   C17       1.0  0.37161  0.73459  0.77139  1.0000
  C   C18       1.0  0.87815  0.26530  0.22839  1.0000
  C   C19       1.0  0.85688  0.76539  0.27155  1.0000
  C   C20       1.0  0.89293  0.23449  0.72844  1.0000
  C   C21       1.0  0.57948  0.71304  0.71681  1.0000
  C   C22       1.0  0.00972  0.28675  0.28319  1.0000
  C   C23       1.0  0.04313  0.78697  0.21684  1.0000
  C   C24       1.0  0.04600  0.21294  0.78320  1.0000
  C   C25       1.0  0.65384  0.79021  0.64487  1.0000
  C   C26       1.0  0.08917  0.20944  0.35513  1.0000
  C   C27       1.0  0.19470  0.70970  0.14496  1.0000
  C   C28       1.0  0.04838  0.29027  0.85502  1.0000
  C   C29       1.0  0.85429  0.76218  0.59835  1.0000
  C   C30       1.0  0.21479  0.23746  0.40186  1.0000
  C   C31       1.0  0.36703  0.73775  0.09831  1.0000
  C   C32       1.0  0.20222  0.26223  0.90163  1.0000
  C   C33       1.0  0.97623  0.65834  0.62549  1.0000
  C   C34       1.0  0.25959  0.34145  0.37511  1.0000
  C   C35       1.0  0.38488  0.84175  0.12524  1.0000
  C   C36       1.0  0.35114  0.15828  0.87471  1.0000
  C   C37       1.0  0.89177  0.58508  0.69715  1.0000
  C   C38       1.0  0.17356  0.41484  0.30349  1.0000
  C   C39       1.0  0.22702  0.91511  0.19679  1.0000
  C   C40       1.0  0.33837  0.08492  0.80311  1.0000
  N   N1        1.0  0.21775  0.82041  0.75308  1.0000
  N   N2        1.0  0.79157  0.17962  0.24670  1.0000
  N   N3        1.0  0.78916  0.67947  0.25324  1.0000
  N   N4        1.0  0.72075  0.32034  0.74678  1.0000
  N   N5        1.0  0.31542  0.66106  0.84801  1.0000
  N   N6        1.0  0.82507  0.33893  0.15183  1.0000
  N   N7        1.0  0.72692  0.83901  0.34804  1.0000
  N   N8        1.0  0.91331  0.16094  0.65185  1.0000
  N   N9        1.0  0.69892  0.61094  0.74133  1.0000
  N   N10       1.0  0.05121  0.38896  0.25898  1.0000
  N   N11       1.0  0.06016  0.88921  0.24113  1.0000
  N   N12       1.0  0.18986  0.11078  0.75881  1.0000
  O   O1        1.0  0.83639  0.95449  0.75569  1.0000
  O   O2        1.0  0.54693  0.04569  0.24385  1.0000
  O   O3        1.0  0.54194  0.54531  0.25593  1.0000
  O   O4        1.0  0.34226  0.45467  0.74396  1.0000
  O   O5        1.0  0.70628  0.84971  0.88606  1.0000
  O   O6        1.0  0.44204  0.15082  0.11372  1.0000
  O   O7        1.0  0.30702  0.65016  0.38626  1.0000
  O   O8        1.0  0.34207  0.34962  0.61391  1.0000
  O   O9        1.0  0.82104  0.67670  0.99396  1.0000
  O   O10       1.0  0.49145  0.32400  0.00614  1.0000
  O   O11       1.0  0.24788  0.82352  0.49376  1.0000
  O   O12       1.0  0.56462  0.17644  0.50611  1.0000
  O   O13       1.0  0.10171  0.54413  0.00161  1.0000
  O   O14       1.0  0.64790  0.45622  0.99829  1.0000
  O   O15       1.0  0.39580  0.95605  0.50152  1.0000
  O   O16       1.0  0.85301  0.04385  0.49837  1.0000
