data_image0
_chemical_formula_structural       Zn2H38C52N10O12
_chemical_formula_sum              "Zn2 H38 C52 N10 O12"
_cell_length_a       9.6073
_cell_length_b       11.302
_cell_length_c       12.7727
_cell_angle_alpha    66.5875
_cell_angle_beta     76.0928
_cell_angle_gamma    84.8177

_space_group_name_H-M_alt    "P 1"
_space_group_IT_number       1

loop_
  _space_group_symop_operation_xyz
  'x, y, z'

loop_
  _atom_site_type_symbol
  _atom_site_label
  _atom_site_symmetry_multiplicity
  _atom_site_fract_x
  _atom_site_fract_y
  _atom_site_fract_z
  _atom_site_occupancy
  Zn  Zn1       1.0  0.09512  0.46182  0.80083  1.0000
  Zn  Zn2       1.0  0.90489  0.53818  0.19917  1.0000
  H   H1        1.0  0.99837  0.23971  0.44544  1.0000
  H   H2        1.0  0.00163  0.76028  0.55457  1.0000
  H   H3        1.0  0.61873  0.49589  0.78768  1.0000
  H   H4        1.0  0.38126  0.50412  0.21232  1.0000
  H   H5        1.0  0.95334  0.18181  0.26880  1.0000
  H   H6        1.0  0.04665  0.81818  0.73121  1.0000
  H   H7        1.0  0.28567  0.69668  0.93953  1.0000
  H   H8        1.0  0.71433  0.30333  0.06047  1.0000
  H   H9        1.0  0.33929  0.81262  0.04711  1.0000
  H   H10       1.0  0.66072  0.18737  0.95290  1.0000
  H   H11       1.0  0.48445  0.92151  0.95887  1.0000
  H   H12       1.0  0.51556  0.07848  0.04115  1.0000
  H   H13       1.0  0.50795  0.78634  0.08536  1.0000
  H   H14       1.0  0.49206  0.21364  0.91465  1.0000
  H   H15       1.0  0.72714  0.76527  0.91789  1.0000
  H   H16       1.0  0.27287  0.23473  0.08211  1.0000
  H   H17       1.0  0.94110  0.33750  0.70190  1.0000
  H   H18       1.0  0.05890  0.66250  0.29811  1.0000
  H   H19       1.0  0.32715  0.53771  0.58050  1.0000
  H   H20       1.0  0.67284  0.46229  0.41950  1.0000
  H   H21       1.0  0.38647  0.48717  0.39861  1.0000
  H   H22       1.0  0.61353  0.51281  0.60140  1.0000
  H   H23       1.0  0.21832  0.34378  0.37975  1.0000
  H   H24       1.0  0.78168  0.65621  0.62026  1.0000
  H   H25       1.0  0.64049  0.01926  0.73619  1.0000
  H   H26       1.0  0.35952  0.98073  0.26381  1.0000
  H   H27       1.0  0.53508  0.86111  0.68124  1.0000
  H   H28       1.0  0.46493  0.13887  0.31877  1.0000
  H   H29       1.0  0.63297  0.86310  0.47734  1.0000
  H   H30       1.0  0.36703  0.13689  0.52267  1.0000
  H   H31       1.0  0.95404  0.33224  0.05449  1.0000
  H   H32       1.0  0.04594  0.66776  0.94551  1.0000
  H   H33       1.0  0.08788  0.93441  0.16526  1.0000
  H   H34       1.0  0.91213  0.06559  0.83473  1.0000
  H   H35       1.0  0.22705  0.98545  0.95855  1.0000
  H   H36       1.0  0.77298  0.01455  0.04145  1.0000
  H   H37       1.0  0.23025  0.21005  0.81154  1.0000
  H   H38       1.0  0.76975  0.78996  0.18846  1.0000
  C   C1        1.0  0.84543  0.60425  0.80741  1.0000
  C   C2        1.0  0.15457  0.39574  0.19258  1.0000
  C   C3        1.0  0.69018  0.63025  0.84668  1.0000
  C   C4        1.0  0.30982  0.36976  0.15331  1.0000
  C   C5        1.0  0.58760  0.56762  0.82580  1.0000
  C   C6        1.0  0.41239  0.43238  0.17419  1.0000
  C   C7        1.0  0.44264  0.59721  0.85325  1.0000
  C   C8        1.0  0.55736  0.40280  0.14674  1.0000
  C   C9        1.0  0.33780  0.53673  0.81950  1.0000
  C   C10       1.0  0.66220  0.46328  0.18049  1.0000
  C   C11       1.0  0.39969  0.68040  0.91222  1.0000
  C   C12       1.0  0.60031  0.31961  0.08778  1.0000
  C   C13       1.0  0.50085  0.73819  0.93986  1.0000
  C   C14       1.0  0.49916  0.26181  0.06013  1.0000
  C   C15       1.0  0.45540  0.81938  0.01113  1.0000
  C   C16       1.0  0.54461  0.18060  0.98888  1.0000
  C   C17       1.0  0.64669  0.71689  0.90143  1.0000
  C   C18       1.0  0.35332  0.28311  0.09857  1.0000
  C   C19       1.0  0.03852  0.36746  0.63381  1.0000
  C   C20       1.0  0.96148  0.63254  0.36619  1.0000
  C   C21       1.0  0.25513  0.48194  0.56342  1.0000
  C   C22       1.0  0.74488  0.51806  0.43658  1.0000
  C   C23       1.0  0.28757  0.45161  0.46481  1.0000
  C   C24       1.0  0.71243  0.54839  0.53519  1.0000
  C   C25       1.0  0.19336  0.37366  0.45322  1.0000
  C   C26       1.0  0.80664  0.62634  0.54679  1.0000
  C   C27       1.0  0.06523  0.33069  0.53786  1.0000
  C   C28       1.0  0.93477  0.66932  0.46214  1.0000
  C   C29       1.0  0.85380  0.18860  0.60279  1.0000
  C   C30       1.0  0.14619  0.81141  0.39720  1.0000
  C   C31       1.0  0.78758  0.09770  0.56845  1.0000
  C   C32       1.0  0.21242  0.90229  0.43155  1.0000
  C   C33       1.0  0.67740  0.01477  0.65035  1.0000
  C   C34       1.0  0.32261  0.98522  0.34966  1.0000
  C   C35       1.0  0.61982  0.92806  0.61903  1.0000
  C   C36       1.0  0.38020  0.07192  0.38097  1.0000
  C   C37       1.0  0.67335  0.92804  0.50747  1.0000
  C   C38       1.0  0.32665  0.07195  0.49254  1.0000
  C   C39       1.0  0.78360  0.01472  0.43144  1.0000
  C   C40       1.0  0.21640  0.98528  0.56856  1.0000
  C   C41       1.0  0.84386  0.01394  0.31139  1.0000
  C   C42       1.0  0.15613  0.98607  0.68861  1.0000
  C   C43       1.0  0.01529  0.25344  0.03668  1.0000
  C   C44       1.0  0.98470  0.74656  0.96331  1.0000
  C   C45       1.0  0.01122  0.13025  0.12536  1.0000
  C   C46       1.0  0.98877  0.86975  0.87464  1.0000
  C   C47       1.0  0.08778  0.03089  0.09801  1.0000
  C   C48       1.0  0.91223  0.96911  0.90199  1.0000
  C   C49       1.0  0.16700  0.05945  0.98424  1.0000
  C   C50       1.0  0.83301  0.94056  0.01575  1.0000
  C   C51       1.0  0.16914  0.18463  0.90113  1.0000
  C   C52       1.0  0.83087  0.81537  0.09887  1.0000
  N   N1        1.0  0.13331  0.43944  0.64578  1.0000
  N   N2        1.0  0.86669  0.56056  0.35422  1.0000
  N   N3        1.0  0.97351  0.25222  0.52347  1.0000
  N   N4        1.0  0.02649  0.74778  0.47653  1.0000
  N   N5        1.0  0.83999  0.09790  0.46119  1.0000
  N   N6        1.0  0.16000  0.90210  0.53881  1.0000
  N   N7        1.0  0.93600  0.11281  0.23936  1.0000
  N   N8        1.0  0.06399  0.88718  0.76064  1.0000
  N   N9        1.0  0.09360  0.27919  0.92737  1.0000
  N   N10       1.0  0.90640  0.72081  0.07262  1.0000
  O   O1        1.0  0.88384  0.48546  0.84702  1.0000
  O   O2        1.0  0.11616  0.51454  0.15299  1.0000
  O   O3        1.0  0.92794  0.69621  0.73549  1.0000
  O   O4        1.0  0.07206  0.30378  0.26450  1.0000
  O   O5        1.0  0.37949  0.45767  0.77189  1.0000
  O   O6        1.0  0.62050  0.54235  0.22810  1.0000
  O   O7        1.0  0.20433  0.57162  0.84033  1.0000
  O   O8        1.0  0.79567  0.42839  0.15967  1.0000
  O   O9        1.0  0.80314  0.19974  0.69731  1.0000
  O   O10       1.0  0.19683  0.80028  0.30268  1.0000
  O   O11       1.0  0.80867  0.92901  0.28401  1.0000
  O   O12       1.0  0.19130  0.07101  0.71598  1.0000
