data_image0
_chemical_formula_structural       Zn2H42C62N10O14
_chemical_formula_sum              "Zn2 H42 C62 N10 O14"
_cell_length_a       10.2874
_cell_length_b       10.6523
_cell_length_c       13.6499
_cell_angle_alpha    90
_cell_angle_beta     109.208
_cell_angle_gamma    90

_space_group_name_H-M_alt    "P 1"
_space_group_IT_number       1

loop_
  _space_group_symop_operation_xyz
  'x, y, z'

loop_
  _atom_site_type_symbol
  _atom_site_label
  _atom_site_symmetry_multiplicity
  _atom_site_fract_x
  _atom_site_fract_y
  _atom_site_fract_z
  _atom_site_occupancy
  Zn  Zn1       1.0  0.54061  0.62023  0.66849  1.0000
  Zn  Zn2       1.0  0.04060  0.37976  0.66850  1.0000
  H   H1        1.0  0.03812  0.71866  0.65036  1.0000
  H   H2        1.0  0.53812  0.28132  0.65034  1.0000
  H   H3        1.0  0.43690  0.26038  0.40813  1.0000
  H   H4        1.0  0.93689  0.73962  0.40812  1.0000
  H   H5        1.0  0.69314  0.04459  0.34606  1.0000
  H   H6        1.0  0.19312  0.95542  0.34605  1.0000
  H   H7        1.0  0.25708  0.15729  0.25875  1.0000
  H   H8        1.0  0.75707  0.84270  0.25874  1.0000
  H   H9        1.0  0.96861  0.44756  0.26515  1.0000
  H   H10       1.0  0.46859  0.55243  0.26515  1.0000
  H   H11       1.0  0.14750  0.54711  0.41644  1.0000
  H   H12       1.0  0.64749  0.45289  0.41644  1.0000
  H   H13       1.0  0.74006  0.20228  0.10418  1.0000
  H   H14       1.0  0.24005  0.79771  0.10418  1.0000
  H   H15       1.0  0.58417  0.30809  0.94399  1.0000
  H   H16       1.0  0.08418  0.69189  0.94400  1.0000
  H   H17       1.0  0.92926  0.50838  0.91050  1.0000
  H   H18       1.0  0.42926  0.49162  0.91051  1.0000
  H   H19       1.0  0.08620  0.40503  0.07114  1.0000
  H   H20       1.0  0.58621  0.59498  0.07115  1.0000
  H   H21       1.0  0.25096  0.66628  0.63507  1.0000
  H   H22       1.0  0.75097  0.33370  0.63505  1.0000
  H   H23       1.0  0.60765  0.80383  0.85011  1.0000
  H   H24       1.0  0.10765  0.19620  0.85011  1.0000
  H   H25       1.0  0.47379  0.95488  0.92242  1.0000
  H   H26       1.0  0.97377  0.04514  0.92242  1.0000
  H   H27       1.0  0.83363  0.71184  0.70809  1.0000
  H   H28       1.0  0.33363  0.28816  0.70808  1.0000
  H   H29       1.0  0.46009  0.77616  0.47741  1.0000
  H   H30       1.0  0.96008  0.22384  0.47740  1.0000
  H   H31       1.0  0.80551  0.01827  0.49595  1.0000
  H   H32       1.0  0.30550  0.98172  0.49595  1.0000
  H   H33       1.0  0.37174  0.96295  0.15952  1.0000
  H   H34       1.0  0.87171  0.03706  0.15952  1.0000
  H   H35       1.0  0.25056  0.09755  0.00525  1.0000
  H   H36       1.0  0.75054  0.90245  0.00524  1.0000
  H   H37       1.0  0.33658  0.31702  0.99749  1.0000
  H   H38       1.0  0.83657  0.68299  0.99750  1.0000
  H   H39       1.0  0.64749  0.27269  0.27960  1.0000
  H   H40       1.0  0.14748  0.72731  0.27960  1.0000
  H   H41       1.0  0.21661  0.96236  0.84114  1.0000
  H   H42       1.0  0.71660  0.03764  0.84112  1.0000
  C   C1        1.0  0.41015  0.46683  0.51146  1.0000
  C   C2        1.0  0.91015  0.53317  0.51146  1.0000
  C   C3        1.0  0.30340  0.41037  0.42029  1.0000
  C   C4        1.0  0.80340  0.58963  0.42028  1.0000
  C   C5        1.0  0.33410  0.30048  0.37595  1.0000
  C   C6        1.0  0.83411  0.69952  0.37595  1.0000
  C   C7        1.0  0.23495  0.24328  0.29319  1.0000
  C   C8        1.0  0.73495  0.75672  0.29319  1.0000
  C   C9        1.0  0.10404  0.29637  0.25494  1.0000
  C   C10       1.0  0.60404  0.70363  0.25495  1.0000
  C   C11       1.0  0.07134  0.40721  0.29673  1.0000
  C   C12       1.0  0.57133  0.59279  0.29673  1.0000
  C   C13       1.0  0.17152  0.46349  0.37969  1.0000
  C   C14       1.0  0.67152  0.53652  0.37969  1.0000
  C   C15       1.0  0.92095  0.29648  0.09442  1.0000
  C   C16       1.0  0.42095  0.70352  0.09442  1.0000
  C   C17       1.0  0.78062  0.26800  0.06030  1.0000
  C   C18       1.0  0.28062  0.73198  0.06030  1.0000
  C   C19       1.0  0.69428  0.32757  0.97228  1.0000
  C   C20       1.0  0.19429  0.67242  0.97229  1.0000
  C   C21       1.0  0.74782  0.41529  0.91931  1.0000
  C   C22       1.0  0.24781  0.58471  0.91930  1.0000
  C   C23       1.0  0.65459  0.47862  0.82538  1.0000
  C   C24       1.0  0.15458  0.52138  0.82538  1.0000
  C   C25       1.0  0.88911  0.44259  0.95468  1.0000
  C   C26       1.0  0.38911  0.55742  0.95468  1.0000
  C   C27       1.0  0.97640  0.38369  0.04259  1.0000
  C   C28       1.0  0.47641  0.61632  0.04259  1.0000
  C   C29       1.0  0.29678  0.73251  0.69793  1.0000
  C   C30       1.0  0.79678  0.26748  0.69791  1.0000
  C   C31       1.0  0.49574  0.80938  0.81919  1.0000
  C   C32       1.0  0.99573  0.19062  0.81919  1.0000
  C   C33       1.0  0.42081  0.89317  0.85790  1.0000
  C   C34       1.0  0.92081  0.10684  0.85789  1.0000
  C   C35       1.0  0.21455  0.81421  0.73222  1.0000
  C   C36       1.0  0.71455  0.18580  0.73221  1.0000
  C   C37       1.0  0.98484  0.90421  0.65626  1.0000
  C   C38       1.0  0.48483  0.09578  0.65626  1.0000
  C   C39       1.0  0.83713  0.86876  0.60566  1.0000
  C   C40       1.0  0.33712  0.13124  0.60566  1.0000
  C   C41       1.0  0.77626  0.76970  0.64176  1.0000
  C   C42       1.0  0.27625  0.23030  0.64175  1.0000
  C   C43       1.0  0.56672  0.80570  0.51301  1.0000
  C   C44       1.0  0.06671  0.19430  0.51300  1.0000
  C   C45       1.0  0.62007  0.90538  0.47138  1.0000
  C   C46       1.0  0.12006  0.09461  0.47137  1.0000
  C   C47       1.0  0.75693  0.93939  0.52129  1.0000
  C   C48       1.0  0.25692  0.06061  0.52129  1.0000
  C   C49       1.0  0.52558  0.96878  0.37692  1.0000
  C   C50       1.0  0.02556  0.03123  0.37692  1.0000
  C   C51       1.0  0.51677  0.10883  0.23166  1.0000
  C   C52       1.0  0.01676  0.89117  0.23165  1.0000
  C   C53       1.0  0.40462  0.05844  0.15303  1.0000
  C   C54       1.0  0.90460  0.94156  0.15303  1.0000
  C   C55       1.0  0.33895  0.13357  0.06764  1.0000
  C   C56       1.0  0.83892  0.86642  0.06765  1.0000
  C   C57       1.0  0.38693  0.25547  0.06321  1.0000
  C   C58       1.0  0.88690  0.74453  0.06322  1.0000
  C   C59       1.0  0.55905  0.23147  0.21967  1.0000
  C   C60       1.0  0.05904  0.76854  0.21967  1.0000
  C   C61       1.0  0.27826  0.89756  0.81322  1.0000
  C   C62       1.0  0.77826  0.10245  0.81321  1.0000
  N   N1        1.0  0.43419  0.73195  0.73988  1.0000
  N   N2        1.0  0.93418  0.26805  0.73987  1.0000
  N   N3        1.0  0.07198  0.80432  0.68513  1.0000
  N   N4        1.0  0.57198  0.19567  0.68512  1.0000
  N   N5        1.0  0.64209  0.74162  0.59692  1.0000
  N   N6        1.0  0.14209  0.25838  0.59691  1.0000
  N   N7        1.0  0.58795  0.04014  0.32211  1.0000
  N   N8        1.0  0.08793  0.95986  0.32210  1.0000
  N   N9        1.0  0.49597  0.30361  0.13754  1.0000
  N   N10       1.0  0.99595  0.69639  0.13754  1.0000
  O   O1        1.0  0.38323  0.57575  0.54196  1.0000
  O   O2        1.0  0.88324  0.42426  0.54197  1.0000
  O   O3        1.0  0.52095  0.40856  0.55574  1.0000
  O   O4        1.0  0.02095  0.59145  0.55573  1.0000
  O   O5        1.0  0.53155  0.44323  0.78469  1.0000
  O   O6        1.0  0.03154  0.55676  0.78469  1.0000
  O   O7        1.0  0.70563  0.57132  0.78793  1.0000
  O   O8        1.0  0.20563  0.42867  0.78793  1.0000
  O   O9        1.0  0.00525  0.22991  0.17880  1.0000
  O   O10       1.0  0.50525  0.77009  0.17880  1.0000
  O   O11       1.0  0.02131  0.01559  0.66804  1.0000
  O   O12       1.0  0.52130  0.98440  0.66804  1.0000
  O   O13       1.0  0.39835  0.95574  0.35149  1.0000
  O   O14       1.0  0.89834  0.04426  0.35149  1.0000
