data_image0
_chemical_formula_structural       Mn8As8H32C48S20N8
_chemical_formula_sum              "Mn8 As8 H32 C48 S20 N8"
_cell_length_a       11.8117
_cell_length_b       12.352
_cell_length_c       12.3682
_cell_angle_alpha    112.27
_cell_angle_beta     90
_cell_angle_gamma    90

_space_group_name_H-M_alt    "P 1"
_space_group_IT_number       1

loop_
  _space_group_symop_operation_xyz
  'x, y, z'

loop_
  _atom_site_type_symbol
  _atom_site_label
  _atom_site_symmetry_multiplicity
  _atom_site_fract_x
  _atom_site_fract_y
  _atom_site_fract_z
  _atom_site_occupancy
  Mn  Mn1       1.0  0.79256  0.27710  0.13875  1.0000
  Mn  Mn2       1.0  0.29256  0.22289  0.86125  1.0000
  Mn  Mn3       1.0  0.20743  0.72289  0.86126  1.0000
  Mn  Mn4       1.0  0.70744  0.77710  0.13875  1.0000
  Mn  Mn5       1.0  0.65445  0.01215  0.00417  1.0000
  Mn  Mn6       1.0  0.15445  0.48785  0.99583  1.0000
  Mn  Mn7       1.0  0.34555  0.98785  0.99583  1.0000
  Mn  Mn8       1.0  0.84556  0.51215  0.00417  1.0000
  As  As1       1.0  0.20079  0.25740  0.12226  1.0000
  As  As2       1.0  0.70081  0.24259  0.87774  1.0000
  As  As3       1.0  0.79920  0.74259  0.87774  1.0000
  As  As4       1.0  0.29920  0.75740  0.12227  1.0000
  As  As5       1.0  0.49952  0.25512  0.12697  1.0000
  As  As6       1.0  0.99954  0.24488  0.87303  1.0000
  As  As7       1.0  0.50046  0.74488  0.87303  1.0000
  As  As8       1.0  0.00047  0.75512  0.12697  1.0000
  H   H1        1.0  0.98828  0.08258  0.10913  1.0000
  H   H2        1.0  0.48828  0.41741  0.89088  1.0000
  H   H3        1.0  0.01171  0.91741  0.89088  1.0000
  H   H4        1.0  0.51172  0.58259  0.10912  1.0000
  H   H5        1.0  0.11837  0.03051  0.23965  1.0000
  H   H6        1.0  0.61838  0.46948  0.76036  1.0000
  H   H7        1.0  0.88163  0.96949  0.76036  1.0000
  H   H8        1.0  0.38163  0.53051  0.23964  1.0000
  H   H9        1.0  0.12282  0.15735  0.45503  1.0000
  H   H10       1.0  0.62282  0.34265  0.54497  1.0000
  H   H11       1.0  0.87719  0.84266  0.54497  1.0000
  H   H12       1.0  0.37718  0.65735  0.45502  1.0000
  H   H13       1.0  0.04385  0.33162  0.62078  1.0000
  H   H14       1.0  0.54384  0.16838  0.37922  1.0000
  H   H15       1.0  0.95616  0.66838  0.37923  1.0000
  H   H16       1.0  0.45616  0.83163  0.62078  1.0000
  H   H17       1.0  0.91028  0.49736  0.68982  1.0000
  H   H18       1.0  0.41028  0.00265  0.31018  1.0000
  H   H19       1.0  0.08972  0.50265  0.31018  1.0000
  H   H20       1.0  0.58972  0.99736  0.68982  1.0000
  H   H21       1.0  0.75943  0.61991  0.64336  1.0000
  H   H22       1.0  0.25943  0.88009  0.35664  1.0000
  H   H23       1.0  0.24057  0.38009  0.35665  1.0000
  H   H24       1.0  0.74057  0.11991  0.64335  1.0000
  H   H25       1.0  0.64978  0.66154  0.49244  1.0000
  H   H26       1.0  0.14978  0.83845  0.50756  1.0000
  H   H27       1.0  0.35022  0.33846  0.50756  1.0000
  H   H28       1.0  0.85022  0.16154  0.49244  1.0000
  H   H29       1.0  0.67490  0.53136  0.28038  1.0000
  H   H30       1.0  0.17489  0.96864  0.71961  1.0000
  H   H31       1.0  0.32510  0.46864  0.71962  1.0000
  H   H32       1.0  0.82510  0.03137  0.28038  1.0000
  C   C1        1.0  0.99220  0.13701  0.20214  1.0000
  C   C2        1.0  0.49220  0.36298  0.79787  1.0000
  C   C3        1.0  0.00780  0.86299  0.79787  1.0000
  C   C4        1.0  0.50780  0.63701  0.20213  1.0000
  C   C5        1.0  0.06507  0.10784  0.27712  1.0000
  C   C6        1.0  0.56507  0.39215  0.72288  1.0000
  C   C7        1.0  0.93494  0.89215  0.72288  1.0000
  C   C8        1.0  0.43494  0.60785  0.27712  1.0000
  C   C9        1.0  0.06744  0.17774  0.39466  1.0000
  C   C10       1.0  0.56744  0.32226  0.60534  1.0000
  C   C11       1.0  0.93257  0.82226  0.60535  1.0000
  C   C12       1.0  0.43257  0.67774  0.39465  1.0000
  C   C13       1.0  0.99586  0.27666  0.43758  1.0000
  C   C14       1.0  0.49585  0.22334  0.56242  1.0000
  C   C15       1.0  0.00415  0.72334  0.56242  1.0000
  C   C16       1.0  0.50415  0.77667  0.43758  1.0000
  C   C17       1.0  0.92533  0.29958  0.35557  1.0000
  C   C18       1.0  0.42532  0.20042  0.64443  1.0000
  C   C19       1.0  0.07468  0.70042  0.64443  1.0000
  C   C20       1.0  0.57467  0.79959  0.35557  1.0000
  C   C21       1.0  0.98945  0.35053  0.55864  1.0000
  C   C22       1.0  0.48945  0.14948  0.44136  1.0000
  C   C23       1.0  0.01055  0.64948  0.44137  1.0000
  C   C24       1.0  0.51055  0.85053  0.55863  1.0000
  C   C25       1.0  0.91544  0.44231  0.59699  1.0000
  C   C26       1.0  0.41544  0.05769  0.40301  1.0000
  C   C27       1.0  0.08456  0.55769  0.40301  1.0000
  C   C28       1.0  0.58456  0.94232  0.59699  1.0000
  C   C29       1.0  0.84441  0.46879  0.51669  1.0000
  C   C30       1.0  0.34440  0.03121  0.48330  1.0000
  C   C31       1.0  0.15559  0.53121  0.48331  1.0000
  C   C32       1.0  0.65559  0.96880  0.51669  1.0000
  C   C33       1.0  0.85108  0.39902  0.39533  1.0000
  C   C34       1.0  0.35107  0.10098  0.60467  1.0000
  C   C35       1.0  0.14893  0.60098  0.60468  1.0000
  C   C36       1.0  0.64892  0.89903  0.39532  1.0000
  C   C37       1.0  0.76829  0.56385  0.55121  1.0000
  C   C38       1.0  0.26828  0.93615  0.44878  1.0000
  C   C39       1.0  0.23172  0.43616  0.44879  1.0000
  C   C40       1.0  0.73172  0.06385  0.55121  1.0000
  C   C41       1.0  0.70717  0.58728  0.46738  1.0000
  C   C42       1.0  0.20717  0.91272  0.53262  1.0000
  C   C43       1.0  0.29283  0.41272  0.53263  1.0000
  C   C44       1.0  0.79284  0.08728  0.46738  1.0000
  C   C45       1.0  0.72106  0.51499  0.34905  1.0000
  C   C46       1.0  0.22105  0.98501  0.65094  1.0000
  C   C47       1.0  0.27895  0.48501  0.65095  1.0000
  C   C48       1.0  0.77895  0.01499  0.34906  1.0000
  S   S1        1.0  0.34894  0.17354  0.19485  1.0000
  S   S2        1.0  0.84894  0.32646  0.80516  1.0000
  S   S3        1.0  0.65106  0.82645  0.80516  1.0000
  S   S4        1.0  0.15106  0.67354  0.19485  1.0000
  S   S5        1.0  0.18549  0.10219  0.95030  1.0000
  S   S6        1.0  0.68549  0.39780  0.04970  1.0000
  S   S7        1.0  0.81451  0.89781  0.04970  1.0000
  S   S8        1.0  0.31451  0.60219  0.95030  1.0000
  S   S9        1.0  0.30401  0.37723  0.06002  1.0000
  S   S10       1.0  0.80402  0.12276  0.93999  1.0000
  S   S11       1.0  0.69598  0.62276  0.93999  1.0000
  S   S12       1.0  0.19598  0.87723  0.06002  1.0000
  S   S13       1.0  0.64107  0.17212  0.19760  1.0000
  S   S14       1.0  0.14108  0.32789  0.80240  1.0000
  S   S15       1.0  0.35892  0.82788  0.80240  1.0000
  S   S16       1.0  0.85892  0.67212  0.19760  1.0000
  S   S17       1.0  0.49462  0.11776  0.94119  1.0000
  S   S18       1.0  0.99463  0.38223  0.05880  1.0000
  S   S19       1.0  0.50537  0.88223  0.05880  1.0000
  S   S20       1.0  0.00538  0.61777  0.94120  1.0000
  N   N1        1.0  0.92375  0.22993  0.23982  1.0000
  N   N2        1.0  0.42374  0.27007  0.76018  1.0000
  N   N3        1.0  0.07626  0.77007  0.76018  1.0000
  N   N4        1.0  0.57625  0.72994  0.23981  1.0000
  N   N5        1.0  0.78991  0.42258  0.31375  1.0000
  N   N6        1.0  0.28991  0.07742  0.68624  1.0000
  N   N7        1.0  0.21009  0.57742  0.68625  1.0000
  N   N8        1.0  0.71009  0.92259  0.31375  1.0000
