data_image0
_chemical_formula_structural       Ni2H52C40N4O12
_chemical_formula_sum              "Ni2 H52 C40 N4 O12"
_cell_length_a       8.47345
_cell_length_b       8.56218
_cell_length_c       14.7378
_cell_angle_alpha    90
_cell_angle_beta     90
_cell_angle_gamma    110.757

_space_group_name_H-M_alt    "P 1"
_space_group_IT_number       1

loop_
  _space_group_symop_operation_xyz
  'x, y, z'

loop_
  _atom_site_type_symbol
  _atom_site_label
  _atom_site_symmetry_multiplicity
  _atom_site_fract_x
  _atom_site_fract_y
  _atom_site_fract_z
  _atom_site_occupancy
  Ni  Ni1       1.0  0.00000  0.00000  0.00000  1.0000
  Ni  Ni2       1.0  0.50000  0.50000  0.50000  1.0000
  H   H1        1.0  0.19218  0.93399  0.89463  1.0000
  H   H2        1.0  0.30782  0.56600  0.39463  1.0000
  H   H3        1.0  0.80782  0.06600  0.10537  1.0000
  H   H4        1.0  0.69218  0.43400  0.60537  1.0000
  H   H5        1.0  0.79920  0.89874  0.72738  1.0000
  H   H6        1.0  0.70080  0.60126  0.22739  1.0000
  H   H7        1.0  0.20080  0.10126  0.27261  1.0000
  H   H8        1.0  0.29920  0.39874  0.77261  1.0000
  H   H9        1.0  0.75645  0.84260  0.84355  1.0000
  H   H10       1.0  0.74355  0.65740  0.34356  1.0000
  H   H11       1.0  0.24355  0.15740  0.15645  1.0000
  H   H12       1.0  0.25645  0.34260  0.65644  1.0000
  H   H13       1.0  0.03842  0.56873  0.88227  1.0000
  H   H14       1.0  0.46157  0.93127  0.38228  1.0000
  H   H15       1.0  0.96158  0.43127  0.11773  1.0000
  H   H16       1.0  0.53842  0.06873  0.61772  1.0000
  H   H17       1.0  0.83810  0.17255  0.68677  1.0000
  H   H18       1.0  0.66190  0.32745  0.18678  1.0000
  H   H19       1.0  0.16190  0.82745  0.31323  1.0000
  H   H20       1.0  0.33810  0.67255  0.81322  1.0000
  H   H21       1.0  0.04803  0.34937  0.99350  1.0000
  H   H22       1.0  0.45197  0.15063  0.49350  1.0000
  H   H23       1.0  0.95197  0.65063  0.00650  1.0000
  H   H24       1.0  0.54803  0.84937  0.50650  1.0000
  H   H25       1.0  0.97335  0.74453  0.76933  1.0000
  H   H26       1.0  0.52666  0.75547  0.26933  1.0000
  H   H27       1.0  0.02665  0.25547  0.23067  1.0000
  H   H28       1.0  0.47335  0.24453  0.73067  1.0000
  H   H29       1.0  0.11016  0.95608  0.76002  1.0000
  H   H30       1.0  0.38984  0.54392  0.26002  1.0000
  H   H31       1.0  0.88983  0.04392  0.23998  1.0000
  H   H32       1.0  0.61016  0.45608  0.73998  1.0000
  H   H33       1.0  0.93204  0.47527  0.72319  1.0000
  H   H34       1.0  0.56795  0.02472  0.22319  1.0000
  H   H35       1.0  0.06796  0.52473  0.27681  1.0000
  H   H36       1.0  0.43205  0.97527  0.77681  1.0000
  H   H37       1.0  0.45217  0.40846  0.09089  1.0000
  H   H38       1.0  0.04784  0.09153  0.59089  1.0000
  H   H39       1.0  0.54783  0.59153  0.90911  1.0000
  H   H40       1.0  0.95217  0.90847  0.40911  1.0000
  H   H41       1.0  0.66034  0.52349  0.05460  1.0000
  H   H42       1.0  0.83966  0.97650  0.55460  1.0000
  H   H43       1.0  0.33966  0.47651  0.94540  1.0000
  H   H44       1.0  0.16034  0.02350  0.44540  1.0000
  H   H45       1.0  0.61556  0.32389  0.91977  1.0000
  H   H46       1.0  0.88445  0.17612  0.41977  1.0000
  H   H47       1.0  0.38444  0.67611  0.08023  1.0000
  H   H48       1.0  0.11556  0.82389  0.58023  1.0000
  H   H49       1.0  0.60796  0.22738  0.02558  1.0000
  H   H50       1.0  0.89204  0.27262  0.52558  1.0000
  H   H51       1.0  0.39204  0.77262  0.97442  1.0000
  H   H52       1.0  0.10796  0.72738  0.47442  1.0000
  C   C1        1.0  0.85157  0.92158  0.79628  1.0000
  C   C2        1.0  0.64843  0.57842  0.29628  1.0000
  C   C3        1.0  0.14843  0.07841  0.20372  1.0000
  C   C4        1.0  0.35157  0.42159  0.70372  1.0000
  C   C5        1.0  0.99542  0.43741  0.86271  1.0000
  C   C6        1.0  0.50457  0.06258  0.36271  1.0000
  C   C7        1.0  0.00457  0.56259  0.13729  1.0000
  C   C8        1.0  0.49543  0.93742  0.63729  1.0000
  C   C9        1.0  0.89417  0.10214  0.81964  1.0000
  C   C10       1.0  0.60583  0.39786  0.31964  1.0000
  C   C11       1.0  0.10583  0.89786  0.18036  1.0000
  C   C12       1.0  0.39418  0.60214  0.68036  1.0000
  C   C13       1.0  0.88396  0.21708  0.75445  1.0000
  C   C14       1.0  0.61603  0.28292  0.25445  1.0000
  C   C15       1.0  0.11603  0.78292  0.24555  1.0000
  C   C16       1.0  0.38396  0.71708  0.74555  1.0000
  C   C17       1.0  0.00105  0.31718  0.92471  1.0000
  C   C18       1.0  0.49896  0.18282  0.42472  1.0000
  C   C19       1.0  0.99895  0.68283  0.07529  1.0000
  C   C20       1.0  0.50104  0.81718  0.57528  1.0000
  C   C21       1.0  0.00611  0.86913  0.80022  1.0000
  C   C22       1.0  0.49389  0.63087  0.30022  1.0000
  C   C23       1.0  0.99389  0.13087  0.19978  1.0000
  C   C24       1.0  0.50611  0.36913  0.69978  1.0000
  C   C25       1.0  0.93566  0.38625  0.77539  1.0000
  C   C26       1.0  0.56433  0.11375  0.27539  1.0000
  C   C27       1.0  0.06433  0.61375  0.22461  1.0000
  C   C28       1.0  0.43567  0.88624  0.72461  1.0000
  C   C29       1.0  0.37192  0.15981  0.96177  1.0000
  C   C30       1.0  0.12808  0.34019  0.46177  1.0000
  C   C31       1.0  0.62808  0.84019  0.03823  1.0000
  C   C32       1.0  0.87192  0.65981  0.53823  1.0000
  C   C33       1.0  0.53365  0.44681  0.03059  1.0000
  C   C34       1.0  0.96635  0.05319  0.53059  1.0000
  C   C35       1.0  0.46635  0.55319  0.96941  1.0000
  C   C36       1.0  0.03365  0.94681  0.46941  1.0000
  C   C37       1.0  0.54258  0.29171  0.98319  1.0000
  C   C38       1.0  0.95742  0.20829  0.48319  1.0000
  C   C39       1.0  0.45742  0.70829  0.01681  1.0000
  C   C40       1.0  0.04258  0.79171  0.51681  1.0000
  N   N1        1.0  0.95214  0.15340  0.90427  1.0000
  N   N2        1.0  0.54786  0.34660  0.40427  1.0000
  N   N3        1.0  0.04786  0.84660  0.09573  1.0000
  N   N4        1.0  0.45214  0.65340  0.59573  1.0000
  O   O1        1.0  0.24472  0.16656  0.00541  1.0000
  O   O2        1.0  0.25529  0.33344  0.50541  1.0000
  O   O3        1.0  0.75528  0.83344  0.99459  1.0000
  O   O4        1.0  0.74471  0.66656  0.49459  1.0000
  O   O5        1.0  0.06243  0.86313  0.89156  1.0000
  O   O6        1.0  0.43757  0.63687  0.39156  1.0000
  O   O7        1.0  0.93757  0.13687  0.10844  1.0000
  O   O8        1.0  0.56243  0.36313  0.60844  1.0000
  O   O9        1.0  0.36660  0.04818  0.90317  1.0000
  O   O10       1.0  0.13340  0.45182  0.40317  1.0000
  O   O11       1.0  0.63340  0.95182  0.09683  1.0000
  O   O12       1.0  0.86660  0.54818  0.59683  1.0000
