data_image0
_chemical_formula_structural       Ni2H44C36N4O12
_chemical_formula_sum              "Ni2 H44 C36 N4 O12"
_cell_length_a       8.97373
_cell_length_b       9.28957
_cell_length_c       12.3159
_cell_angle_alpha    89.2011
_cell_angle_beta     89.998
_cell_angle_gamma    117.291

_space_group_name_H-M_alt    "P 1"
_space_group_IT_number       1

loop_
  _space_group_symop_operation_xyz
  'x, y, z'

loop_
  _atom_site_type_symbol
  _atom_site_label
  _atom_site_symmetry_multiplicity
  _atom_site_fract_x
  _atom_site_fract_y
  _atom_site_fract_z
  _atom_site_occupancy
  Ni  Ni1       1.0  0.00000  0.00000  1.00000  1.0000
  Ni  Ni2       1.0  0.00000  0.50000  0.50000  1.0000
  H   H1        1.0  0.85444  0.92357  0.17586  1.0000
  H   H2        1.0  0.14159  0.57753  0.68433  1.0000
  H   H3        1.0  0.14556  0.07643  0.82414  1.0000
  H   H4        1.0  0.85841  0.42247  0.31567  1.0000
  H   H5        1.0  0.40744  0.89128  0.09870  1.0000
  H   H6        1.0  0.58984  0.60577  0.59794  1.0000
  H   H7        1.0  0.59256  0.10872  0.90130  1.0000
  H   H8        1.0  0.41016  0.39423  0.40206  1.0000
  H   H9        1.0  0.52409  0.10182  0.10239  1.0000
  H   H10       1.0  0.47090  0.39537  0.60371  1.0000
  H   H11       1.0  0.47592  0.89818  0.89761  1.0000
  H   H12       1.0  0.52909  0.60462  0.39629  1.0000
  H   H13       1.0  0.74506  0.85596  0.83743  1.0000
  H   H14       1.0  0.24649  0.63781  0.34051  1.0000
  H   H15       1.0  0.25494  0.14403  0.16258  1.0000
  H   H16       1.0  0.75351  0.36220  0.65949  1.0000
  H   H17       1.0  0.08772  0.73423  0.07082  1.0000
  H   H18       1.0  0.90809  0.75589  0.57959  1.0000
  H   H19       1.0  0.91228  0.26577  0.92918  1.0000
  H   H20       1.0  0.09191  0.24411  0.42041  1.0000
  H   H21       1.0  0.94491  0.54728  0.13291  1.0000
  H   H22       1.0  0.05027  0.94925  0.63018  1.0000
  H   H23       1.0  0.05509  0.45272  0.86709  1.0000
  H   H24       1.0  0.94972  0.05075  0.36982  1.0000
  H   H25       1.0  0.80111  0.68930  0.22442  1.0000
  H   H26       1.0  0.20495  0.81648  0.72695  1.0000
  H   H27       1.0  0.19889  0.31070  0.77558  1.0000
  H   H28       1.0  0.79505  0.18352  0.27305  1.0000
  H   H29       1.0  0.01499  0.76069  0.26136  1.0000
  H   H30       1.0  0.99577  0.75329  0.77199  1.0000
  H   H31       1.0  0.98501  0.23931  0.73864  1.0000
  H   H32       1.0  0.00423  0.24672  0.22801  1.0000
  H   H33       1.0  0.52439  0.58295  0.78100  1.0000
  H   H34       1.0  0.47031  0.91055  0.28162  1.0000
  H   H35       1.0  0.47561  0.41705  0.21900  1.0000
  H   H36       1.0  0.52969  0.08945  0.71838  1.0000
  H   H37       1.0  0.72320  0.37549  0.02217  1.0000
  H   H38       1.0  0.27369  0.11611  0.52090  1.0000
  H   H39       1.0  0.27680  0.62451  0.97783  1.0000
  H   H40       1.0  0.72631  0.88389  0.47910  1.0000
  H   H41       1.0  0.51897  0.33539  0.87141  1.0000
  H   H42       1.0  0.47891  0.15781  0.37004  1.0000
  H   H43       1.0  0.48103  0.66461  0.12859  1.0000
  H   H44       1.0  0.52109  0.84219  0.62997  1.0000
  C   C1        1.0  0.51472  0.99382  0.06032  1.0000
  C   C2        1.0  0.48309  0.50487  0.55997  1.0000
  C   C3        1.0  0.48528  0.00618  0.93968  1.0000
  C   C4        1.0  0.51691  0.49512  0.44003  1.0000
  C   C5        1.0  0.73368  0.74501  0.87594  1.0000
  C   C6        1.0  0.25963  0.74822  0.37839  1.0000
  C   C7        1.0  0.26632  0.25499  0.12406  1.0000
  C   C8        1.0  0.74038  0.25178  0.62161  1.0000
  C   C9        1.0  0.67377  0.98022  0.08395  1.0000
  C   C10       1.0  0.32447  0.52069  0.58347  1.0000
  C   C11       1.0  0.32624  0.01978  0.91605  1.0000
  C   C12       1.0  0.67553  0.47931  0.41653  1.0000
  C   C13       1.0  0.95846  0.66348  0.10059  1.0000
  C   C14       1.0  0.03812  0.83146  0.60477  1.0000
  C   C15       1.0  0.04154  0.33651  0.89941  1.0000
  C   C16       1.0  0.96188  0.16854  0.39523  1.0000
  C   C17       1.0  0.83935  0.63520  0.00862  1.0000
  C   C18       1.0  0.15469  0.85687  0.51111  1.0000
  C   C19       1.0  0.16065  0.36480  0.99138  1.0000
  C   C20       1.0  0.84531  0.14313  0.48889  1.0000
  C   C21       1.0  0.93123  0.75507  0.19462  1.0000
  C   C22       1.0  0.07244  0.74898  0.70376  1.0000
  C   C23       1.0  0.06877  0.24493  0.80538  1.0000
  C   C24       1.0  0.92755  0.25101  0.29624  1.0000
  C   C25       1.0  0.61430  0.59295  0.84369  1.0000
  C   C26       1.0  0.38055  0.90039  0.34468  1.0000
  C   C27       1.0  0.38570  0.40705  0.15631  1.0000
  C   C28       1.0  0.61945  0.09961  0.65532  1.0000
  C   C29       1.0  0.72365  0.47859  0.97848  1.0000
  C   C30       1.0  0.27221  0.01334  0.47837  1.0000
  C   C31       1.0  0.27635  0.52141  0.02152  1.0000
  C   C32       1.0  0.72779  0.98666  0.52162  1.0000
  C   C33       1.0  0.61065  0.45660  0.89525  1.0000
  C   C34       1.0  0.38589  0.03631  0.39501  1.0000
  C   C35       1.0  0.38934  0.54339  0.10475  1.0000
  C   C36       1.0  0.61411  0.96369  0.60498  1.0000
  N   N1        1.0  0.84425  0.76643  0.95594  1.0000
  N   N2        1.0  0.14917  0.72605  0.45955  1.0000
  N   N3        1.0  0.15575  0.23357  0.04406  1.0000
  N   N4        1.0  0.85084  0.27395  0.54045  1.0000
  O   O1        1.0  0.78756  0.03340  0.01096  1.0000
  O   O2        1.0  0.20916  0.46653  0.51176  1.0000
  O   O3        1.0  0.21244  0.96660  0.98904  1.0000
  O   O4        1.0  0.79084  0.53347  0.48823  1.0000
  O   O5        1.0  0.96603  0.91812  0.16529  1.0000
  O   O6        1.0  0.03107  0.58356  0.68428  1.0000
  O   O7        1.0  0.03397  0.08188  0.83471  1.0000
  O   O8        1.0  0.96893  0.41644  0.31572  1.0000
  O   O9        1.0  0.68353  0.91818  0.17509  1.0000
  O   O10       1.0  0.31722  0.58400  0.67266  1.0000
  O   O11       1.0  0.31647  0.08181  0.82491  1.0000
  O   O12       1.0  0.68278  0.41600  0.32733  1.0000
