data_image0
_chemical_formula_structural       Cd3H28C52Br12N2O12
_chemical_formula_sum              "Cd3 H28 C52 Br12 N2 O12"
_cell_length_a       9.62283
_cell_length_b       11.0185
_cell_length_c       15.4429
_cell_angle_alpha    71.6259
_cell_angle_beta     82.0275
_cell_angle_gamma    87.8796

_space_group_name_H-M_alt    "P 1"
_space_group_IT_number       1

loop_
  _space_group_symop_operation_xyz
  'x, y, z'

loop_
  _atom_site_type_symbol
  _atom_site_label
  _atom_site_symmetry_multiplicity
  _atom_site_fract_x
  _atom_site_fract_y
  _atom_site_fract_z
  _atom_site_occupancy
  Cd  Cd1       1.0  0.15497  0.10004  0.98903  1.0000
  Cd  Cd2       1.0  0.84504  0.89996  0.01097  1.0000
  Cd  Cd3       1.0  0.50000  1.00000  1.00000  1.0000
  H   H1        1.0  0.33567  0.52394  0.81662  1.0000
  H   H2        1.0  0.66434  0.47607  0.18338  1.0000
  H   H3        1.0  0.73773  0.67576  0.83124  1.0000
  H   H4        1.0  0.26228  0.32424  0.16876  1.0000
  H   H5        1.0  0.61013  0.29210  0.99944  1.0000
  H   H6        1.0  0.38987  0.70789  0.00056  1.0000
  H   H7        1.0  0.93818  0.68644  0.18998  1.0000
  H   H8        1.0  0.06182  0.31355  0.81003  1.0000
  H   H9        1.0  0.12645  0.45604  0.42637  1.0000
  H   H10       1.0  0.87355  0.54396  0.57363  1.0000
  H   H11       1.0  0.36763  0.75680  0.21377  1.0000
  H   H12       1.0  0.63237  0.24320  0.78623  1.0000
  H   H13       1.0  0.58881  0.08019  0.69364  1.0000
  H   H14       1.0  0.41119  0.91980  0.30636  1.0000
  H   H15       1.0  0.38210  0.20346  0.44888  1.0000
  H   H16       1.0  0.61790  0.79655  0.55112  1.0000
  H   H17       1.0  0.13962  0.11486  0.71975  1.0000
  H   H18       1.0  0.86038  0.88514  0.28025  1.0000
  H   H19       1.0  0.26540  0.04716  0.18048  1.0000
  H   H20       1.0  0.73460  0.95283  0.81952  1.0000
  H   H21       1.0  0.19716  0.07532  0.33589  1.0000
  H   H22       1.0  0.80284  0.92467  0.66411  1.0000
  H   H23       1.0  0.96792  0.18027  0.36612  1.0000
  H   H24       1.0  0.03208  0.81973  0.63387  1.0000
  H   H25       1.0  0.81137  0.24556  0.24176  1.0000
  H   H26       1.0  0.18863  0.75445  0.75824  1.0000
  H   H27       1.0  0.89068  0.20249  0.09298  1.0000
  H   H28       1.0  0.10933  0.79752  0.90702  1.0000
  C   C1        1.0  0.35885  0.29167  0.94106  1.0000
  C   C2        1.0  0.64115  0.70833  0.05893  1.0000
  C   C3        1.0  0.46397  0.39842  0.91036  1.0000
  C   C4        1.0  0.53603  0.60159  0.08964  1.0000
  C   C5        1.0  0.43455  0.51379  0.84483  1.0000
  C   C6        1.0  0.56545  0.48621  0.15517  1.0000
  C   C7        1.0  0.53329  0.61214  0.81854  1.0000
  C   C8        1.0  0.46671  0.38786  0.18147  1.0000
  C   C9        1.0  0.66138  0.59812  0.85322  1.0000
  C   C10       1.0  0.33862  0.40188  0.14678  1.0000
  C   C11       1.0  0.68764  0.48163  0.91770  1.0000
  C   C12       1.0  0.31237  0.51837  0.08230  1.0000
  C   C13       1.0  0.59025  0.38200  0.94789  1.0000
  C   C14       1.0  0.40975  0.61799  0.05211  1.0000
  C   C15       1.0  0.16572  0.84179  0.10624  1.0000
  C   C16       1.0  0.83428  0.15821  0.89376  1.0000
  C   C17       1.0  0.15440  0.73180  0.19363  1.0000
  C   C18       1.0  0.84560  0.26820  0.80637  1.0000
  C   C19       1.0  0.02780  0.66364  0.22813  1.0000
  C   C20       1.0  0.97220  0.33636  0.77187  1.0000
  C   C21       1.0  0.02003  0.56619  0.31201  1.0000
  C   C22       1.0  0.97996  0.43381  0.68799  1.0000
  C   C23       1.0  0.13449  0.53304  0.36120  1.0000
  C   C24       1.0  0.86550  0.46696  0.63880  1.0000
  C   C25       1.0  0.25989  0.60101  0.32400  1.0000
  C   C26       1.0  0.74010  0.39899  0.67601  1.0000
  C   C27       1.0  0.27114  0.70139  0.24166  1.0000
  C   C28       1.0  0.72886  0.29861  0.75835  1.0000
  C   C29       1.0  0.35449  0.05520  0.81936  1.0000
  C   C30       1.0  0.64551  0.94479  0.18064  1.0000
  C   C31       1.0  0.36341  0.09295  0.71623  1.0000
  C   C32       1.0  0.63659  0.90705  0.28377  1.0000
  C   C33       1.0  0.49354  0.10205  0.66127  1.0000
  C   C34       1.0  0.50646  0.89795  0.33873  1.0000
  C   C35       1.0  0.49780  0.14099  0.56604  1.0000
  C   C36       1.0  0.50220  0.85901  0.43396  1.0000
  C   C37       1.0  0.37655  0.17194  0.52351  1.0000
  C   C38       1.0  0.62345  0.82805  0.47649  1.0000
  C   C39       1.0  0.24851  0.16087  0.58052  1.0000
  C   C40       1.0  0.75149  0.83913  0.41948  1.0000
  C   C41       1.0  0.23974  0.12209  0.67593  1.0000
  C   C42       1.0  0.76026  0.87791  0.32406  1.0000
  C   C43       1.0  0.16494  0.08888  0.19781  1.0000
  C   C44       1.0  0.83505  0.91111  0.80219  1.0000
  C   C45       1.0  0.12682  0.10575  0.28358  1.0000
  C   C46       1.0  0.87318  0.89425  0.71642  1.0000
  C   C47       1.0  0.99882  0.16359  0.30026  1.0000
  C   C48       1.0  0.00118  0.83641  0.69973  1.0000
  C   C49       1.0  0.91221  0.20049  0.23139  1.0000
  C   C50       1.0  0.08780  0.79951  0.76860  1.0000
  C   C51       1.0  0.95596  0.17761  0.14818  1.0000
  C   C52       1.0  0.04405  0.82241  0.85181  1.0000
  Br  Br1       1.0  0.49205  0.77321  0.73434  1.0000
  Br  Br2       1.0  0.50794  0.22681  0.26567  1.0000
  Br  Br3       1.0  0.86236  0.45868  0.96483  1.0000
  Br  Br4       1.0  0.13765  0.54132  0.03517  1.0000
  Br  Br5       1.0  0.84775  0.47449  0.36291  1.0000
  Br  Br6       1.0  0.15225  0.52550  0.63709  1.0000
  Br  Br7       1.0  0.41998  0.55258  0.38735  1.0000
  Br  Br8       1.0  0.58002  0.44741  0.61265  1.0000
  Br  Br9       1.0  0.67605  0.15295  0.49198  1.0000
  Br  Br10      1.0  0.32395  0.84705  0.50802  1.0000
  Br  Br11      1.0  0.07786  0.19821  0.52762  1.0000
  Br  Br12      1.0  0.92214  0.80178  0.47238  1.0000
  N   N1        1.0  0.08051  0.12410  0.13131  1.0000
  N   N2        1.0  0.91949  0.87591  0.86868  1.0000
  O   O1        1.0  0.24491  0.30665  0.90659  1.0000
  O   O2        1.0  0.75509  0.69335  0.09340  1.0000
  O   O3        1.0  0.38728  0.18805  0.00334  1.0000
  O   O4        1.0  0.61273  0.81195  0.99666  1.0000
  O   O5        1.0  0.06021  0.87420  0.06252  1.0000
  O   O6        1.0  0.93979  0.12580  0.93748  1.0000
  O   O7        1.0  0.27974  0.90602  0.08054  1.0000
  O   O8        1.0  0.72027  0.09397  0.91946  1.0000
  O   O9        1.0  0.47053  0.04253  0.85231  1.0000
  O   O10       1.0  0.52947  0.95747  0.14769  1.0000
  O   O11       1.0  0.23234  0.04044  0.86433  1.0000
  O   O12       1.0  0.76766  0.95956  0.13566  1.0000
