data_image0
_chemical_formula_structural       Ag2H40C36N10O6
_chemical_formula_sum              "Ag2 H40 C36 N10 O6"
_cell_length_a       8.14379
_cell_length_b       8.14379
_cell_length_c       16.3752
_cell_angle_alpha    75.6791
_cell_angle_beta     75.6791
_cell_angle_gamma    66.9383

_space_group_name_H-M_alt    "P 1"
_space_group_IT_number       1

loop_
  _space_group_symop_operation_xyz
  'x, y, z'

loop_
  _atom_site_type_symbol
  _atom_site_label
  _atom_site_symmetry_multiplicity
  _atom_site_fract_x
  _atom_site_fract_y
  _atom_site_fract_z
  _atom_site_occupancy
  Ag  Ag1       1.0  0.90110  0.19722  0.65168  1.0000
  Ag  Ag2       1.0  0.80278  0.09890  0.34832  1.0000
  H   H1        1.0  0.00453  0.39989  0.75709  1.0000
  H   H2        1.0  0.60011  0.99547  0.24291  1.0000
  H   H3        1.0  0.28121  0.40860  0.79621  1.0000
  H   H4        1.0  0.59140  0.71879  0.20379  1.0000
  H   H5        1.0  0.58524  0.25775  0.71501  1.0000
  H   H6        1.0  0.74225  0.41476  0.28499  1.0000
  H   H7        1.0  0.31860  0.10032  0.56651  1.0000
  H   H8        1.0  0.89967  0.68140  0.43349  1.0000
  H   H9        1.0  0.62452  0.98562  0.54173  1.0000
  H   H10       1.0  0.01438  0.37548  0.45827  1.0000
  H   H11       1.0  0.89582  0.88719  0.49075  1.0000
  H   H12       1.0  0.11281  0.10418  0.50925  1.0000
  H   H13       1.0  0.12047  0.82500  0.62809  1.0000
  H   H14       1.0  0.17500  0.87953  0.37191  1.0000
  H   H15       1.0  0.98862  0.69774  0.62632  1.0000
  H   H16       1.0  0.30227  0.01138  0.37368  1.0000
  H   H17       1.0  0.18772  0.59262  0.49224  1.0000
  H   H18       1.0  0.40738  0.81228  0.50776  1.0000
  H   H19       1.0  0.32026  0.54474  0.57125  1.0000
  H   H20       1.0  0.45526  0.67973  0.42875  1.0000
  H   H21       1.0  0.68106  0.94777  0.80412  1.0000
  H   H22       1.0  0.05222  0.31894  0.19588  1.0000
  H   H23       1.0  0.72640  0.70368  0.93311  1.0000
  H   H24       1.0  0.29632  0.27360  0.06689  1.0000
  H   H25       1.0  0.04218  0.54552  0.96927  1.0000
  H   H26       1.0  0.45448  0.95782  0.03072  1.0000
  H   H27       1.0  0.21841  0.90711  0.75848  1.0000
  H   H28       1.0  0.09288  0.78159  0.24152  1.0000
  H   H29       1.0  0.43800  0.69100  0.84093  1.0000
  H   H30       1.0  0.30899  0.56200  0.15907  1.0000
  H   H31       1.0  0.65049  0.50580  0.91031  1.0000
  H   H32       1.0  0.49420  0.34951  0.08969  1.0000
  H   H33       1.0  0.66844  0.23763  0.86415  1.0000
  H   H34       1.0  0.76237  0.33156  0.13585  1.0000
  H   H35       1.0  0.58552  0.14632  0.96881  1.0000
  H   H36       1.0  0.85368  0.41449  0.03119  1.0000
  H   H37       1.0  0.92020  0.00421  0.93947  1.0000
  H   H38       1.0  0.99579  0.07980  0.06053  1.0000
  H   H39       1.0  0.94355  0.21840  0.91167  1.0000
  H   H40       1.0  0.78159  0.05645  0.08833  1.0000
  C   C1        1.0  0.14061  0.33472  0.72370  1.0000
  C   C2        1.0  0.66528  0.85939  0.27630  1.0000
  C   C3        1.0  0.29431  0.33911  0.74479  1.0000
  C   C4        1.0  0.66088  0.70569  0.25521  1.0000
  C   C5        1.0  0.46401  0.25334  0.69965  1.0000
  C   C6        1.0  0.74666  0.53599  0.30035  1.0000
  C   C7        1.0  0.47574  0.16466  0.63409  1.0000
  C   C8        1.0  0.83533  0.52426  0.36591  1.0000
  C   C9        1.0  0.31375  0.16779  0.61733  1.0000
  C   C10       1.0  0.83221  0.68625  0.38267  1.0000
  C   C11       1.0  0.64296  0.06262  0.58309  1.0000
  C   C12       1.0  0.93738  0.35704  0.41691  1.0000
  C   C13       1.0  0.95234  0.93734  0.53044  1.0000
  C   C14       1.0  0.06266  0.04766  0.46956  1.0000
  C   C15       1.0  0.07228  0.77480  0.58539  1.0000
  C   C16       1.0  0.22520  0.92772  0.41461  1.0000
  C   C17       1.0  0.23383  0.65604  0.53004  1.0000
  C   C18       1.0  0.34396  0.76617  0.46996  1.0000
  C   C19       1.0  0.81383  0.88039  0.82373  1.0000
  C   C20       1.0  0.11961  0.18617  0.17627  1.0000
  C   C21       1.0  0.84038  0.74099  0.89435  1.0000
  C   C22       1.0  0.25901  0.15962  0.10565  1.0000
  C   C23       1.0  0.01310  0.65549  0.91514  1.0000
  C   C24       1.0  0.34451  0.98691  0.08486  1.0000
  C   C25       1.0  0.15423  0.71286  0.86559  1.0000
  C   C26       1.0  0.28714  0.84578  0.13441  1.0000
  C   C27       1.0  0.11219  0.85773  0.79785  1.0000
  C   C28       1.0  0.14226  0.88781  0.20215  1.0000
  C   C29       1.0  0.34061  0.62985  0.88275  1.0000
  C   C30       1.0  0.37014  0.65940  0.11724  1.0000
  C   C31       1.0  0.57509  0.42121  0.95327  1.0000
  C   C32       1.0  0.57879  0.42491  0.04673  1.0000
  C   C33       1.0  0.66717  0.22928  0.93226  1.0000
  C   C34       1.0  0.77072  0.33283  0.06774  1.0000
  C   C35       1.0  0.85846  0.14268  0.95327  1.0000
  C   C36       1.0  0.85731  0.14154  0.04673  1.0000
  N   N1        1.0  0.15007  0.25018  0.66052  1.0000
  N   N2        1.0  0.74982  0.84993  0.33948  1.0000
  N   N3        1.0  0.80301  0.05519  0.58399  1.0000
  N   N4        1.0  0.94481  0.19699  0.41601  1.0000
  N   N5        1.0  0.66012  0.59715  0.66633  1.0000
  N   N6        1.0  0.40285  0.33988  0.33367  1.0000
  N   N7        1.0  0.94610  0.94024  0.77715  1.0000
  N   N8        1.0  0.05975  0.05391  0.22285  1.0000
  N   N9        1.0  0.38752  0.49184  0.94126  1.0000
  N   N10       1.0  0.50815  0.61249  0.05874  1.0000
  O   O1        1.0  0.70749  0.46496  0.72812  1.0000
  O   O2        1.0  0.53504  0.29251  0.27187  1.0000
  O   O3        1.0  0.54812  0.74856  0.68320  1.0000
  O   O4        1.0  0.25144  0.45189  0.31680  1.0000
  O   O5        1.0  0.72673  0.57270  0.58990  1.0000
  O   O6        1.0  0.42730  0.27327  0.41010  1.0000
