data_image0
_chemical_formula_structural       Zn3P4H30C24N4O16
_chemical_formula_sum              "Zn3 P4 H30 C24 N4 O16"
_cell_length_a       6.49835
_cell_length_b       11.314
_cell_length_c       13.7155
_cell_angle_alpha    109.399
_cell_angle_beta     90.0221
_cell_angle_gamma    106.658

_space_group_name_H-M_alt    "P 1"
_space_group_IT_number       1

loop_
  _space_group_symop_operation_xyz
  'x, y, z'

loop_
  _atom_site_type_symbol
  _atom_site_label
  _atom_site_symmetry_multiplicity
  _atom_site_fract_x
  _atom_site_fract_y
  _atom_site_fract_z
  _atom_site_occupancy
  Zn  Zn1       1.0  0.70430  0.78578  0.72418  1.0000
  Zn  Zn2       1.0  0.91844  0.21432  0.27590  1.0000
  Zn  Zn3       1.0  0.40447  0.99988  0.99998  1.0000
  P   P1        1.0  0.23526  0.85654  0.77357  1.0000
  P   P2        1.0  0.37874  0.14343  0.22638  1.0000
  P   P3        1.0  0.65474  0.08385  0.82694  1.0000
  P   P4        1.0  0.57118  0.91595  0.17296  1.0000
  H   H1        1.0  0.54214  0.45092  0.34923  1.0000
  H   H2        1.0  0.09130  0.54915  0.65088  1.0000
  H   H3        1.0  0.77065  0.92370  0.55379  1.0000
  H   H4        1.0  0.84723  0.07637  0.44619  1.0000
  H   H5        1.0  0.74637  0.85179  0.35717  1.0000
  H   H6        1.0  0.89401  0.14821  0.64284  1.0000
  H   H7        1.0  0.62296  0.61106  0.25530  1.0000
  H   H8        1.0  0.01137  0.38894  0.74478  1.0000
  H   H9        1.0  0.60312  0.55891  0.81227  1.0000
  H   H10       1.0  0.04377  0.44116  0.18785  1.0000
  H   H11       1.0  0.38788  0.19770  0.54735  1.0000
  H   H12       1.0  0.19025  0.80251  0.45269  1.0000
  H   H13       1.0  0.45590  0.30936  0.74118  1.0000
  H   H14       1.0  0.14620  0.69073  0.25886  1.0000
  H   H15       1.0  0.45230  0.33087  0.43378  1.0000
  H   H16       1.0  0.12159  0.66933  0.56631  1.0000
  H   H17       1.0  0.69506  0.83969  0.94190  1.0000
  H   H18       1.0  0.85467  0.16014  0.05808  1.0000
  H   H19       1.0  0.92249  0.83318  0.89839  1.0000
  H   H20       1.0  0.08873  0.16674  0.10158  1.0000
  H   H21       1.0  0.67331  0.28891  0.88067  1.0000
  H   H22       1.0  0.38443  0.71102  0.11933  1.0000
  H   H23       1.0  0.20594  0.98428  0.61681  1.0000
  H   H24       1.0  0.22205  0.01557  0.38304  1.0000
  H   H25       1.0  0.43258  0.92388  0.60493  1.0000
  H   H26       1.0  0.50897  0.07600  0.39497  1.0000
  H   H27       1.0  0.47425  0.09579  0.63871  1.0000
  H   H28       1.0  0.37901  0.90409  0.36110  1.0000
  H   H29       1.0  0.11240  0.07857  0.79961  1.0000
  H   H30       1.0  0.03417  0.92148  0.20031  1.0000
  C   C1        1.0  0.58873  0.55626  0.39231  1.0000
  C   C2        1.0  0.03243  0.44381  0.60780  1.0000
  C   C3        1.0  0.71779  0.82009  0.50452  1.0000
  C   C4        1.0  0.89783  0.17997  0.49550  1.0000
  C   C5        1.0  0.56507  0.51645  0.56349  1.0000
  C   C6        1.0  0.04857  0.48373  0.43665  1.0000
  C   C7        1.0  0.70417  0.78011  0.39655  1.0000
  C   C8        1.0  0.92380  0.21989  0.60347  1.0000
  C   C9        1.0  0.60674  0.60456  0.50138  1.0000
  C   C10       1.0  0.00210  0.39555  0.49874  1.0000
  C   C11       1.0  0.63614  0.64538  0.33988  1.0000
  C   C12       1.0  0.99048  0.35463  0.66020  1.0000
  C   C13       1.0  0.56740  0.50290  0.72910  1.0000
  C   C14       1.0  0.06431  0.49724  0.27103  1.0000
  C   C15       1.0  0.45058  0.30427  0.58182  1.0000
  C   C16       1.0  0.14635  0.69592  0.41826  1.0000
  C   C17       1.0  0.48871  0.36613  0.68941  1.0000
  C   C18       1.0  0.12245  0.63402  0.31069  1.0000
  C   C19       1.0  0.48832  0.37918  0.51762  1.0000
  C   C20       1.0  0.10924  0.62101  0.48247  1.0000
  C   C21       1.0  0.37338  0.02093  0.76402  1.0000
  C   C22       1.0  0.35272  0.97901  0.23584  1.0000
  C   C23       1.0  0.37296  0.00555  0.64869  1.0000
  C   C24       1.0  0.36781  0.99434  0.35113  1.0000
  N   N1        1.0  0.60499  0.57540  0.66750  1.0000
  N   N2        1.0  0.02935  0.42473  0.33262  1.0000
  N   N3        1.0  0.66740  0.73492  0.55558  1.0000
  N   N4        1.0  0.93260  0.26520  0.44449  1.0000
  O   O1        1.0  0.79719  0.01177  0.76043  1.0000
  O   O2        1.0  0.78579  0.98795  0.23942  1.0000
  O   O3        1.0  0.02288  0.80178  0.70378  1.0000
  O   O4        1.0  0.22095  0.19809  0.29610  1.0000
  O   O5        1.0  0.38643  0.77329  0.73838  1.0000
  O   O6        1.0  0.61301  0.22674  0.26173  1.0000
  O   O7        1.0  0.18780  0.88023  0.88893  1.0000
  O   O8        1.0  0.30777  0.11979  0.11100  1.0000
  O   O9        1.0  0.76220  0.79608  0.88159  1.0000
  O   O10       1.0  0.96541  0.20374  0.11841  1.0000
  O   O11       1.0  0.74176  0.23426  0.82879  1.0000
  O   O12       1.0  0.50764  0.76554  0.17117  1.0000
  O   O13       1.0  0.65281  0.09127  0.94046  1.0000
  O   O14       1.0  0.56176  0.90848  0.05943  1.0000
  O   O15       1.0  0.27045  0.11726  0.81890  1.0000
  O   O16       1.0  0.15351  0.88276  0.18095  1.0000
