data_image0
_chemical_formula_structural       Cu2H28C40N8O12
_chemical_formula_sum              "Cu2 H28 C40 N8 O12"
_cell_length_a       8.75145
_cell_length_b       9.35887
_cell_length_c       14.1352
_cell_angle_alpha    79.8425
_cell_angle_beta     71.967
_cell_angle_gamma    62.1221

_space_group_name_H-M_alt    "P 1"
_space_group_IT_number       1

loop_
  _space_group_symop_operation_xyz
  'x, y, z'

loop_
  _atom_site_type_symbol
  _atom_site_label
  _atom_site_symmetry_multiplicity
  _atom_site_fract_x
  _atom_site_fract_y
  _atom_site_fract_z
  _atom_site_occupancy
  Cu  Cu1       1.0  0.00000  0.50000  0.50000  1.0000
  Cu  Cu2       1.0  1.00000  1.00000  1.00000  1.0000
  H   H1        1.0  0.95434  0.42565  0.88375  1.0000
  H   H2        1.0  0.26355  0.07413  0.61616  1.0000
  H   H3        1.0  0.04565  0.57434  0.11625  1.0000
  H   H4        1.0  0.73645  0.92588  0.38383  1.0000
  H   H5        1.0  0.97936  0.81460  0.52380  1.0000
  H   H6        1.0  0.31785  0.68531  0.97618  1.0000
  H   H7        1.0  0.02064  0.18539  0.47620  1.0000
  H   H8        1.0  0.68216  0.31469  0.02382  1.0000
  H   H9        1.0  0.96014  0.96438  0.66130  1.0000
  H   H10       1.0  0.58510  0.53501  0.83848  1.0000
  H   H11       1.0  0.03986  0.03562  0.33870  1.0000
  H   H12       1.0  0.41491  0.46500  0.16152  1.0000
  H   H13       1.0  0.94106  0.83903  0.83305  1.0000
  H   H14       1.0  0.61222  0.66025  0.66670  1.0000
  H   H15       1.0  0.05894  0.16097  0.16695  1.0000
  H   H16       1.0  0.38779  0.33976  0.33330  1.0000
  H   H17       1.0  0.98867  0.42058  0.71487  1.0000
  H   H18       1.0  0.12452  0.07958  0.78517  1.0000
  H   H19       1.0  0.01133  0.57942  0.28513  1.0000
  H   H20       1.0  0.87548  0.92042  0.21483  1.0000
  H   H21       1.0  0.42240  0.64723  0.42609  1.0000
  H   H22       1.0  0.49573  0.85305  0.07396  1.0000
  H   H23       1.0  0.57760  0.35278  0.57391  1.0000
  H   H24       1.0  0.50428  0.14695  0.92604  1.0000
  H   H25       1.0  0.68541  0.70043  0.33961  1.0000
  H   H26       1.0  0.72542  0.79964  0.16047  1.0000
  H   H27       1.0  0.31459  0.29957  0.66039  1.0000
  H   H28       1.0  0.27458  0.20035  0.83954  1.0000
  C   C1        1.0  0.97930  0.76123  0.59862  1.0000
  C   C2        1.0  0.33906  0.73858  0.90130  1.0000
  C   C3        1.0  0.02070  0.23877  0.40138  1.0000
  C   C4        1.0  0.66094  0.26142  0.09870  1.0000
  C   C5        1.0  0.96505  0.84415  0.67573  1.0000
  C   C6        1.0  0.48437  0.65541  0.82411  1.0000
  C   C7        1.0  0.03495  0.15585  0.32427  1.0000
  C   C8        1.0  0.51564  0.34460  0.17589  1.0000
  C   C9        1.0  0.95689  0.77399  0.77150  1.0000
  C   C10       1.0  0.50176  0.72548  0.72830  1.0000
  C   C11       1.0  0.04311  0.22601  0.22850  1.0000
  C   C12       1.0  0.49825  0.27452  0.27170  1.0000
  C   C13       1.0  0.96684  0.61807  0.78663  1.0000
  C   C14       1.0  0.37134  0.88173  0.71327  1.0000
  C   C15       1.0  0.03316  0.38193  0.21337  1.0000
  C   C16       1.0  0.62866  0.11828  0.28673  1.0000
  C   C17       1.0  0.98217  0.54112  0.70509  1.0000
  C   C18       1.0  0.22859  0.95887  0.79490  1.0000
  C   C19       1.0  0.01782  0.45888  0.29491  1.0000
  C   C20       1.0  0.77141  0.04112  0.20510  1.0000
  C   C21       1.0  0.99017  0.56808  0.95957  1.0000
  C   C22       1.0  0.51784  0.93197  0.54046  1.0000
  C   C23       1.0  0.00982  0.43192  0.04043  1.0000
  C   C24       1.0  0.48217  0.06803  0.45955  1.0000
  C   C25       1.0  0.14802  0.69737  0.35782  1.0000
  C   C26       1.0  0.20320  0.80280  0.14207  1.0000
  C   C27       1.0  0.85198  0.30264  0.64218  1.0000
  C   C28       1.0  0.79680  0.19719  0.85793  1.0000
  C   C29       1.0  0.31110  0.72062  0.29982  1.0000
  C   C30       1.0  0.33152  0.77952  0.20012  1.0000
  C   C31       1.0  0.68890  0.27939  0.70018  1.0000
  C   C32       1.0  0.66849  0.22048  0.79988  1.0000
  C   C33       1.0  0.44006  0.69209  0.34875  1.0000
  C   C34       1.0  0.48087  0.80808  0.15127  1.0000
  C   C35       1.0  0.55993  0.30792  0.65126  1.0000
  C   C36       1.0  0.51913  0.19192  0.84873  1.0000
  C   C37       1.0  0.58790  0.72178  0.29967  1.0000
  C   C38       1.0  0.60931  0.77830  0.20038  1.0000
  C   C39       1.0  0.41210  0.27823  0.70033  1.0000
  C   C40       1.0  0.39070  0.22170  0.79962  1.0000
  N   N1        1.0  0.98782  0.61153  0.61377  1.0000
  N   N2        1.0  0.21324  0.88850  0.88622  1.0000
  N   N3        1.0  0.01218  0.38847  0.38623  1.0000
  N   N4        1.0  0.78676  0.11151  0.11378  1.0000
  N   N5        1.0  0.96669  0.53153  0.87790  1.0000
  N   N6        1.0  0.37597  0.96828  0.62200  1.0000
  N   N7        1.0  0.03330  0.46846  0.12210  1.0000
  N   N8        1.0  0.62403  0.03172  0.37800  1.0000
  O   O1        1.0  0.99744  0.69221  0.97171  1.0000
  O   O2        1.0  0.66162  0.80806  0.52845  1.0000
  O   O3        1.0  0.00254  0.30778  0.02829  1.0000
  O   O4        1.0  0.33838  0.19194  0.47155  1.0000
  O   O5        1.0  0.99513  0.80475  0.35311  1.0000
  O   O6        1.0  0.15302  0.69545  0.14669  1.0000
  O   O7        1.0  0.00487  0.19525  0.64690  1.0000
  O   O8        1.0  0.84700  0.30455  0.85331  1.0000
  O   O9        1.0  0.18216  0.56540  0.41212  1.0000
  O   O10       1.0  0.15963  0.93487  0.08783  1.0000
  O   O11       1.0  0.81784  0.43461  0.58788  1.0000
  O   O12       1.0  0.84037  0.06512  0.91216  1.0000
