data_image0
_chemical_formula_structural       Co2H28C42N8O16
_chemical_formula_sum              "Co2 H28 C42 N8 O16"
_cell_length_a       10.1358
_cell_length_b       10.0411
_cell_length_c       11.7896
_cell_angle_alpha    82.9291
_cell_angle_beta     63.4902
_cell_angle_gamma    72.362

_space_group_name_H-M_alt    "P 1"
_space_group_IT_number       1

loop_
  _space_group_symop_operation_xyz
  'x, y, z'

loop_
  _atom_site_type_symbol
  _atom_site_label
  _atom_site_symmetry_multiplicity
  _atom_site_fract_x
  _atom_site_fract_y
  _atom_site_fract_z
  _atom_site_occupancy
  Co  Co1       1.0  0.87609  0.85135  0.03011  1.0000
  Co  Co2       1.0  0.12392  0.14860  0.96983  1.0000
  H   H1        1.0  0.86180  0.95481  0.78326  1.0000
  H   H2        1.0  0.13821  0.04520  0.21674  1.0000
  H   H3        1.0  0.27360  0.40877  0.74284  1.0000
  H   H4        1.0  0.72640  0.59122  0.25715  1.0000
  H   H5        1.0  0.00179  0.87996  0.55321  1.0000
  H   H6        1.0  0.99821  0.12003  0.44679  1.0000
  H   H7        1.0  0.53368  0.26384  0.36291  1.0000
  H   H8        1.0  0.46632  0.73616  0.63708  1.0000
  H   H9        1.0  0.20063  0.64775  0.49167  1.0000
  H   H10       1.0  0.79936  0.35225  0.50834  1.0000
  H   H11       1.0  0.73699  0.75074  0.75596  1.0000
  H   H12       1.0  0.26299  0.24927  0.24406  1.0000
  H   H13       1.0  0.09425  0.58344  0.88880  1.0000
  H   H14       1.0  0.90575  0.41656  0.11120  1.0000
  H   H15       1.0  0.67105  0.09959  0.20532  1.0000
  H   H16       1.0  0.32895  0.90041  0.79468  1.0000
  H   H17       1.0  0.93411  0.71259  0.25463  1.0000
  H   H18       1.0  0.06588  0.28741  0.74538  1.0000
  H   H19       1.0  0.85521  0.76868  0.48042  1.0000
  H   H20       1.0  0.14480  0.23133  0.51958  1.0000
  H   H21       1.0  0.67529  0.00646  0.57109  1.0000
  H   H22       1.0  0.32473  0.99355  0.42889  1.0000
  H   H23       1.0  0.81526  0.43332  0.86762  1.0000
  H   H24       1.0  0.18473  0.56668  0.13238  1.0000
  H   H25       1.0  0.39615  0.50732  0.82909  1.0000
  H   H26       1.0  0.60385  0.49268  0.17091  1.0000
  H   H27       1.0  0.58969  0.10835  0.95828  1.0000
  H   H28       1.0  0.41031  0.89164  0.04172  1.0000
  C   C1        1.0  0.94613  0.85337  0.75187  1.0000
  C   C2        1.0  0.05388  0.14663  0.24814  1.0000
  C   C3        1.0  0.02483  0.81112  0.62523  1.0000
  C   C4        1.0  0.97517  0.18888  0.37477  1.0000
  C   C5        1.0  0.13508  0.68203  0.59008  1.0000
  C   C6        1.0  0.86491  0.31797  0.40991  1.0000
  C   C7        1.0  0.16263  0.59670  0.68562  1.0000
  C   C8        1.0  0.83737  0.40330  0.31437  1.0000
  C   C9        1.0  0.07662  0.64630  0.81178  1.0000
  C   C10       1.0  0.92338  0.35370  0.18821  1.0000
  C   C11       1.0  0.37481  0.40876  0.54726  1.0000
  C   C12       1.0  0.62518  0.59124  0.45274  1.0000
  C   C13       1.0  0.48396  0.26375  0.54934  1.0000
  C   C14       1.0  0.51604  0.73625  0.45066  1.0000
  C   C15       1.0  0.66184  0.07162  0.39401  1.0000
  C   C16       1.0  0.33815  0.92838  0.60601  1.0000
  C   C17       1.0  0.71142  0.02974  0.26839  1.0000
  C   C18       1.0  0.28858  0.97026  0.73161  1.0000
  C   C19       1.0  0.85692  0.81353  0.29704  1.0000
  C   C20       1.0  0.14307  0.18648  0.70297  1.0000
  C   C21       1.0  0.81261  0.84633  0.42247  1.0000
  C   C22       1.0  0.18738  0.15367  0.57754  1.0000
  C   C23       1.0  0.71380  0.97702  0.47328  1.0000
  C   C24       1.0  0.28621  0.02298  0.52672  1.0000
  C   C25       1.0  0.71664  0.26108  0.91465  1.0000
  C   C26       1.0  0.28337  0.73892  0.08534  1.0000
  C   C27       1.0  0.72360  0.39566  0.87111  1.0000
  C   C28       1.0  0.27638  0.60435  0.12890  1.0000
  C   C29       1.0  0.61050  0.48237  0.83707  1.0000
  C   C30       1.0  0.38949  0.51764  0.16294  1.0000
  C   C31       1.0  0.48682  0.43661  0.85076  1.0000
  C   C32       1.0  0.51318  0.56339  0.14924  1.0000
  C   C33       1.0  0.47990  0.30170  0.89355  1.0000
  C   C34       1.0  0.52011  0.69829  0.10645  1.0000
  C   C35       1.0  0.59643  0.21301  0.92343  1.0000
  C   C36       1.0  0.40358  0.78698  0.07657  1.0000
  C   C37       1.0  0.83602  0.17373  0.95524  1.0000
  C   C38       1.0  0.16398  0.82628  0.04475  1.0000
  C   C39       1.0  0.61527  0.62581  0.79472  1.0000
  C   C40       1.0  0.38472  0.37420  0.20528  1.0000
  C   C41       1.0  0.34706  0.25168  0.91245  1.0000
  C   C42       1.0  0.65297  0.74832  0.08755  1.0000
  N   N1        1.0  0.97282  0.77185  0.84348  1.0000
  N   N2        1.0  0.02717  0.22814  0.15653  1.0000
  N   N3        1.0  0.27169  0.46568  0.66328  1.0000
  N   N4        1.0  0.72830  0.53432  0.33671  1.0000
  N   N5        1.0  0.56234  0.20529  0.43087  1.0000
  N   N6        1.0  0.43766  0.79471  0.56913  1.0000
  N   N7        1.0  0.80645  0.90435  0.22101  1.0000
  N   N8        1.0  0.19356  0.09566  0.77897  1.0000
  O   O1        1.0  0.38593  0.46336  0.44431  1.0000
  O   O2        1.0  0.61406  0.53664  0.55569  1.0000
  O   O3        1.0  0.49539  0.21146  0.64598  1.0000
  O   O4        1.0  0.50461  0.78853  0.35402  1.0000
  O   O5        1.0  0.85476  0.04296  0.96426  1.0000
  O   O6        1.0  0.14523  0.95705  0.03574  1.0000
  O   O7        1.0  0.91427  0.23800  0.97648  1.0000
  O   O8        1.0  0.08572  0.76202  0.02353  1.0000
  O   O9        1.0  0.74764  0.65131  0.77494  1.0000
  O   O10       1.0  0.25234  0.34870  0.22507  1.0000
  O   O11       1.0  0.51162  0.71651  0.77974  1.0000
  O   O12       1.0  0.48839  0.28348  0.22025  1.0000
  O   O13       1.0  0.22892  0.33536  0.90185  1.0000
  O   O14       1.0  0.77109  0.66465  0.09815  1.0000
  O   O15       1.0  0.35025  0.12531  0.94361  1.0000
  O   O16       1.0  0.64977  0.87469  0.05639  1.0000
