data_image0
_chemical_formula_structural       Al2H16C8Cl6O4
_chemical_formula_sum              "Al2 H16 C8 Cl6 O4"
_cell_length_a       6.35116
_cell_length_b       6.39409
_cell_length_c       13.8521
_cell_angle_alpha    89.9816
_cell_angle_beta     90.0074
_cell_angle_gamma    118.961

_space_group_name_H-M_alt    "P 1"
_space_group_IT_number       1

loop_
  _space_group_symop_operation_xyz
  'x, y, z'

loop_
  _atom_site_type_symbol
  _atom_site_label
  _atom_site_symmetry_multiplicity
  _atom_site_fract_x
  _atom_site_fract_y
  _atom_site_fract_z
  _atom_site_occupancy
  Al  Al1       1.0  0.44362  0.95088  0.25001  1.0000
  Al  Al2       1.0  0.55640  0.04914  0.75000  1.0000
  H   H1        1.0  0.59712  0.31315  0.44343  1.0000
  H   H2        1.0  0.40287  0.68686  0.94348  1.0000
  H   H3        1.0  0.40284  0.68688  0.55659  1.0000
  H   H4        1.0  0.59710  0.31308  0.05650  1.0000
  H   H5        1.0  0.28498  0.16146  0.41037  1.0000
  H   H6        1.0  0.71503  0.83856  0.91043  1.0000
  H   H7        1.0  0.71498  0.83855  0.58966  1.0000
  H   H8        1.0  0.28494  0.16137  0.08955  1.0000
  H   H9        1.0  0.81327  0.09642  0.44122  1.0000
  H   H10       1.0  0.18675  0.90359  0.94116  1.0000
  H   H11       1.0  0.18671  0.90362  0.55881  1.0000
  H   H12       1.0  0.81325  0.09634  0.05882  1.0000
  H   H13       1.0  0.65747  0.78738  0.40682  1.0000
  H   H14       1.0  0.34257  0.21267  0.90673  1.0000
  H   H15       1.0  0.34257  0.21273  0.59320  1.0000
  H   H16       1.0  0.65741  0.78726  0.09325  1.0000
  C   C1        1.0  0.42642  0.14455  0.44924  1.0000
  C   C2        1.0  0.57357  0.85547  0.94929  1.0000
  C   C3        1.0  0.57357  0.85554  0.55076  1.0000
  C   C4        1.0  0.42640  0.14445  0.05070  1.0000
  C   C5        1.0  0.64292  0.92734  0.44718  1.0000
  C   C6        1.0  0.35712  0.07266  0.94713  1.0000
  C   C7        1.0  0.35714  0.07274  0.55283  1.0000
  C   C8        1.0  0.64284  0.92726  0.05286  1.0000
  Cl  Cl1       1.0  0.42925  0.60799  0.25007  1.0000
  Cl  Cl2       1.0  0.57082  0.39205  0.74996  1.0000
  Cl  Cl3       1.0  0.10118  0.94215  0.24998  1.0000
  Cl  Cl4       1.0  0.89884  0.05786  0.75001  1.0000
  Cl  Cl5       1.0  0.77676  0.28549  0.24996  1.0000
  Cl  Cl6       1.0  0.22327  0.71450  0.75003  1.0000
  O   O1        1.0  0.45428  0.95791  0.39971  1.0000
  O   O2        1.0  0.54576  0.04212  0.89969  1.0000
  O   O3        1.0  0.54574  0.04213  0.60030  1.0000
  O   O4        1.0  0.45424  0.95784  0.10029  1.0000
