data_image0
_chemical_formula_structural       Mn2Si4H60C24O4
_chemical_formula_sum              "Mn2 Si4 H60 C24 O4"
_cell_length_a       9.71636
_cell_length_b       10.1284
_cell_length_c       10.8029
_cell_angle_alpha    98.5552
_cell_angle_beta     90.0007
_cell_angle_gamma    118.662

_space_group_name_H-M_alt    "P 1"
_space_group_IT_number       1

loop_
  _space_group_symop_operation_xyz
  'x, y, z'

loop_
  _atom_site_type_symbol
  _atom_site_label
  _atom_site_symmetry_multiplicity
  _atom_site_fract_x
  _atom_site_fract_y
  _atom_site_fract_z
  _atom_site_occupancy
  Mn  Mn1       1.0  0.25216  0.99996  0.74998  1.0000
  Mn  Mn2       1.0  0.74784  0.00004  0.25002  1.0000
  Si  Si1       1.0  0.22564  0.29474  0.67314  1.0000
  Si  Si2       1.0  0.93090  0.70524  0.82685  1.0000
  Si  Si3       1.0  0.77436  0.70527  0.32686  1.0000
  Si  Si4       1.0  0.06910  0.29476  0.17316  1.0000
  H   H1        1.0  0.25622  0.24339  0.88157  1.0000
  H   H2        1.0  0.01281  0.75658  0.61838  1.0000
  H   H3        1.0  0.74378  0.75661  0.11843  1.0000
  H   H4        1.0  0.98719  0.24342  0.38162  1.0000
  H   H5        1.0  0.43323  0.30442  0.80549  1.0000
  H   H6        1.0  0.12880  0.69553  0.69449  1.0000
  H   H7        1.0  0.56678  0.69558  0.19451  1.0000
  H   H8        1.0  0.87120  0.30447  0.30551  1.0000
  H   H9        1.0  0.43965  0.35225  0.52721  1.0000
  H   H10       1.0  0.08741  0.64772  0.97278  1.0000
  H   H11       1.0  0.56035  0.64775  0.47279  1.0000
  H   H12       1.0  0.91259  0.35228  0.02722  1.0000
  H   H13       1.0  0.26608  0.32579  0.44803  1.0000
  H   H14       1.0  0.94029  0.67420  0.05195  1.0000
  H   H15       1.0  0.73392  0.67421  0.55197  1.0000
  H   H16       1.0  0.05970  0.32580  0.94805  1.0000
  H   H17       1.0  0.28009  0.16447  0.47763  1.0000
  H   H18       1.0  0.11560  0.83550  0.02235  1.0000
  H   H19       1.0  0.71991  0.83553  0.52237  1.0000
  H   H20       1.0  0.88440  0.16451  0.97765  1.0000
  H   H21       1.0  0.96629  0.05740  0.61053  1.0000
  H   H22       1.0  0.90890  0.94261  0.88949  1.0000
  H   H23       1.0  0.03371  0.94260  0.38947  1.0000
  H   H24       1.0  0.09110  0.05739  0.11052  1.0000
  H   H25       1.0  0.95664  0.22168  0.58286  1.0000
  H   H26       1.0  0.73496  0.77832  0.91715  1.0000
  H   H27       1.0  0.04337  0.77832  0.41714  1.0000
  H   H28       1.0  0.26504  0.22169  0.08285  1.0000
  H   H29       1.0  0.95043  0.18051  0.73819  1.0000
  H   H30       1.0  0.76993  0.81949  0.76183  1.0000
  H   H31       1.0  0.04957  0.81949  0.26181  1.0000
  H   H32       1.0  0.23007  0.18051  0.23817  1.0000
  H   H33       1.0  0.23006  0.51936  0.81043  1.0000
  H   H34       1.0  0.71068  0.48063  0.68955  1.0000
  H   H35       1.0  0.76994  0.48064  0.18957  1.0000
  H   H36       1.0  0.28932  0.51937  0.31045  1.0000
  H   H37       1.0  0.23517  0.54373  0.65031  1.0000
  H   H38       1.0  0.69143  0.45627  0.84968  1.0000
  H   H39       1.0  0.76483  0.45627  0.34968  1.0000
  H   H40       1.0  0.30858  0.54373  0.15032  1.0000
  H   H41       1.0  0.40797  0.57329  0.73516  1.0000
  H   H42       1.0  0.83466  0.42672  0.76483  1.0000
  H   H43       1.0  0.59203  0.42671  0.26484  1.0000
  H   H44       1.0  0.16534  0.57328  0.23517  1.0000
  H   H45       1.0  0.59267  0.94152  0.85409  1.0000
  H   H46       1.0  0.65113  0.05850  0.64588  1.0000
  H   H47       1.0  0.40733  0.05848  0.14591  1.0000
  H   H48       1.0  0.34886  0.94150  0.35412  1.0000
  H   H49       1.0  0.38904  0.79938  0.81970  1.0000
  H   H50       1.0  0.58966  0.20063  0.68028  1.0000
  H   H51       1.0  0.61096  0.20062  0.18030  1.0000
  H   H52       1.0  0.41034  0.79937  0.31972  1.0000
  H   H53       1.0  0.48048  0.22588  0.98490  1.0000
  H   H54       1.0  0.25467  0.77414  0.51511  1.0000
  H   H55       1.0  0.51951  0.77412  0.01509  1.0000
  H   H56       1.0  0.74533  0.22586  0.48489  1.0000
  H   H57       1.0  0.64746  0.19873  0.95327  1.0000
  H   H58       1.0  0.44879  0.80127  0.54677  1.0000
  H   H59       1.0  0.35253  0.80127  0.04673  1.0000
  H   H60       1.0  0.55121  0.19873  0.45323  1.0000
  C   C1        1.0  0.30441  0.22829  0.79114  1.0000
  C   C2        1.0  0.07608  0.77163  0.70882  1.0000
  C   C3        1.0  0.69559  0.77171  0.20886  1.0000
  C   C4        1.0  0.92392  0.22837  0.29118  1.0000
  C   C5        1.0  0.31051  0.28264  0.51688  1.0000
  C   C6        1.0  0.02788  0.71733  0.98310  1.0000
  C   C7        1.0  0.68949  0.71736  0.48312  1.0000
  C   C8        1.0  0.97212  0.28267  0.01691  1.0000
  C   C9        1.0  0.00382  0.17756  0.64880  1.0000
  C   C10       1.0  0.82627  0.82244  0.85122  1.0000
  C   C11       1.0  0.99618  0.82244  0.35120  1.0000
  C   C12       1.0  0.17373  0.17756  0.14878  1.0000
  C   C13       1.0  0.27902  0.50249  0.72132  1.0000
  C   C14       1.0  0.77650  0.49750  0.77867  1.0000
  C   C15       1.0  0.72098  0.49751  0.27868  1.0000
  C   C16       1.0  0.22350  0.50250  0.22133  1.0000
  C   C17       1.0  0.47379  0.89731  0.88770  1.0000
  C   C18       1.0  0.57647  0.10270  0.61227  1.0000
  C   C19       1.0  0.52620  0.10269  0.11230  1.0000
  C   C20       1.0  0.42353  0.89729  0.38773  1.0000
  C   C21       1.0  0.52736  0.14663  0.98443  1.0000
  C   C22       1.0  0.38076  0.85337  0.51560  1.0000
  C   C23       1.0  0.47264  0.85337  0.01557  1.0000
  C   C24       1.0  0.61924  0.14663  0.48440  1.0000
  O   O1        1.0  0.42598  0.01292  0.89361  1.0000
  O   O2        1.0  0.41307  0.98710  0.60638  1.0000
  O   O3        1.0  0.57402  0.98708  0.10638  1.0000
  O   O4        1.0  0.58693  0.01290  0.39362  1.0000
