data_image0
_chemical_formula_structural       Zn4H44C62N8O16
_chemical_formula_sum              "Zn4 H44 C62 N8 O16"
_cell_length_a       8.68177
_cell_length_b       12.8628
_cell_length_c       13.959
_cell_angle_alpha    93.7924
_cell_angle_beta     98.6992
_cell_angle_gamma    107.568

_space_group_name_H-M_alt    "P 1"
_space_group_IT_number       1

loop_
  _space_group_symop_operation_xyz
  'x, y, z'

loop_
  _atom_site_type_symbol
  _atom_site_label
  _atom_site_symmetry_multiplicity
  _atom_site_fract_x
  _atom_site_fract_y
  _atom_site_fract_z
  _atom_site_occupancy
  Zn  Zn1       1.0  0.28990  0.46123  0.93137  1.0000
  Zn  Zn2       1.0  0.71010  0.53877  0.06863  1.0000
  Zn  Zn3       1.0  0.92819  0.99767  0.58970  1.0000
  Zn  Zn4       1.0  0.07181  0.00233  0.41030  1.0000
  H   H1        1.0  0.05898  0.31012  0.73796  1.0000
  H   H2        1.0  0.94102  0.68989  0.26205  1.0000
  H   H3        1.0  0.74771  0.17131  0.74851  1.0000
  H   H4        1.0  0.25229  0.82869  0.25149  1.0000
  H   H5        1.0  0.97437  0.34623  0.02725  1.0000
  H   H6        1.0  0.02563  0.65378  0.97276  1.0000
  H   H7        1.0  0.57686  0.14945  0.88696  1.0000
  H   H8        1.0  0.42313  0.85055  0.11304  1.0000
  H   H9        1.0  0.67198  0.22682  0.00212  1.0000
  H   H10       1.0  0.32802  0.77318  0.99788  1.0000
  H   H11       1.0  0.90446  0.17825  0.10195  1.0000
  H   H12       1.0  0.09553  0.82175  0.89805  1.0000
  H   H13       1.0  0.96131  0.02431  0.18253  1.0000
  H   H14       1.0  0.03869  0.97569  0.81747  1.0000
  H   H15       1.0  0.82385  0.83160  0.10549  1.0000
  H   H16       1.0  0.17614  0.16840  0.89451  1.0000
  H   H17       1.0  0.61205  0.79374  0.95574  1.0000
  H   H18       1.0  0.38795  0.20626  0.04427  1.0000
  H   H19       1.0  0.43281  0.84825  0.84705  1.0000
  H   H20       1.0  0.56719  0.15175  0.15295  1.0000
  H   H21       1.0  0.41699  0.98176  0.86073  1.0000
  H   H22       1.0  0.58301  0.01824  0.13927  1.0000
  H   H23       1.0  0.38160  0.01945  0.68710  1.0000
  H   H24       1.0  0.61839  0.98054  0.31290  1.0000
  H   H25       1.0  0.60282  0.05859  0.55634  1.0000
  H   H26       1.0  0.39718  0.94141  0.44366  1.0000
  H   H27       1.0  0.79104  0.92084  0.79483  1.0000
  H   H28       1.0  0.20896  0.07916  0.20517  1.0000
  H   H29       1.0  0.33912  0.24907  0.79244  1.0000
  H   H30       1.0  0.66088  0.75093  0.20756  1.0000
  H   H31       1.0  0.46815  0.28891  0.50951  1.0000
  H   H32       1.0  0.53185  0.71108  0.49049  1.0000
  H   H33       1.0  0.77020  0.50924  0.76125  1.0000
  H   H34       1.0  0.22980  0.49077  0.23875  1.0000
  H   H35       1.0  0.68679  0.53701  0.53456  1.0000
  H   H36       1.0  0.31321  0.46299  0.46544  1.0000
  H   H37       1.0  0.86034  0.52108  0.60682  1.0000
  H   H38       1.0  0.13966  0.47892  0.39318  1.0000
  H   H39       1.0  0.84207  0.29368  0.56560  1.0000
  H   H40       1.0  0.15794  0.70633  0.43440  1.0000
  H   H41       1.0  0.85147  0.23713  0.26033  1.0000
  H   H42       1.0  0.14852  0.76287  0.73967  1.0000
  H   H43       1.0  0.68835  0.50030  0.36553  1.0000
  H   H44       1.0  0.31165  0.49970  0.63447  1.0000
  C   C1        1.0  0.99604  0.29603  0.79959  1.0000
  C   C2        1.0  0.00396  0.70397  0.20042  1.0000
  C   C3        1.0  0.84392  0.22578  0.80418  1.0000
  C   C4        1.0  0.15609  0.77423  0.19583  1.0000
  C   C5        1.0  0.96008  0.31631  0.95085  1.0000
  C   C6        1.0  0.03991  0.68369  0.04915  1.0000
  C   C7        1.0  0.68818  0.17278  0.94278  1.0000
  C   C8        1.0  0.31182  0.82722  0.05722  1.0000
  C   C9        1.0  0.72485  0.07422  0.98324  1.0000
  C   C10       1.0  0.27515  0.92578  0.01676  1.0000
  C   C11       1.0  0.84377  0.09387  0.06807  1.0000
  C   C12       1.0  0.15623  0.90613  0.93193  1.0000
  C   C13       1.0  0.87789  0.00758  0.11280  1.0000
  C   C14       1.0  0.12211  0.99242  0.88720  1.0000
  C   C15       1.0  0.79710  0.89939  0.07127  1.0000
  C   C16       1.0  0.20289  0.10061  0.92873  1.0000
  C   C17       1.0  0.67866  0.87858  0.98671  1.0000
  C   C18       1.0  0.32134  0.12142  0.01329  1.0000
  C   C19       1.0  0.63928  0.96465  0.94303  1.0000
  C   C20       1.0  0.36072  0.03535  0.05697  1.0000
  C   C21       1.0  0.50365  0.93599  0.85468  1.0000
  C   C22       1.0  0.49635  0.06401  0.14532  1.0000
  C   C23       1.0  0.49880  0.00525  0.68829  1.0000
  C   C24       1.0  0.50120  0.99475  0.31171  1.0000
  C   C25       1.0  0.60723  0.02252  0.62418  1.0000
  C   C26       1.0  0.39276  0.97747  0.37582  1.0000
  C   C27       1.0  0.71209  0.95285  0.74599  1.0000
  C   C28       1.0  0.28791  0.04715  0.25401  1.0000
  C   C29       1.0  0.55800  0.38300  0.78715  1.0000
  C   C30       1.0  0.44200  0.61700  0.21285  1.0000
  C   C31       1.0  0.42162  0.29285  0.74658  1.0000
  C   C32       1.0  0.57838  0.70715  0.25342  1.0000
  C   C33       1.0  0.39096  0.25880  0.64674  1.0000
  C   C34       1.0  0.60904  0.74120  0.35326  1.0000
  C   C35       1.0  0.49538  0.31703  0.58746  1.0000
  C   C36       1.0  0.50463  0.68297  0.41254  1.0000
  C   C37       1.0  0.63187  0.40843  0.62691  1.0000
  C   C38       1.0  0.36813  0.59157  0.37309  1.0000
  C   C39       1.0  0.66380  0.43947  0.72774  1.0000
  C   C40       1.0  0.33620  0.56053  0.27226  1.0000
  C   C41       1.0  0.74004  0.47462  0.56203  1.0000
  C   C42       1.0  0.25996  0.52538  0.43797  1.0000
  C   C43       1.0  0.76580  0.40728  0.47654  1.0000
  C   C44       1.0  0.23421  0.59272  0.52345  1.0000
  C   C45       1.0  0.82146  0.31731  0.49233  1.0000
  C   C46       1.0  0.17854  0.68269  0.50767  1.0000
  C   C47       1.0  0.85068  0.25538  0.41498  1.0000
  C   C48       1.0  0.14931  0.74462  0.58502  1.0000
  C   C49       1.0  0.82562  0.28360  0.32048  1.0000
  C   C50       1.0  0.17438  0.71640  0.67952  1.0000
  C   C51       1.0  0.76560  0.37087  0.30293  1.0000
  C   C52       1.0  0.23440  0.62913  0.69706  1.0000
  C   C53       1.0  0.73539  0.43231  0.38089  1.0000
  C   C54       1.0  0.26461  0.56769  0.61910  1.0000
  C   C55       1.0  0.58364  0.42182  0.89254  1.0000
  C   C56       1.0  0.41636  0.57819  0.10746  1.0000
  C   C57       1.0  0.24636  0.16043  0.60302  1.0000
  C   C58       1.0  0.75364  0.83957  0.39698  1.0000
  C   C59       1.0  0.90466  0.15764  0.43327  1.0000
  C   C60       1.0  0.09534  0.84236  0.56673  1.0000
  C   C61       1.0  0.73857  0.39869  0.20064  1.0000
  C   C62       1.0  0.26143  0.60131  0.79936  1.0000
  N   N1        1.0  0.06700  0.35151  0.89162  1.0000
  N   N2        1.0  0.93300  0.64850  0.10838  1.0000
  N   N3        1.0  0.82352  0.23938  0.89995  1.0000
  N   N4        1.0  0.17648  0.76062  0.10005  1.0000
  N   N5        1.0  0.56816  0.96196  0.76512  1.0000
  N   N6        1.0  0.43184  0.03804  0.23488  1.0000
  N   N7        1.0  0.73971  0.98977  0.66148  1.0000
  N   N8        1.0  0.26029  0.01023  0.33852  1.0000
  O   O1        1.0  0.46754  0.38556  0.94086  1.0000
  O   O2        1.0  0.53246  0.61444  0.05914  1.0000
  O   O3        1.0  0.72118  0.49206  0.93230  1.0000
  O   O4        1.0  0.27882  0.50794  0.06770  1.0000
  O   O5        1.0  0.14384  0.11863  0.65776  1.0000
  O   O6        1.0  0.85617  0.88137  0.34224  1.0000
  O   O7        1.0  0.23883  0.12582  0.51473  1.0000
  O   O8        1.0  0.76117  0.87418  0.48527  1.0000
  O   O9        1.0  0.87982  0.11905  0.51304  1.0000
  O   O10       1.0  0.12018  0.88095  0.48696  1.0000
  O   O11       1.0  0.96870  0.11962  0.36823  1.0000
  O   O12       1.0  0.03130  0.88038  0.63177  1.0000
  O   O13       1.0  0.78461  0.35184  0.13371  1.0000
  O   O14       1.0  0.21538  0.64816  0.86628  1.0000
  O   O15       1.0  0.66904  0.47413  0.18840  1.0000
  O   O16       1.0  0.33096  0.52586  0.81160  1.0000
