data_image0
_chemical_formula_structural       Zn2H12C24N4Cl4O8
_chemical_formula_sum              "Zn2 H12 C24 N4 Cl4 O8"
_cell_length_a       7.8609
_cell_length_b       7.86085
_cell_length_c       11.7797
_cell_angle_alpha    86.8401
_cell_angle_beta     86.8403
_cell_angle_gamma    76.5894

_space_group_name_H-M_alt    "P 1"
_space_group_IT_number       1

loop_
  _space_group_symop_operation_xyz
  'x, y, z'

loop_
  _atom_site_type_symbol
  _atom_site_label
  _atom_site_symmetry_multiplicity
  _atom_site_fract_x
  _atom_site_fract_y
  _atom_site_fract_z
  _atom_site_occupancy
  Zn  Zn1       1.0  0.60016  0.39984  0.75000  1.0000
  Zn  Zn2       1.0  0.39984  0.60016  0.25000  1.0000
  H   H1        1.0  0.96976  0.42995  0.77887  1.0000
  H   H2        1.0  0.57005  0.03024  0.72113  1.0000
  H   H3        1.0  0.03024  0.57005  0.22113  1.0000
  H   H4        1.0  0.42996  0.96977  0.27887  1.0000
  H   H5        1.0  0.72011  0.27144  0.51494  1.0000
  H   H6        1.0  0.72856  0.27989  0.98506  1.0000
  H   H7        1.0  0.27989  0.72856  0.48506  1.0000
  H   H8        1.0  0.27144  0.72011  0.01494  1.0000
  H   H9        1.0  0.27647  0.24991  0.47529  1.0000
  H   H10       1.0  0.75008  0.72353  0.02471  1.0000
  H   H11       1.0  0.72353  0.75009  0.52471  1.0000
  H   H12       1.0  0.24992  0.27647  0.97529  1.0000
  C   C1        1.0  0.29843  0.37566  0.68928  1.0000
  C   C2        1.0  0.62432  0.70156  0.81072  1.0000
  C   C3        1.0  0.70157  0.62433  0.31073  1.0000
  C   C4        1.0  0.37567  0.29844  0.18928  1.0000
  C   C5        1.0  0.14237  0.34215  0.63432  1.0000
  C   C6        1.0  0.65784  0.85763  0.86568  1.0000
  C   C7        1.0  0.85763  0.65785  0.36568  1.0000
  C   C8        1.0  0.34215  0.14238  0.13432  1.0000
  C   C9        1.0  0.98085  0.37785  0.69430  1.0000
  C   C10       1.0  0.62215  0.01915  0.80570  1.0000
  C   C11       1.0  0.01915  0.62215  0.30570  1.0000
  C   C12       1.0  0.37785  0.98085  0.19430  1.0000
  C   C13       1.0  0.84237  0.28839  0.54704  1.0000
  C   C14       1.0  0.71161  0.15763  0.95296  1.0000
  C   C15       1.0  0.15763  0.71161  0.45296  1.0000
  C   C16       1.0  0.28839  0.84237  0.04704  1.0000
  C   C17       1.0  0.99997  0.24940  0.48279  1.0000
  C   C18       1.0  0.75060  0.00002  0.01720  1.0000
  C   C19       1.0  0.00003  0.75060  0.51721  1.0000
  C   C20       1.0  0.24940  0.99997  0.98280  1.0000
  C   C21       1.0  0.15315  0.27639  0.52561  1.0000
  C   C22       1.0  0.72361  0.84685  0.97439  1.0000
  C   C23       1.0  0.84685  0.72361  0.47439  1.0000
  C   C24       1.0  0.27639  0.15315  0.02561  1.0000
  N   N1        1.0  0.83485  0.35156  0.65137  1.0000
  N   N2        1.0  0.64843  0.16515  0.84862  1.0000
  N   N3        1.0  0.16515  0.64844  0.34863  1.0000
  N   N4        1.0  0.35157  0.83486  0.15138  1.0000
  Cl  Cl1       1.0  0.00020  0.17137  0.34899  1.0000
  Cl  Cl2       1.0  0.82862  0.99979  0.15100  1.0000
  Cl  Cl3       1.0  0.99980  0.82863  0.65101  1.0000
  Cl  Cl4       1.0  0.17137  0.00021  0.84900  1.0000
  O   O1        1.0  0.28253  0.43004  0.78861  1.0000
  O   O2        1.0  0.56995  0.71746  0.71139  1.0000
  O   O3        1.0  0.71747  0.56995  0.21140  1.0000
  O   O4        1.0  0.43005  0.28254  0.28861  1.0000
  O   O5        1.0  0.44524  0.34445  0.63067  1.0000
  O   O6        1.0  0.65554  0.55475  0.86933  1.0000
  O   O7        1.0  0.55476  0.65555  0.36933  1.0000
  O   O8        1.0  0.34446  0.44525  0.13067  1.0000
