data_image0
_chemical_formula_structural       Co2H54C40N8O8
_chemical_formula_sum              "Co2 H54 C40 N8 O8"
_cell_length_a       7.28546
_cell_length_b       8.63315
_cell_length_c       18.2925
_cell_angle_alpha    91.8635
_cell_angle_beta     89.9998
_cell_angle_gamma    89.9994

_space_group_name_H-M_alt    "P 1"
_space_group_IT_number       1

loop_
  _space_group_symop_operation_xyz
  'x, y, z'

loop_
  _atom_site_type_symbol
  _atom_site_label
  _atom_site_symmetry_multiplicity
  _atom_site_fract_x
  _atom_site_fract_y
  _atom_site_fract_z
  _atom_site_occupancy
  Co  Co1       1.0  0.64382  0.00000  0.00000  1.0000
  Co  Co2       1.0  0.62485  0.00000  0.50000  1.0000
  H   H1        1.0  0.58835  0.29887  0.91406  1.0000
  H   H2        1.0  0.58836  0.70111  0.08595  1.0000
  H   H3        1.0  0.08268  0.12445  0.99940  1.0000
  H   H4        1.0  0.08266  0.87556  0.00059  1.0000
  H   H5        1.0  0.28088  0.79484  0.83075  1.0000
  H   H6        1.0  0.28088  0.20516  0.16925  1.0000
  H   H7        1.0  0.15703  0.40058  0.93410  1.0000
  H   H8        1.0  0.15706  0.59942  0.06587  1.0000
  H   H9        1.0  0.01551  0.92345  0.79961  1.0000
  H   H10       1.0  0.01552  0.07656  0.20040  1.0000
  H   H11       1.0  0.10738  0.10044  0.83448  1.0000
  H   H12       1.0  0.10738  0.89956  0.16551  1.0000
  H   H13       1.0  0.88732  0.63599  0.90773  1.0000
  H   H14       1.0  0.88739  0.36400  0.09227  1.0000
  H   H15       1.0  0.68795  0.55167  0.86775  1.0000
  H   H16       1.0  0.68801  0.44832  0.13225  1.0000
  H   H17       1.0  0.67260  0.04560  0.70706  1.0000
  H   H18       1.0  0.67260  0.95440  0.29295  1.0000
  H   H19       1.0  0.67043  0.04038  0.80378  1.0000
  H   H20       1.0  0.67045  0.95962  0.19622  1.0000
  H   H21       1.0  0.51535  0.16376  0.75831  1.0000
  H   H22       1.0  0.51537  0.83624  0.24169  1.0000
  H   H23       1.0  0.63321  0.75932  0.69350  1.0000
  H   H24       1.0  0.63321  0.24069  0.30650  1.0000
  H   H25       1.0  0.46820  0.66154  0.74727  1.0000
  H   H26       1.0  0.46818  0.33845  0.25273  1.0000
  H   H27       1.0  0.65274  0.76197  0.79092  1.0000
  H   H28       1.0  0.65273  0.23803  0.20908  1.0000
  H   H29       1.0  0.22515  0.16956  0.71722  1.0000
  H   H30       1.0  0.22517  0.83044  0.28277  1.0000
  H   H31       1.0  0.03952  0.05507  0.68515  1.0000
  H   H32       1.0  0.03954  0.94491  0.31484  1.0000
  H   H33       1.0  0.05918  0.59284  0.79520  1.0000
  H   H34       1.0  0.05927  0.40722  0.20480  1.0000
  H   H35       1.0  0.09487  0.80186  0.62787  1.0000
  H   H36       1.0  0.09488  0.19813  0.37214  1.0000
  H   H37       1.0  0.15234  0.73198  0.71448  1.0000
  H   H38       1.0  0.15230  0.26801  0.28553  1.0000
  H   H39       1.0  0.30430  0.70030  0.63869  1.0000
  H   H40       1.0  0.30429  0.29970  0.36131  1.0000
  H   H41       1.0  0.92911  0.30177  0.75079  1.0000
  H   H42       1.0  0.92913  0.69824  0.24921  1.0000
  H   H43       1.0  0.72154  0.40379  0.74329  1.0000
  H   H44       1.0  0.72157  0.59622  0.25670  1.0000
  H   H45       1.0  0.85958  0.57608  0.65148  1.0000
  H   H46       1.0  0.85959  0.42393  0.34852  1.0000
  H   H47       1.0  0.08081  0.50110  0.66869  1.0000
  H   H48       1.0  0.08083  0.49891  0.33131  1.0000
  H   H49       1.0  0.63280  0.27601  0.62196  1.0000
  H   H50       1.0  0.63281  0.72399  0.37803  1.0000
  H   H51       1.0  0.18959  0.35182  0.56351  1.0000
  H   H52       1.0  0.18959  0.64818  0.43650  1.0000
  H   H53       1.0  0.04291  0.11784  0.47543  1.0000
  H   H54       1.0  0.04288  0.88214  0.52458  1.0000
  C   C1        1.0  0.40501  0.98467  0.88694  1.0000
  C   C2        1.0  0.40503  0.01533  0.11306  1.0000
  C   C3        1.0  0.73158  0.29043  0.92973  1.0000
  C   C4        1.0  0.73159  0.70956  0.07027  1.0000
  C   C5        1.0  0.98881  0.20231  0.97311  1.0000
  C   C6        1.0  0.98882  0.79770  0.02688  1.0000
  C   C7        1.0  0.31102  0.91644  0.81893  1.0000
  C   C8        1.0  0.31102  0.08356  0.18107  1.0000
  C   C9        1.0  0.02843  0.34049  0.94148  1.0000
  C   C10       1.0  0.02844  0.65951  0.05851  1.0000
  C   C11       1.0  0.44449  0.91531  0.75084  1.0000
  C   C12       1.0  0.44449  0.08468  0.24916  1.0000
  C   C13       1.0  0.13411  0.00180  0.79668  1.0000
  C   C14       1.0  0.13411  0.99820  0.20332  1.0000
  C   C15       1.0  0.83743  0.53775  0.87368  1.0000
  C   C16       1.0  0.83749  0.46225  0.12632  1.0000
  C   C17       1.0  0.30559  0.93643  0.68546  1.0000
  C   C18       1.0  0.30559  0.06356  0.31454  1.0000
  C   C19       1.0  0.58262  0.05004  0.75533  1.0000
  C   C20       1.0  0.58263  0.94996  0.24468  1.0000
  C   C21       1.0  0.55568  0.76505  0.74506  1.0000
  C   C22       1.0  0.55567  0.23495  0.25494  1.0000
  C   C23       1.0  0.16586  0.05265  0.71803  1.0000
  C   C24       1.0  0.16587  0.94733  0.28197  1.0000
  C   C25       1.0  0.93103  0.52931  0.80139  1.0000
  C   C26       1.0  0.93109  0.47072  0.19861  1.0000
  C   C27       1.0  0.40349  0.99816  0.61818  1.0000
  C   C28       1.0  0.40350  0.00185  0.38182  1.0000
  C   C29       1.0  0.20970  0.78311  0.66536  1.0000
  C   C30       1.0  0.20969  0.21688  0.33465  1.0000
  C   C31       1.0  0.87189  0.41870  0.74195  1.0000
  C   C32       1.0  0.87192  0.58132  0.25804  1.0000
  C   C33       1.0  0.93466  0.47143  0.66671  1.0000
  C   C34       1.0  0.93468  0.52858  0.33329  1.0000
  C   C35       1.0  0.76368  0.26538  0.59408  1.0000
  C   C36       1.0  0.76368  0.73463  0.40592  1.0000
  C   C37       1.0  0.05193  0.30518  0.56081  1.0000
  C   C38       1.0  0.05194  0.69481  0.43920  1.0000
  C   C39       1.0  0.97769  0.18799  0.51801  1.0000
  C   C40       1.0  0.97767  0.81199  0.48200  1.0000
  N   N1        1.0  0.80314  0.17182  0.96530  1.0000
  N   N2        1.0  0.80313  0.82817  0.03470  1.0000
  N   N3        1.0  0.86387  0.39503  0.91487  1.0000
  N   N4        1.0  0.86390  0.60496  0.08512  1.0000
  N   N5        1.0  0.91527  0.35230  0.60886  1.0000
  N   N6        1.0  0.91528  0.64770  0.39114  1.0000
  N   N7        1.0  0.79799  0.16341  0.53930  1.0000
  N   N8        1.0  0.79799  0.83657  0.46070  1.0000
  O   O1        1.0  0.51897  0.89199  0.91865  1.0000
  O   O2        1.0  0.51894  0.10803  0.08134  1.0000
  O   O3        1.0  0.37782  0.12159  0.90909  1.0000
  O   O4        1.0  0.37788  0.87839  0.09093  1.0000
  O   O5        1.0  0.39446  0.13833  0.60284  1.0000
  O   O6        1.0  0.39447  0.86167  0.39716  1.0000
  O   O7        1.0  0.49773  0.89732  0.57944  1.0000
  O   O8        1.0  0.49774  0.10268  0.42056  1.0000
