data_image0
_chemical_formula_structural       Sn2H52C54S2N4O8
_chemical_formula_sum              "Sn2 H52 C54 S2 N4 O8"
_cell_length_a       9.4442
_cell_length_b       10.4801
_cell_length_c       13.0127
_cell_angle_alpha    90
_cell_angle_beta     106.483
_cell_angle_gamma    90

_space_group_name_H-M_alt    "P 1"
_space_group_IT_number       1

loop_
  _space_group_symop_operation_xyz
  'x, y, z'

loop_
  _atom_site_type_symbol
  _atom_site_label
  _atom_site_symmetry_multiplicity
  _atom_site_fract_x
  _atom_site_fract_y
  _atom_site_fract_z
  _atom_site_occupancy
  Sn  Sn1       1.0  0.80753  0.89757  0.25952  1.0000
  Sn  Sn2       1.0  0.19247  0.39757  0.74048  1.0000
  H   H1        1.0  0.84419  0.20674  0.53582  1.0000
  H   H2        1.0  0.15580  0.70673  0.46417  1.0000
  H   H3        1.0  0.85518  0.60933  0.19528  1.0000
  H   H4        1.0  0.14482  0.10934  0.80472  1.0000
  H   H5        1.0  0.70129  0.43897  0.08398  1.0000
  H   H6        1.0  0.29871  0.93897  0.91602  1.0000
  H   H7        1.0  0.43726  0.48199  0.98874  1.0000
  H   H8        1.0  0.56274  0.98200  0.01126  1.0000
  H   H9        1.0  0.32696  0.69212  0.00752  1.0000
  H   H10       1.0  0.67304  0.19212  0.99248  1.0000
  H   H11       1.0  0.47699  0.85801  0.12562  1.0000
  H   H12       1.0  0.52301  0.35802  0.87438  1.0000
  H   H13       1.0  0.72894  0.78630  0.46348  1.0000
  H   H14       1.0  0.27107  0.28631  0.53651  1.0000
  H   H15       1.0  0.82929  0.80369  0.65991  1.0000
  H   H16       1.0  0.17071  0.30368  0.34008  1.0000
  H   H17       1.0  0.05757  0.92955  0.73981  1.0000
  H   H18       1.0  0.94242  0.42954  0.26018  1.0000
  H   H19       1.0  0.18505  0.03887  0.62149  1.0000
  H   H20       1.0  0.81495  0.53886  0.37850  1.0000
  H   H21       1.0  0.08586  0.02337  0.42505  1.0000
  H   H22       1.0  0.91416  0.52338  0.57494  1.0000
  H   H23       1.0  0.84099  0.87570  0.03081  1.0000
  H   H24       1.0  0.15901  0.37570  0.96919  1.0000
  H   H25       1.0  0.92310  0.00837  0.90167  1.0000
  H   H26       1.0  0.07689  0.50836  0.09834  1.0000
  H   H27       1.0  0.01047  0.22930  0.94884  1.0000
  H   H28       1.0  0.98953  0.72930  0.05117  1.0000
  H   H29       1.0  0.01088  0.31967  0.12604  1.0000
  H   H30       1.0  0.98911  0.81966  0.87396  1.0000
  H   H31       1.0  0.92254  0.18851  0.25539  1.0000
  H   H32       1.0  0.07745  0.68851  0.74461  1.0000
  H   H33       1.0  0.44208  0.09172  0.38515  1.0000
  H   H34       1.0  0.55792  0.59172  0.61485  1.0000
  H   H35       1.0  0.24202  0.15864  0.23594  1.0000
  H   H36       1.0  0.75798  0.65864  0.76406  1.0000
  H   H37       1.0  0.36128  0.07843  0.17211  1.0000
  H   H38       1.0  0.63873  0.57843  0.82789  1.0000
  H   H39       1.0  0.53538  0.45035  0.28717  1.0000
  H   H40       1.0  0.46462  0.95035  0.71283  1.0000
  H   H41       1.0  0.35292  0.44385  0.30182  1.0000
  H   H42       1.0  0.64707  0.94385  0.69818  1.0000
  H   H43       1.0  0.58741  0.12653  0.52337  1.0000
  H   H44       1.0  0.41259  0.62653  0.47663  1.0000
  H   H45       1.0  0.50078  0.32633  0.64758  1.0000
  H   H46       1.0  0.49922  0.82633  0.35242  1.0000
  H   H47       1.0  0.52984  0.16285  0.68116  1.0000
  H   H48       1.0  0.47016  0.66285  0.31884  1.0000
  H   H49       1.0  0.73082  0.38329  0.76819  1.0000
  H   H50       1.0  0.26918  0.88329  0.23181  1.0000
  H   H51       1.0  0.74511  0.22584  0.81748  1.0000
  H   H52       1.0  0.25490  0.72585  0.18252  1.0000
  C   C1        1.0  0.67687  0.74486  0.16943  1.0000
  C   C2        1.0  0.32313  0.24486  0.83057  1.0000
  C   C3        1.0  0.73873  0.62654  0.15588  1.0000
  C   C4        1.0  0.26128  0.12655  0.84412  1.0000
  C   C5        1.0  0.65279  0.53173  0.09189  1.0000
  C   C6        1.0  0.34722  0.03174  0.90811  1.0000
  C   C7        1.0  0.50460  0.55534  0.03873  1.0000
  C   C8        1.0  0.49541  0.05535  0.96127  1.0000
  C   C9        1.0  0.44233  0.67337  0.05010  1.0000
  C   C10       1.0  0.55768  0.17337  0.94990  1.0000
  C   C11       1.0  0.52753  0.76706  0.11575  1.0000
  C   C12       1.0  0.47247  0.26707  0.88425  1.0000
  C   C13       1.0  0.89963  0.90391  0.42985  1.0000
  C   C14       1.0  0.10039  0.40392  0.57015  1.0000
  C   C15       1.0  0.82863  0.84250  0.49706  1.0000
  C   C16       1.0  0.17139  0.34251  0.50293  1.0000
  C   C17       1.0  0.88488  0.85248  0.60830  1.0000
  C   C18       1.0  0.11513  0.35247  0.39169  1.0000
  C   C19       1.0  0.01251  0.92333  0.65305  1.0000
  C   C20       1.0  0.98749  0.42332  0.34694  1.0000
  C   C21       1.0  0.08444  0.98437  0.58671  1.0000
  C   C22       1.0  0.91556  0.48437  0.41329  1.0000
  C   C23       1.0  0.02817  0.97474  0.47554  1.0000
  C   C24       1.0  0.97185  0.47473  0.52445  1.0000
  C   C25       1.0  0.88175  0.02122  0.15407  1.0000
  C   C26       1.0  0.11823  0.52123  0.84593  1.0000
  C   C27       1.0  0.88130  0.97196  0.05384  1.0000
  C   C28       1.0  0.11869  0.47197  0.94616  1.0000
  C   C29       1.0  0.92719  0.04677  0.98043  1.0000
  C   C30       1.0  0.07280  0.54676  0.01957  1.0000
  C   C31       1.0  0.97521  0.17157  0.00667  1.0000
  C   C32       1.0  0.02478  0.67156  0.99333  1.0000
  C   C33       1.0  0.97400  0.22187  0.10587  1.0000
  C   C34       1.0  0.02599  0.72186  0.89413  1.0000
  C   C35       1.0  0.92689  0.14763  0.17930  1.0000
  C   C36       1.0  0.07310  0.64763  0.82070  1.0000
  C   C37       1.0  0.62232  0.10566  0.31589  1.0000
  C   C38       1.0  0.37768  0.60566  0.68412  1.0000
  C   C39       1.0  0.47457  0.15637  0.32900  1.0000
  C   C40       1.0  0.52544  0.65637  0.67101  1.0000
  C   C41       1.0  0.35220  0.15900  0.22339  1.0000
  C   C42       1.0  0.64781  0.65900  0.77662  1.0000
  C   C43       1.0  0.44267  0.38681  0.28660  1.0000
  C   C44       1.0  0.55733  0.88681  0.71341  1.0000
  C   C45       1.0  0.56506  0.32565  0.46941  1.0000
  C   C46       1.0  0.43493  0.82565  0.53059  1.0000
  C   C47       1.0  0.62441  0.22179  0.55421  1.0000
  C   C48       1.0  0.37559  0.72179  0.44579  1.0000
  C   C49       1.0  0.58076  0.24834  0.65874  1.0000
  C   C50       1.0  0.41924  0.74834  0.34127  1.0000
  C   C51       1.0  0.72490  0.28251  0.74384  1.0000
  C   C52       1.0  0.27511  0.78251  0.25616  1.0000
  C   C53       1.0  0.84586  0.25802  0.69145  1.0000
  C   C54       1.0  0.15414  0.75801  0.30854  1.0000
  S   S1        1.0  0.38524  0.30469  0.15886  1.0000
  S   S2        1.0  0.61476  0.80469  0.84114  1.0000
  N   N1        1.0  0.48877  0.28770  0.36927  1.0000
  N   N2        1.0  0.51123  0.78770  0.63073  1.0000
  N   N3        1.0  0.78535  0.22507  0.58889  1.0000
  N   N4        1.0  0.21465  0.72507  0.41111  1.0000
  O   O1        1.0  0.60656  0.99871  0.26270  1.0000
  O   O2        1.0  0.39345  0.49872  0.73731  1.0000
  O   O3        1.0  0.74027  0.16174  0.35704  1.0000
  O   O4        1.0  0.25973  0.66174  0.64296  1.0000
  O   O5        1.0  0.58456  0.44070  0.49352  1.0000
  O   O6        1.0  0.41543  0.94070  0.50648  1.0000
  O   O7        1.0  0.98140  0.26535  0.73853  1.0000
  O   O8        1.0  0.01860  0.76534  0.26146  1.0000
