data_image0
_chemical_formula_structural       Hg4H36C48I8N20
_chemical_formula_sum              "Hg4 H36 C48 I8 N20"
_cell_length_a       7.71789
_cell_length_b       16.0462
_cell_length_c       18.458
_cell_angle_alpha    68.6645
_cell_angle_beta     88.428
_cell_angle_gamma    83.5809

_space_group_name_H-M_alt    "P 1"
_space_group_IT_number       1

loop_
  _space_group_symop_operation_xyz
  'x, y, z'

loop_
  _atom_site_type_symbol
  _atom_site_label
  _atom_site_symmetry_multiplicity
  _atom_site_fract_x
  _atom_site_fract_y
  _atom_site_fract_z
  _atom_site_occupancy
  Hg  Hg1       1.0  0.20843  0.46300  0.32663  1.0000
  Hg  Hg2       1.0  0.79159  0.53701  0.67337  1.0000
  Hg  Hg3       1.0  0.41656  0.78006  0.00730  1.0000
  Hg  Hg4       1.0  0.58347  0.21991  0.99269  1.0000
  H   H1        1.0  0.54459  0.57215  0.19479  1.0000
  H   H2        1.0  0.45543  0.42784  0.80523  1.0000
  H   H3        1.0  0.84154  0.48498  0.22605  1.0000
  H   H4        1.0  0.15849  0.51501  0.77398  1.0000
  H   H5        1.0  0.95475  0.60839  0.37787  1.0000
  H   H6        1.0  0.04526  0.39163  0.62213  1.0000
  H   H7        1.0  0.66594  0.70095  0.35418  1.0000
  H   H8        1.0  0.33405  0.29906  0.64582  1.0000
  H   H9        1.0  0.08590  0.65322  0.11544  1.0000
  H   H10       1.0  0.91415  0.34676  0.88456  1.0000
  H   H11       1.0  0.80746  0.67417  0.04017  1.0000
  H   H12       1.0  0.19258  0.32578  0.95984  1.0000
  H   H13       1.0  0.59787  0.88056  0.11110  1.0000
  H   H14       1.0  0.40209  0.11941  0.88890  1.0000
  H   H15       1.0  0.86706  0.86862  0.18956  1.0000
  H   H16       1.0  0.13292  0.13137  0.81044  1.0000
  H   H17       1.0  0.89407  0.14563  0.39320  1.0000
  H   H18       1.0  0.10591  0.85439  0.60679  1.0000
  H   H19       1.0  0.04001  0.28354  0.31578  1.0000
  H   H20       1.0  0.95997  0.71647  0.68422  1.0000
  H   H21       1.0  0.06951  0.35800  0.50666  1.0000
  H   H22       1.0  0.93043  0.64202  0.49333  1.0000
  H   H23       1.0  0.93082  0.22174  0.59367  1.0000
  H   H24       1.0  0.06913  0.77829  0.40631  1.0000
  H   H25       1.0  0.62848  0.82059  0.70916  1.0000
  H   H26       1.0  0.37151  0.17943  0.29083  1.0000
  H   H27       1.0  0.54116  0.74415  0.84548  1.0000
  H   H28       1.0  0.45884  0.25586  0.15451  1.0000
  H   H29       1.0  0.65543  0.95469  0.90910  1.0000
  H   H30       1.0  0.34457  0.04530  0.09090  1.0000
  H   H31       1.0  0.75460  0.04118  0.77480  1.0000
  H   H32       1.0  0.24539  0.95881  0.22520  1.0000
  H   H33       1.0  0.38486  0.77945  0.32242  1.0000
  H   H34       1.0  0.61515  0.22056  0.67758  1.0000
  H   H35       1.0  0.69852  0.90755  0.58594  1.0000
  H   H36       1.0  0.30146  0.09247  0.41406  1.0000
  C   C1        1.0  0.40966  0.69546  0.25282  1.0000
  C   C2        1.0  0.59035  0.30454  0.74719  1.0000
  C   C3        1.0  0.15421  0.74598  0.20563  1.0000
  C   C4        1.0  0.84579  0.25401  0.79437  1.0000
  C   C5        1.0  0.58116  0.64442  0.27150  1.0000
  C   C6        1.0  0.41884  0.35558  0.72852  1.0000
  C   C7        1.0  0.63185  0.58179  0.23587  1.0000
  C   C8        1.0  0.36816  0.41821  0.76414  1.0000
  C   C9        1.0  0.79579  0.53330  0.25337  1.0000
  C   C10       1.0  0.20421  0.46669  0.74664  1.0000
  C   C11       1.0  0.85898  0.60292  0.33778  1.0000
  C   C12       1.0  0.14104  0.39709  0.66223  1.0000
  C   C13       1.0  0.69785  0.65435  0.32389  1.0000
  C   C14       1.0  0.30216  0.34565  0.67612  1.0000
  C   C15       1.0  0.99574  0.75830  0.15987  1.0000
  C   C16       1.0  0.00428  0.24167  0.84013  1.0000
  C   C17       1.0  0.98003  0.70400  0.11608  1.0000
  C   C18       1.0  0.01998  0.29597  0.88392  1.0000
  C   C19       1.0  0.82665  0.71590  0.07407  1.0000
  C   C20       1.0  0.17337  0.28406  0.92593  1.0000
  C   C21       1.0  0.70874  0.83049  0.11463  1.0000
  C   C22       1.0  0.29127  0.16950  0.88538  1.0000
  C   C23       1.0  0.85737  0.82348  0.15817  1.0000
  C   C24       1.0  0.14264  0.17649  0.84184  1.0000
  C   C25       1.0  0.82566  0.09238  0.54878  1.0000
  C   C26       1.0  0.17431  0.90764  0.45122  1.0000
  C   C27       1.0  0.73934  0.99215  0.65035  1.0000
  C   C28       1.0  0.26066  0.00786  0.34964  1.0000
  C   C29       1.0  0.90155  0.17322  0.49970  1.0000
  C   C30       1.0  0.09844  0.82679  0.50029  1.0000
  C   C31       1.0  0.93161  0.19106  0.42036  1.0000
  C   C32       1.0  0.06835  0.80896  0.57964  1.0000
  C   C33       1.0  0.01159  0.26709  0.37757  1.0000
  C   C34       1.0  0.98838  0.73292  0.62243  1.0000
  C   C35       1.0  0.02909  0.30847  0.48448  1.0000
  C   C36       1.0  0.97087  0.69155  0.51551  1.0000
  C   C37       1.0  0.95120  0.23380  0.53214  1.0000
  C   C38       1.0  0.04876  0.76623  0.46785  1.0000
  C   C39       1.0  0.69266  0.94006  0.72974  1.0000
  C   C40       1.0  0.30735  0.05994  0.27024  1.0000
  C   C41       1.0  0.63558  0.85456  0.75042  1.0000
  C   C42       1.0  0.36441  0.14546  0.24957  1.0000
  C   C43       1.0  0.58672  0.81080  0.82690  1.0000
  C   C44       1.0  0.41328  0.18921  0.17309  1.0000
  C   C45       1.0  0.65141  0.92786  0.86263  1.0000
  C   C46       1.0  0.34859  0.07213  0.13736  1.0000
  C   C47       1.0  0.70450  0.97640  0.78794  1.0000
  C   C48       1.0  0.29549  0.02360  0.21205  1.0000
  I   I1        1.0  0.29490  0.51460  0.44291  1.0000
  I   I2        1.0  0.70514  0.48540  0.55710  1.0000
  I   I3        1.0  0.27620  0.41493  0.20374  1.0000
  I   I4        1.0  0.72378  0.58509  0.79626  1.0000
  I   I5        1.0  0.43066  0.61447  0.00356  1.0000
  I   I6        1.0  0.56945  0.38551  0.99641  1.0000
  I   I7        1.0  0.23146  0.93267  0.00573  1.0000
  I   I8        1.0  0.76856  0.06729  0.99429  1.0000
  N   N1        1.0  0.17486  0.79043  0.25357  1.0000
  N   N2        1.0  0.82513  0.20956  0.74643  1.0000
  N   N3        1.0  0.33766  0.75795  0.28220  1.0000
  N   N4        1.0  0.66234  0.24205  0.71780  1.0000
  N   N5        1.0  0.29492  0.68731  0.20380  1.0000
  N   N6        1.0  0.70510  0.31268  0.79621  1.0000
  N   N7        1.0  0.90755  0.54394  0.30304  1.0000
  N   N8        1.0  0.09245  0.45606  0.69697  1.0000
  N   N9        1.0  0.69291  0.77721  0.07398  1.0000
  N   N10       1.0  0.30711  0.22276  0.92603  1.0000
  N   N11       1.0  0.73270  0.96590  0.58806  1.0000
  N   N12       1.0  0.26729  0.03412  0.41193  1.0000
  N   N13       1.0  0.78714  0.02832  0.52288  1.0000
  N   N14       1.0  0.21284  0.97171  0.47711  1.0000
  N   N15       1.0  0.79616  0.07325  0.62617  1.0000
  N   N16       1.0  0.20383  0.92676  0.37383  1.0000
  N   N17       1.0  0.06046  0.32439  0.40908  1.0000
  N   N18       1.0  0.93951  0.67563  0.59092  1.0000
  N   N19       1.0  0.59155  0.84723  0.88152  1.0000
  N   N20       1.0  0.40844  0.15277  0.11848  1.0000
