data_image0
_chemical_formula_structural       U4H24C12Se4N8O28
_chemical_formula_sum              "U4 H24 C12 Se4 N8 O28"
_cell_length_a       8.88738
_cell_length_b       10.0156
_cell_length_c       10.6386
_cell_angle_alpha    90.0001
_cell_angle_beta     90
_cell_angle_gamma    89.6128

_space_group_name_H-M_alt    "P 1"
_space_group_IT_number       1

loop_
  _space_group_symop_operation_xyz
  'x, y, z'

loop_
  _atom_site_type_symbol
  _atom_site_label
  _atom_site_symmetry_multiplicity
  _atom_site_fract_x
  _atom_site_fract_y
  _atom_site_fract_z
  _atom_site_occupancy
  U   U1        1.0  0.88648  0.81324  0.79030  1.0000
  U   U2        1.0  0.61352  0.68676  0.29030  1.0000
  U   U3        1.0  0.11353  0.18676  0.20970  1.0000
  U   U4        1.0  0.38648  0.31324  0.70970  1.0000
  H   H1        1.0  0.27502  0.51477  0.97217  1.0000
  H   H2        1.0  0.22498  0.98523  0.47217  1.0000
  H   H3        1.0  0.72498  0.48523  0.02783  1.0000
  H   H4        1.0  0.77502  0.01477  0.52783  1.0000
  H   H5        1.0  0.31831  0.52137  0.13552  1.0000
  H   H6        1.0  0.18169  0.97863  0.63552  1.0000
  H   H7        1.0  0.68169  0.47863  0.86448  1.0000
  H   H8        1.0  0.81831  0.02137  0.36448  1.0000
  H   H9        1.0  0.60332  0.99410  0.81658  1.0000
  H   H10       1.0  0.89668  0.50590  0.31658  1.0000
  H   H11       1.0  0.39668  0.00590  0.18343  1.0000
  H   H12       1.0  0.10332  0.49410  0.68342  1.0000
  H   H13       1.0  0.41276  0.00824  0.85417  1.0000
  H   H14       1.0  0.08723  0.49176  0.35417  1.0000
  H   H15       1.0  0.58724  0.99176  0.14583  1.0000
  H   H16       1.0  0.91277  0.50824  0.64583  1.0000
  H   H17       1.0  0.33858  0.67931  0.83740  1.0000
  H   H18       1.0  0.16142  0.82069  0.33740  1.0000
  H   H19       1.0  0.66142  0.32069  0.16260  1.0000
  H   H20       1.0  0.83858  0.17931  0.66260  1.0000
  H   H21       1.0  0.27284  0.82559  0.91334  1.0000
  H   H22       1.0  0.22716  0.67441  0.41334  1.0000
  H   H23       1.0  0.72716  0.17441  0.08666  1.0000
  H   H24       1.0  0.77284  0.32559  0.58666  1.0000
  C   C1        1.0  0.51186  0.82051  0.87406  1.0000
  C   C2        1.0  0.98814  0.67949  0.37406  1.0000
  C   C3        1.0  0.48814  0.17949  0.12594  1.0000
  C   C4        1.0  0.01186  0.32051  0.62594  1.0000
  C   C5        1.0  0.36619  0.75300  0.91030  1.0000
  C   C6        1.0  0.13381  0.74700  0.41030  1.0000
  C   C7        1.0  0.63380  0.24700  0.08970  1.0000
  C   C8        1.0  0.86620  0.25300  0.58970  1.0000
  C   C9        1.0  0.37504  0.68486  0.03674  1.0000
  C   C10       1.0  0.12496  0.81514  0.53674  1.0000
  C   C11       1.0  0.62496  0.31514  0.96326  1.0000
  C   C12       1.0  0.87504  0.18486  0.46326  1.0000
  Se  Se1       1.0  0.10833  0.10471  0.88600  1.0000
  Se  Se2       1.0  0.39167  0.39529  0.38600  1.0000
  Se  Se3       1.0  0.89167  0.89529  0.11400  1.0000
  Se  Se4       1.0  0.60834  0.60471  0.61400  1.0000
  N   N1        1.0  0.31422  0.56553  0.04878  1.0000
  N   N2        1.0  0.18578  0.93447  0.54878  1.0000
  N   N3        1.0  0.68578  0.43447  0.95122  1.0000
  N   N4        1.0  0.81422  0.06553  0.45122  1.0000
  N   N5        1.0  0.50792  0.94926  0.84810  1.0000
  N   N6        1.0  0.99208  0.55074  0.34810  1.0000
  N   N7        1.0  0.49208  0.05074  0.15190  1.0000
  N   N8        1.0  0.00792  0.44926  0.65190  1.0000
  O   O1        1.0  0.79247  0.94232  0.69509  1.0000
  O   O2        1.0  0.70753  0.55768  0.19510  1.0000
  O   O3        1.0  0.20753  0.05768  0.30490  1.0000
  O   O4        1.0  0.29247  0.44232  0.80491  1.0000
  O   O5        1.0  0.97111  0.68904  0.89370  1.0000
  O   O6        1.0  0.52889  0.81096  0.39370  1.0000
  O   O7        1.0  0.02889  0.31096  0.10630  1.0000
  O   O8        1.0  0.47111  0.18904  0.60630  1.0000
  O   O9        1.0  0.09785  0.95465  0.80749  1.0000
  O   O10       1.0  0.40215  0.54535  0.30749  1.0000
  O   O11       1.0  0.90215  0.04535  0.19251  1.0000
  O   O12       1.0  0.59786  0.45465  0.69251  1.0000
  O   O13       1.0  0.15547  0.05193  0.03684  1.0000
  O   O14       1.0  0.34454  0.44807  0.53684  1.0000
  O   O15       1.0  0.84453  0.94807  0.96316  1.0000
  O   O16       1.0  0.65547  0.55193  0.46316  1.0000
  O   O17       1.0  0.28574  0.14848  0.83623  1.0000
  O   O18       1.0  0.21427  0.35152  0.33623  1.0000
  O   O19       1.0  0.71426  0.85152  0.16376  1.0000
  O   O20       1.0  0.78574  0.64848  0.66377  1.0000
  O   O21       1.0  0.63128  0.75034  0.86542  1.0000
  O   O22       1.0  0.86872  0.74966  0.36541  1.0000
  O   O23       1.0  0.36872  0.24966  0.13458  1.0000
  O   O24       1.0  0.13128  0.25034  0.63458  1.0000
  O   O25       1.0  0.43488  0.74571  0.12875  1.0000
  O   O26       1.0  0.06512  0.75429  0.62875  1.0000
  O   O27       1.0  0.56512  0.25429  0.87125  1.0000
  O   O28       1.0  0.93488  0.24571  0.37125  1.0000
