data_image0
_chemical_formula_structural       CoH22C22S2N8O6
_chemical_formula_sum              "Co1 H22 C22 S2 N8 O6"
_cell_length_a       8.14214
_cell_length_b       9.6969
_cell_length_c       9.70951
_cell_angle_alpha    60.9957
_cell_angle_beta     86.3297
_cell_angle_gamma    75.2688

_space_group_name_H-M_alt    "P 1"
_space_group_IT_number       1

loop_
  _space_group_symop_operation_xyz
  'x, y, z'

loop_
  _atom_site_type_symbol
  _atom_site_label
  _atom_site_symmetry_multiplicity
  _atom_site_fract_x
  _atom_site_fract_y
  _atom_site_fract_z
  _atom_site_occupancy
  Co  Co1       1.0  0.50000  0.50000  0.50000  1.0000
  H   H1        1.0  0.14224  0.65193  0.31034  1.0000
  H   H2        1.0  0.85776  0.34807  0.68965  1.0000
  H   H3        1.0  0.97459  0.45280  0.27264  1.0000
  H   H4        1.0  0.02541  0.54720  0.72735  1.0000
  H   H5        1.0  0.38983  0.21246  0.79567  1.0000
  H   H6        1.0  0.61017  0.78754  0.20434  1.0000
  H   H7        1.0  0.90070  0.07033  0.33226  1.0000
  H   H8        1.0  0.09930  0.92967  0.66774  1.0000
  H   H9        1.0  0.64803  0.10843  0.93496  1.0000
  H   H10       1.0  0.35197  0.89157  0.06504  1.0000
  H   H11       1.0  0.35501  0.69792  0.68315  1.0000
  H   H12       1.0  0.64499  0.30208  0.31685  1.0000
  H   H13       1.0  0.63347  0.13830  0.17286  1.0000
  H   H14       1.0  0.36654  0.86170  0.82714  1.0000
  H   H15       1.0  0.17886  0.16444  0.41738  1.0000
  H   H16       1.0  0.82113  0.83556  0.58262  1.0000
  H   H17       1.0  0.30163  0.23581  0.04069  1.0000
  H   H18       1.0  0.69836  0.76419  0.95931  1.0000
  H   H19       1.0  0.25831  0.53096  0.99016  1.0000
  H   H20       1.0  0.74169  0.46904  0.00985  1.0000
  H   H21       1.0  0.43955  0.16516  0.54471  1.0000
  H   H22       1.0  0.56044  0.83484  0.45529  1.0000
  C   C1        1.0  0.90693  0.05734  0.22666  1.0000
  C   C2        1.0  0.09307  0.94266  0.77334  1.0000
  C   C3        1.0  0.76449  0.07808  0.00363  1.0000
  C   C4        1.0  0.23551  0.92193  0.99637  1.0000
  C   C5        1.0  0.36741  0.32287  0.80443  1.0000
  C   C6        1.0  0.63259  0.67712  0.19558  1.0000
  C   C7        1.0  0.75683  0.09621  0.13624  1.0000
  C   C8        1.0  0.24317  0.90379  0.86376  1.0000
  C   C9        1.0  0.34948  0.57215  0.75295  1.0000
  C   C10       1.0  0.65052  0.42784  0.24706  1.0000
  C   C11       1.0  0.29911  0.49156  0.90354  1.0000
  C   C12       1.0  0.70089  0.50844  0.09646  1.0000
  C   C13       1.0  0.33824  0.27241  0.47544  1.0000
  C   C14       1.0  0.66176  0.72759  0.52456  1.0000
  C   C15       1.0  0.09618  0.42537  0.33197  1.0000
  C   C16       1.0  0.90383  0.57463  0.66802  1.0000
  C   C17       1.0  0.17927  0.52220  0.35175  1.0000
  C   C18       1.0  0.82073  0.47779  0.64825  1.0000
  C   C19       1.0  0.07721  0.97946  0.04573  1.0000
  C   C20       1.0  0.92279  0.02054  0.95427  1.0000
  C   C21       1.0  0.06277  0.99928  0.18311  1.0000
  C   C22       1.0  0.93723  0.00073  0.81689  1.0000
  S   S1        1.0  0.24717  0.94349  0.30748  1.0000
  S   S2        1.0  0.75284  0.05651  0.69253  1.0000
  N   N1        1.0  0.39324  0.46494  0.69308  1.0000
  N   N2        1.0  0.60676  0.53506  0.30692  1.0000
  N   N3        1.0  0.31057  0.33513  0.93317  1.0000
  N   N4        1.0  0.68943  0.66487  0.06683  1.0000
  N   N5        1.0  0.19828  0.26905  0.41083  1.0000
  N   N6        1.0  0.80172  0.73095  0.58917  1.0000
  N   N7        1.0  0.33074  0.42521  0.44168  1.0000
  N   N8        1.0  0.66926  0.57480  0.55831  1.0000
  O   O1        1.0  0.18716  0.97590  0.43766  1.0000
  O   O2        1.0  0.81284  0.02410  0.56235  1.0000
  O   O3        1.0  0.32434  0.77019  0.36131  1.0000
  O   O4        1.0  0.67566  0.22981  0.63868  1.0000
  O   O5        1.0  0.36025  0.04677  0.20942  1.0000
  O   O6        1.0  0.63975  0.95323  0.79058  1.0000
