data_image0
_chemical_formula_structural       MnH22C22S2N8O6
_chemical_formula_sum              "Mn1 H22 C22 S2 N8 O6"
_cell_length_a       8.21249
_cell_length_b       9.81675
_cell_length_c       9.81108
_cell_angle_alpha    60.4289
_cell_angle_beta     74.3818
_cell_angle_gamma    86.0569

_space_group_name_H-M_alt    "P 1"
_space_group_IT_number       1

loop_
  _space_group_symop_operation_xyz
  'x, y, z'

loop_
  _atom_site_type_symbol
  _atom_site_label
  _atom_site_symmetry_multiplicity
  _atom_site_fract_x
  _atom_site_fract_y
  _atom_site_fract_z
  _atom_site_occupancy
  Mn  Mn1       1.0  0.50000  0.50000  0.50000  1.0000
  H   H1        1.0  0.29757  0.06528  0.21824  1.0000
  H   H2        1.0  0.70243  0.93472  0.78176  1.0000
  H   H3        1.0  0.18071  0.41784  0.13818  1.0000
  H   H4        1.0  0.81929  0.58216  0.86183  1.0000
  H   H5        1.0  0.09523  0.66410  0.94256  1.0000
  H   H6        1.0  0.90476  0.33590  0.05745  1.0000
  H   H7        1.0  0.36141  0.83034  0.85389  1.0000
  H   H8        1.0  0.63859  0.16966  0.14611  1.0000
  H   H9        1.0  0.34964  0.07271  0.86978  1.0000
  H   H10       1.0  0.65036  0.92729  0.13022  1.0000
  H   H11       1.0  0.36586  0.81211  0.21269  1.0000
  H   H12       1.0  0.63414  0.18789  0.78731  1.0000
  H   H13       1.0  0.26661  0.03059  0.50345  1.0000
  H   H14       1.0  0.73339  0.96941  0.49654  1.0000
  H   H15       1.0  0.35190  0.72298  0.68218  1.0000
  H   H16       1.0  0.64810  0.27703  0.31782  1.0000
  H   H17       1.0  0.44174  0.53314  0.14749  1.0000
  H   H18       1.0  0.55826  0.46686  0.85252  1.0000
  H   H19       1.0  0.96189  0.28337  0.41935  1.0000
  H   H20       1.0  0.03811  0.71663  0.58065  1.0000
  H   H21       1.0  0.11454  0.31959  0.62330  1.0000
  H   H22       1.0  0.88546  0.68041  0.37670  1.0000
  C   C1        1.0  0.92314  0.95195  0.02709  1.0000
  C   C2        1.0  0.07687  0.04805  0.97291  1.0000
  C   C3        1.0  0.93622  0.81240  0.01425  1.0000
  C   C4        1.0  0.06378  0.18760  0.98575  1.0000
  C   C5        1.0  0.09007  0.77061  0.95138  1.0000
  C   C6        1.0  0.90993  0.22939  0.04863  1.0000
  C   C7        1.0  0.23954  0.86534  0.90027  1.0000
  C   C8        1.0  0.76046  0.13466  0.09973  1.0000
  C   C9        1.0  0.23332  0.00070  0.91042  1.0000
  C   C10       1.0  0.76668  0.99930  0.08959  1.0000
  C   C11       1.0  0.35006  0.82660  0.31818  1.0000
  C   C12       1.0  0.64994  0.17340  0.68182  1.0000
  C   C13       1.0  0.29961  0.93897  0.47175  1.0000
  C   C14       1.0  0.70039  0.06104  0.52825  1.0000
  C   C15       1.0  0.34284  0.78758  0.55793  1.0000
  C   C16       1.0  0.65716  0.21242  0.44207  1.0000
  C   C17       1.0  0.33475  0.46824  0.25195  1.0000
  C   C18       1.0  0.66525  0.53176  0.74805  1.0000
  C   C19       1.0  0.08420  0.33738  0.39630  1.0000
  C   C20       1.0  0.91580  0.66262  0.60370  1.0000
  C   C21       1.0  0.16088  0.35663  0.49492  1.0000
  C   C22       1.0  0.83912  0.64337  0.50508  1.0000
  S   S1        1.0  0.75273  0.68461  0.08179  1.0000
  S   S2        1.0  0.24727  0.31539  0.91821  1.0000
  N   N1        1.0  0.37434  0.71880  0.46070  1.0000
  N   N2        1.0  0.62566  0.28120  0.53931  1.0000
  N   N3        1.0  0.30450  0.96088  0.32058  1.0000
  N   N4        1.0  0.69550  0.03912  0.67942  1.0000
  N   N5        1.0  0.31764  0.43863  0.40352  1.0000
  N   N6        1.0  0.68236  0.56137  0.59648  1.0000
  N   N7        1.0  0.19638  0.40872  0.24342  1.0000
  N   N8        1.0  0.80363  0.59127  0.75658  1.0000
  O   O1        1.0  0.68022  0.63692  0.25479  1.0000
  O   O2        1.0  0.31978  0.36308  0.74522  1.0000
  O   O3        1.0  0.63708  0.77677  0.98255  1.0000
  O   O4        1.0  0.36292  0.22323  0.01745  1.0000
  O   O5        1.0  0.81052  0.55149  0.05696  1.0000
  O   O6        1.0  0.18948  0.44851  0.94304  1.0000
