data_image0
_chemical_formula_structural       Cu4H44C68N8O16
_chemical_formula_sum              "Cu4 H44 C68 N8 O16"
_cell_length_a       10.9436
_cell_length_b       10.9426
_cell_length_c       13.672
_cell_angle_alpha    108.295
_cell_angle_beta     90
_cell_angle_gamma    90

_space_group_name_H-M_alt    "P 1"
_space_group_IT_number       1

loop_
  _space_group_symop_operation_xyz
  'x, y, z'

loop_
  _atom_site_type_symbol
  _atom_site_label
  _atom_site_symmetry_multiplicity
  _atom_site_fract_x
  _atom_site_fract_y
  _atom_site_fract_z
  _atom_site_occupancy
  Cu  Cu1       1.0  0.19299  0.21036  0.14971  1.0000
  Cu  Cu2       1.0  0.19299  0.28964  0.35029  1.0000
  Cu  Cu3       1.0  0.80702  0.78996  0.85107  1.0000
  Cu  Cu4       1.0  0.80702  0.71004  0.64893  1.0000
  H   H1        1.0  0.80801  0.17467  0.08476  1.0000
  H   H2        1.0  0.80801  0.32534  0.41524  1.0000
  H   H3        1.0  0.19204  0.82527  0.91523  1.0000
  H   H4        1.0  0.19204  0.67472  0.58477  1.0000
  H   H5        1.0  0.57906  0.17644  0.08467  1.0000
  H   H6        1.0  0.57906  0.32357  0.41533  1.0000
  H   H7        1.0  0.42088  0.82358  0.91531  1.0000
  H   H8        1.0  0.42088  0.67641  0.58468  1.0000
  H   H9        1.0  0.00177  0.10838  0.95552  1.0000
  H   H10       1.0  0.00177  0.39162  0.54448  1.0000
  H   H11       1.0  0.99822  0.89162  0.04451  1.0000
  H   H12       1.0  0.99822  0.60838  0.45548  1.0000
  H   H13       1.0  0.07149  0.04974  0.75064  1.0000
  H   H14       1.0  0.07149  0.45026  0.74936  1.0000
  H   H15       1.0  0.92854  0.95027  0.24944  1.0000
  H   H16       1.0  0.92854  0.54973  0.25056  1.0000
  H   H17       1.0  0.38278  0.15354  0.94357  1.0000
  H   H18       1.0  0.38278  0.34646  0.55643  1.0000
  H   H19       1.0  0.61722  0.84648  0.05647  1.0000
  H   H20       1.0  0.61722  0.65352  0.44353  1.0000
  H   H21       1.0  0.17858  0.12111  0.64012  1.0000
  H   H22       1.0  0.17858  0.37889  0.85988  1.0000
  H   H23       1.0  0.82143  0.87888  0.35988  1.0000
  H   H24       1.0  0.82143  0.62112  0.14012  1.0000
  H   H25       1.0  0.30024  0.07503  0.48372  1.0000
  H   H26       1.0  0.30024  0.42497  0.01628  1.0000
  H   H27       1.0  0.69976  0.92496  0.51629  1.0000
  H   H28       1.0  0.69975  0.57504  0.98371  1.0000
  H   H29       1.0  0.60796  0.97886  0.64334  1.0000
  H   H30       1.0  0.60796  0.52114  0.85666  1.0000
  H   H31       1.0  0.39202  0.02113  0.35666  1.0000
  H   H32       1.0  0.39203  0.47887  0.14335  1.0000
  H   H33       1.0  0.48724  0.02897  0.80057  1.0000
  H   H34       1.0  0.48723  0.47103  0.69944  1.0000
  H   H35       1.0  0.51277  0.97100  0.19944  1.0000
  H   H36       1.0  0.51277  0.52900  0.30056  1.0000
  H   H37       1.0  0.17709  0.92960  0.41485  1.0000
  H   H38       1.0  0.17709  0.57040  0.08515  1.0000
  H   H39       1.0  0.82288  0.07053  0.58515  1.0000
  H   H40       1.0  0.82288  0.42947  0.91485  1.0000
  H   H41       1.0  0.18349  0.70209  0.41617  1.0000
  H   H42       1.0  0.18349  0.79791  0.08384  1.0000
  H   H43       1.0  0.81655  0.29779  0.58385  1.0000
  H   H44       1.0  0.81655  0.20221  0.91614  1.0000
  C   C1        1.0  0.95818  0.25000  0.25000  1.0000
  C   C2        1.0  0.04156  0.75000  0.75000  1.0000
  C   C3        1.0  0.82133  0.25000  0.25000  1.0000
  C   C4        1.0  0.17856  0.74999  0.75000  1.0000
  C   C5        1.0  0.75702  0.20833  0.15663  1.0000
  C   C6        1.0  0.75702  0.29168  0.34338  1.0000
  C   C7        1.0  0.24296  0.79163  0.84333  1.0000
  C   C8        1.0  0.24296  0.70836  0.65666  1.0000
  C   C9        1.0  0.62997  0.20835  0.15667  1.0000
  C   C10       1.0  0.62997  0.29165  0.34334  1.0000
  C   C11       1.0  0.37003  0.79166  0.84330  1.0000
  C   C12       1.0  0.37003  0.70834  0.65670  1.0000
  C   C13       1.0  0.56560  0.25000  0.25000  1.0000
  C   C14       1.0  0.43449  0.75000  0.75000  1.0000
  C   C15       1.0  0.42874  0.25000  0.25000  1.0000
  C   C16       1.0  0.57149  0.75000  0.75000  1.0000
  C   C17       1.0  0.09136  0.11105  0.92273  1.0000
  C   C18       1.0  0.09136  0.38895  0.57727  1.0000
  C   C19       1.0  0.90866  0.88901  0.07738  1.0000
  C   C20       1.0  0.90866  0.61099  0.42262  1.0000
  C   C21       1.0  0.12400  0.08218  0.82110  1.0000
  C   C22       1.0  0.12399  0.41782  0.67891  1.0000
  C   C23       1.0  0.87601  0.91787  0.17900  1.0000
  C   C24       1.0  0.87601  0.58213  0.32100  1.0000
  C   C25       1.0  0.28845  0.13252  0.92042  1.0000
  C   C26       1.0  0.28845  0.36749  0.57959  1.0000
  C   C27       1.0  0.71153  0.86753  0.07970  1.0000
  C   C28       1.0  0.71153  0.63247  0.42030  1.0000
  C   C29       1.0  0.32323  0.07477  0.73073  1.0000
  C   C30       1.0  0.32323  0.42523  0.76928  1.0000
  C   C31       1.0  0.67676  0.92525  0.26933  1.0000
  C   C32       1.0  0.67676  0.57475  0.23067  1.0000
  C   C33       1.0  0.27232  0.08752  0.64056  1.0000
  C   C34       1.0  0.27232  0.41248  0.85944  1.0000
  C   C35       1.0  0.72768  0.91249  0.35947  1.0000
  C   C36       1.0  0.72768  0.58751  0.14053  1.0000
  C   C37       1.0  0.34219  0.06044  0.55138  1.0000
  C   C38       1.0  0.34219  0.43956  0.94862  1.0000
  C   C39       1.0  0.65780  0.93957  0.44864  1.0000
  C   C40       1.0  0.65780  0.56043  0.05136  1.0000
  C   C41       1.0  0.46394  0.01770  0.54825  1.0000
  C   C42       1.0  0.46394  0.48230  0.95176  1.0000
  C   C43       1.0  0.53605  0.98231  0.45177  1.0000
  C   C44       1.0  0.53605  0.51769  0.04824  1.0000
  C   C45       1.0  0.51426  0.01065  0.64108  1.0000
  C   C46       1.0  0.51426  0.48935  0.85892  1.0000
  C   C47       1.0  0.48573  0.98935  0.35893  1.0000
  C   C48       1.0  0.48573  0.51065  0.14107  1.0000
  C   C49       1.0  0.44586  0.03922  0.73111  1.0000
  C   C50       1.0  0.44586  0.46078  0.76889  1.0000
  C   C51       1.0  0.55413  0.96079  0.26891  1.0000
  C   C52       1.0  0.55413  0.53921  0.23109  1.0000
  C   C53       1.0  0.17967  0.85049  0.34301  1.0000
  C   C54       1.0  0.17967  0.64951  0.15700  1.0000
  C   C55       1.0  0.82024  0.14951  0.65707  1.0000
  C   C56       1.0  0.82024  0.35049  0.84292  1.0000
  C   C57       1.0  0.18188  0.72391  0.34381  1.0000
  C   C58       1.0  0.18188  0.77609  0.15619  1.0000
  C   C59       1.0  0.81807  0.27617  0.65629  1.0000
  C   C60       1.0  0.81807  0.22383  0.84371  1.0000
  C   C61       1.0  0.18249  0.87737  0.24928  1.0000
  C   C62       1.0  0.18249  0.62264  0.25072  1.0000
  C   C63       1.0  0.81740  0.12235  0.75071  1.0000
  C   C64       1.0  0.81740  0.37765  0.74928  1.0000
  C   C65       1.0  0.18766  0.01377  0.24869  1.0000
  C   C66       1.0  0.18766  0.48623  0.25131  1.0000
  C   C67       1.0  0.81236  0.98571  0.75130  1.0000
  C   C68       1.0  0.81236  0.51429  0.74870  1.0000
  N   N1        1.0  0.19442  0.14304  0.98372  1.0000
  N   N2        1.0  0.19442  0.35696  0.51628  1.0000
  N   N3        1.0  0.80558  0.85705  0.01644  1.0000
  N   N4        1.0  0.80558  0.64295  0.48356  1.0000
  N   N5        1.0  0.25000  0.09595  0.82003  1.0000
  N   N6        1.0  0.25000  0.40405  0.67998  1.0000
  N   N7        1.0  0.75000  0.90409  0.18006  1.0000
  N   N8        1.0  0.75000  0.59592  0.31994  1.0000
  O   O1        1.0  0.01113  0.22489  0.16270  1.0000
  O   O2        1.0  0.01113  0.27511  0.33730  1.0000
  O   O3        1.0  0.98903  0.77508  0.83739  1.0000
  O   O4        1.0  0.98903  0.72491  0.66260  1.0000
  O   O5        1.0  0.37555  0.20735  0.16268  1.0000
  O   O6        1.0  0.37555  0.29265  0.33732  1.0000
  O   O7        1.0  0.62431  0.79275  0.83740  1.0000
  O   O8        1.0  0.62431  0.70724  0.66260  1.0000
  O   O9        1.0  0.18262  0.03219  0.16137  1.0000
  O   O10       1.0  0.18262  0.46781  0.33864  1.0000
  O   O11       1.0  0.81748  0.96762  0.83871  1.0000
  O   O12       1.0  0.81748  0.53237  0.66129  1.0000
  O   O13       1.0  0.19803  0.10088  0.33608  1.0000
  O   O14       1.0  0.19804  0.39912  0.16392  1.0000
  O   O15       1.0  0.80212  0.89881  0.66383  1.0000
  O   O16       1.0  0.80212  0.60118  0.83617  1.0000
