data_image0
_chemical_formula_structural       Ni2H8C12S4N8
_chemical_formula_sum              "Ni2 H8 C12 S4 N8"
_cell_length_a       5.54654
_cell_length_b       7.09066
_cell_length_c       11.9796
_cell_angle_alpha    90.0368
_cell_angle_beta     90.0072
_cell_angle_gamma    105.748

_space_group_name_H-M_alt    "P 1"
_space_group_IT_number       1

loop_
  _space_group_symop_operation_xyz
  'x, y, z'

loop_
  _atom_site_type_symbol
  _atom_site_label
  _atom_site_symmetry_multiplicity
  _atom_site_fract_x
  _atom_site_fract_y
  _atom_site_fract_z
  _atom_site_occupancy
  Ni  Ni1       1.0  1.00000  0.00000  0.50000  1.0000
  Ni  Ni2       1.0  1.00000  0.00000  1.00000  1.0000
  H   H1        1.0  0.02810  0.91821  0.25001  1.0000
  H   H2        1.0  0.97191  0.08179  0.74999  1.0000
  H   H3        1.0  0.05325  0.60860  0.25039  1.0000
  H   H4        1.0  0.94674  0.39140  0.74961  1.0000
  H   H5        1.0  0.03918  0.41919  0.43022  1.0000
  H   H6        1.0  0.95590  0.57957  0.92968  1.0000
  H   H7        1.0  0.96082  0.58081  0.56978  1.0000
  H   H8        1.0  0.04410  0.42043  0.07032  1.0000
  C   C1        1.0  0.03185  0.07208  0.25007  1.0000
  C   C2        1.0  0.96815  0.92793  0.74993  1.0000
  C   C3        1.0  0.04509  0.45381  0.25027  1.0000
  C   C4        1.0  0.95490  0.54619  0.74973  1.0000
  C   C5        1.0  0.03809  0.35047  0.34906  1.0000
  C   C6        1.0  0.95912  0.64887  0.84863  1.0000
  C   C7        1.0  0.96191  0.64953  0.65094  1.0000
  C   C8        1.0  0.04088  0.35113  0.15137  1.0000
  C   C9        1.0  0.41958  0.80362  0.43165  1.0000
  C   C10       1.0  0.58051  0.19671  0.93185  1.0000
  C   C11       1.0  0.58041  0.19638  0.56835  1.0000
  C   C12       1.0  0.41951  0.80329  0.06815  1.0000
  S   S1        1.0  0.66816  0.72746  0.41462  1.0000
  S   S2        1.0  0.33133  0.27192  0.91441  1.0000
  S   S3        1.0  0.33183  0.27254  0.58538  1.0000
  S   S4        1.0  0.66869  0.72808  0.08559  1.0000
  N   N1        1.0  0.03143  0.15950  0.34913  1.0000
  N   N2        1.0  0.96685  0.84005  0.84886  1.0000
  N   N3        1.0  0.96858  0.84050  0.65087  1.0000
  N   N4        1.0  0.03315  0.15995  0.15114  1.0000
  N   N5        1.0  0.23851  0.85949  0.44358  1.0000
  N   N6        1.0  0.76146  0.14090  0.94427  1.0000
  N   N7        1.0  0.76149  0.14051  0.55642  1.0000
  N   N8        1.0  0.23855  0.85910  0.05572  1.0000
