data_image0
_chemical_formula_structural       Zn2H60C64N8O12
_chemical_formula_sum              "Zn2 H60 C64 N8 O12"
_cell_length_a       7.83661
_cell_length_b       11.4637
_cell_length_c       17.078
_cell_angle_alpha    96.3456
_cell_angle_beta     90
_cell_angle_gamma    90

_space_group_name_H-M_alt    "P 1"
_space_group_IT_number       1

loop_
  _space_group_symop_operation_xyz
  'x, y, z'

loop_
  _atom_site_type_symbol
  _atom_site_label
  _atom_site_symmetry_multiplicity
  _atom_site_fract_x
  _atom_site_fract_y
  _atom_site_fract_z
  _atom_site_occupancy
  Zn  Zn1       1.0  0.03048  1.00000  0.75000  1.0000
  Zn  Zn2       1.0  0.96952  0.00000  0.25000  1.0000
  H   H1        1.0  0.40281  0.12411  0.77483  1.0000
  H   H2        1.0  0.40282  0.87589  0.72517  1.0000
  H   H3        1.0  0.59718  0.87589  0.22517  1.0000
  H   H4        1.0  0.59718  0.12411  0.27483  1.0000
  H   H5        1.0  0.05017  0.11686  0.58777  1.0000
  H   H6        1.0  0.05017  0.88314  0.91223  1.0000
  H   H7        1.0  0.94983  0.88313  0.41223  1.0000
  H   H8        1.0  0.94983  0.11686  0.08777  1.0000
  H   H9        1.0  0.33872  0.24746  0.55214  1.0000
  H   H10       1.0  0.33872  0.75254  0.94786  1.0000
  H   H11       1.0  0.66128  0.75254  0.44786  1.0000
  H   H12       1.0  0.66128  0.24746  0.05214  1.0000
  H   H13       1.0  0.63916  0.25501  0.61555  1.0000
  H   H14       1.0  0.63916  0.74498  0.88445  1.0000
  H   H15       1.0  0.36084  0.74499  0.38445  1.0000
  H   H16       1.0  0.36084  0.25501  0.11555  1.0000
  H   H17       1.0  0.66646  0.20551  0.70795  1.0000
  H   H18       1.0  0.66646  0.79449  0.79205  1.0000
  H   H19       1.0  0.33354  0.79450  0.29205  1.0000
  H   H20       1.0  0.33354  0.20551  0.20795  1.0000
  H   H21       1.0  0.29972  0.39821  0.71785  1.0000
  H   H22       1.0  0.29973  0.60179  0.78215  1.0000
  H   H23       1.0  0.70028  0.60179  0.28215  1.0000
  H   H24       1.0  0.70028  0.39821  0.21785  1.0000
  H   H25       1.0  0.84926  0.39721  0.71824  1.0000
  H   H26       1.0  0.84926  0.60279  0.78176  1.0000
  H   H27       1.0  0.15074  0.60279  0.28176  1.0000
  H   H28       1.0  0.15074  0.39722  0.21824  1.0000
  H   H29       1.0  0.77912  0.69695  0.63062  1.0000
  H   H30       1.0  0.77912  0.30305  0.86938  1.0000
  H   H31       1.0  0.22088  0.30305  0.36938  1.0000
  H   H32       1.0  0.22087  0.69696  0.13062  1.0000
  H   H33       1.0  0.55508  0.55814  0.57186  1.0000
  H   H34       1.0  0.55508  0.44186  0.92814  1.0000
  H   H35       1.0  0.44493  0.44186  0.42814  1.0000
  H   H36       1.0  0.44492  0.55815  0.07186  1.0000
  H   H37       1.0  0.47892  0.98900  0.57375  1.0000
  H   H38       1.0  0.47892  0.01100  0.92625  1.0000
  H   H39       1.0  0.52108  0.01100  0.42625  1.0000
  H   H40       1.0  0.52108  0.98900  0.07375  1.0000
  H   H41       1.0  0.24991  0.85492  0.52017  1.0000
  H   H42       1.0  0.24991  0.14508  0.97983  1.0000
  H   H43       1.0  0.75009  0.14508  0.47983  1.0000
  H   H44       1.0  0.75009  0.85492  0.02017  1.0000
  H   H45       1.0  0.11383  0.70733  0.44388  1.0000
  H   H46       1.0  0.11383  0.29267  0.05611  1.0000
  H   H47       1.0  0.88617  0.29267  0.55612  1.0000
  H   H48       1.0  0.88618  0.70733  0.94389  1.0000
  H   H49       1.0  0.04972  0.70329  0.54398  1.0000
  H   H50       1.0  0.04972  0.29671  0.95602  1.0000
  H   H51       1.0  0.95028  0.29671  0.45602  1.0000
  H   H52       1.0  0.95028  0.70329  0.04398  1.0000
  H   H53       1.0  0.87634  0.56700  0.45105  1.0000
  H   H54       1.0  0.87634  0.43300  0.04895  1.0000
  H   H55       1.0  0.12366  0.43300  0.54895  1.0000
  H   H56       1.0  0.12366  0.56700  0.95105  1.0000
  H   H57       1.0  0.06354  0.49415  0.41437  1.0000
  H   H58       1.0  0.06354  0.50585  0.08563  1.0000
  H   H59       1.0  0.93646  0.50585  0.58563  1.0000
  H   H60       1.0  0.93646  0.49415  0.91436  1.0000
  C   C1        1.0  0.34379  0.13850  0.71921  1.0000
  C   C2        1.0  0.34379  0.86150  0.78079  1.0000
  C   C3        1.0  0.65621  0.86150  0.28079  1.0000
  C   C4        1.0  0.65620  0.13850  0.21921  1.0000
  C   C5        1.0  0.16639  0.13895  0.62057  1.0000
  C   C6        1.0  0.16639  0.86105  0.87943  1.0000
  C   C7        1.0  0.83362  0.86105  0.37942  1.0000
  C   C8        1.0  0.83361  0.13895  0.12058  1.0000
  C   C9        1.0  0.30660  0.20312  0.60297  1.0000
  C   C10       1.0  0.30660  0.79689  0.89703  1.0000
  C   C11       1.0  0.69339  0.79689  0.39703  1.0000
  C   C12       1.0  0.69339  0.20311  0.10297  1.0000
  C   C13       1.0  0.58285  0.25899  0.67459  1.0000
  C   C14       1.0  0.58284  0.74100  0.82541  1.0000
  C   C15       1.0  0.41716  0.74101  0.32541  1.0000
  C   C16       1.0  0.41715  0.25900  0.17459  1.0000
  C   C17       1.0  0.57435  0.38380  0.71309  1.0000
  C   C18       1.0  0.57435  0.61619  0.78691  1.0000
  C   C19       1.0  0.42565  0.61619  0.28692  1.0000
  C   C20       1.0  0.42565  0.38381  0.21309  1.0000
  C   C21       1.0  0.42111  0.44241  0.73164  1.0000
  C   C22       1.0  0.42111  0.55759  0.76836  1.0000
  C   C23       1.0  0.57889  0.55759  0.26836  1.0000
  C   C24       1.0  0.57889  0.44241  0.23164  1.0000
  C   C25       1.0  0.72848  0.44266  0.73182  1.0000
  C   C26       1.0  0.72848  0.55734  0.76818  1.0000
  C   C27       1.0  0.27152  0.55734  0.26818  1.0000
  C   C28       1.0  0.27153  0.44266  0.23182  1.0000
  C   C29       1.0  0.78067  0.93423  0.63831  1.0000
  C   C30       1.0  0.78068  0.06577  0.86169  1.0000
  C   C31       1.0  0.21932  0.06577  0.36169  1.0000
  C   C32       1.0  0.21933  0.93423  0.13831  1.0000
  C   C33       1.0  0.64393  0.85178  0.60529  1.0000
  C   C34       1.0  0.64392  0.14822  0.89471  1.0000
  C   C35       1.0  0.35607  0.14822  0.39471  1.0000
  C   C36       1.0  0.35607  0.85178  0.10529  1.0000
  C   C37       1.0  0.66383  0.72989  0.60506  1.0000
  C   C38       1.0  0.66383  0.27011  0.89493  1.0000
  C   C39       1.0  0.33617  0.27011  0.39494  1.0000
  C   C40       1.0  0.33617  0.72990  0.10506  1.0000
  C   C41       1.0  0.53919  0.65282  0.57340  1.0000
  C   C42       1.0  0.53919  0.34718  0.92660  1.0000
  C   C43       1.0  0.46081  0.34718  0.42660  1.0000
  C   C44       1.0  0.46081  0.65282  0.07340  1.0000
  C   C45       1.0  0.49384  0.89464  0.57445  1.0000
  C   C46       1.0  0.49383  0.10536  0.92555  1.0000
  C   C47       1.0  0.50617  0.10536  0.42555  1.0000
  C   C48       1.0  0.50616  0.89464  0.07445  1.0000
  C   C49       1.0  0.36463  0.81878  0.54423  1.0000
  C   C50       1.0  0.36463  0.18121  0.95577  1.0000
  C   C51       1.0  0.63537  0.18121  0.45577  1.0000
  C   C52       1.0  0.63537  0.81879  0.04423  1.0000
  C   C53       1.0  0.38878  0.69717  0.54301  1.0000
  C   C54       1.0  0.38878  0.30283  0.95699  1.0000
  C   C55       1.0  0.61122  0.30283  0.45699  1.0000
  C   C56       1.0  0.61122  0.69717  0.04301  1.0000
  C   C57       1.0  0.10674  0.65127  0.49222  1.0000
  C   C58       1.0  0.10674  0.34873  0.00778  1.0000
  C   C59       1.0  0.89326  0.34873  0.50778  1.0000
  C   C60       1.0  0.89326  0.65127  0.99222  1.0000
  C   C61       1.0  0.00525  0.54090  0.46759  1.0000
  C   C62       1.0  0.00525  0.45910  0.03241  1.0000
  C   C63       1.0  0.99475  0.45910  0.53241  1.0000
  C   C64       1.0  0.99475  0.54090  0.96759  1.0000
  N   N1        1.0  0.19145  0.09931  0.69325  1.0000
  N   N2        1.0  0.19145  0.90069  0.80675  1.0000
  N   N3        1.0  0.80855  0.90068  0.30675  1.0000
  N   N4        1.0  0.80855  0.09932  0.19325  1.0000
  N   N5        1.0  0.41762  0.20122  0.66576  1.0000
  N   N6        1.0  0.41762  0.79877  0.83424  1.0000
  N   N7        1.0  0.58238  0.79878  0.33424  1.0000
  N   N8        1.0  0.58238  0.20123  0.16576  1.0000
  O   O1        1.0  0.89234  0.88746  0.68202  1.0000
  O   O2        1.0  0.89235  0.11253  0.81797  1.0000
  O   O3        1.0  0.10765  0.11254  0.31798  1.0000
  O   O4        1.0  0.10765  0.88747  0.18202  1.0000
  O   O5        1.0  0.78113  0.03909  0.62411  1.0000
  O   O6        1.0  0.78113  0.96091  0.87589  1.0000
  O   O7        1.0  0.21887  0.96091  0.37589  1.0000
  O   O8        1.0  0.21887  0.03909  0.12411  1.0000
  O   O9        1.0  0.27520  0.61435  0.51231  1.0000
  O   O10       1.0  0.27520  0.38565  0.98769  1.0000
  O   O11       1.0  0.72480  0.38565  0.48769  1.0000
  O   O12       1.0  0.72480  0.61435  0.01231  1.0000
