data_image0
_chemical_formula_structural       Cd2H36C56N8O12
_chemical_formula_sum              "Cd2 H36 C56 N8 O12"
_cell_length_a       9.47082
_cell_length_b       11.0397
_cell_length_c       12.629
_cell_angle_alpha    68.006
_cell_angle_beta     79.9471
_cell_angle_gamma    77.8343

_space_group_name_H-M_alt    "P 1"
_space_group_IT_number       1

loop_
  _space_group_symop_operation_xyz
  'x, y, z'

loop_
  _atom_site_type_symbol
  _atom_site_label
  _atom_site_symmetry_multiplicity
  _atom_site_fract_x
  _atom_site_fract_y
  _atom_site_fract_z
  _atom_site_occupancy
  Cd  Cd1       1.0  0.54287  0.91378  0.66011  1.0000
  Cd  Cd2       1.0  0.45713  0.08622  0.33990  1.0000
  H   H1        1.0  0.58034  0.44221  0.62450  1.0000
  H   H2        1.0  0.41965  0.55779  0.37550  1.0000
  H   H3        1.0  0.43608  0.31547  0.57323  1.0000
  H   H4        1.0  0.56392  0.68453  0.42677  1.0000
  H   H5        1.0  0.19575  0.61879  0.78336  1.0000
  H   H6        1.0  0.80425  0.38121  0.21664  1.0000
  H   H7        1.0  0.04909  0.48007  0.74266  1.0000
  H   H8        1.0  0.95091  0.51992  0.25734  1.0000
  H   H9        1.0  0.25891  0.32506  0.47156  1.0000
  H   H10       1.0  0.74109  0.67494  0.52844  1.0000
  H   H11       1.0  0.10936  0.23898  0.52096  1.0000
  H   H12       1.0  0.89064  0.76102  0.47904  1.0000
  H   H13       1.0  0.69671  0.16146  0.47933  1.0000
  H   H14       1.0  0.30328  0.83854  0.52067  1.0000
  H   H15       1.0  0.83795  0.32723  0.48227  1.0000
  H   H16       1.0  0.16204  0.67277  0.51773  1.0000
  H   H17       1.0  0.89481  0.31866  0.67352  1.0000
  H   H18       1.0  0.10519  0.68134  0.32647  1.0000
  H   H19       1.0  0.04119  0.35348  0.96030  1.0000
  H   H20       1.0  0.95882  0.64653  0.03970  1.0000
  H   H21       1.0  0.17788  0.41041  0.08200  1.0000
  H   H22       1.0  0.82212  0.58959  0.91800  1.0000
  H   H23       1.0  0.01759  0.10437  0.38029  1.0000
  H   H24       1.0  0.98241  0.89563  0.61971  1.0000
  H   H25       1.0  0.87752  0.05083  0.26068  1.0000
  H   H26       1.0  0.12248  0.94917  0.73932  1.0000
  H   H27       1.0  0.65475  0.82656  0.15567  1.0000
  H   H28       1.0  0.34525  0.17344  0.84433  1.0000
  H   H29       1.0  0.51107  0.67785  0.12577  1.0000
  H   H30       1.0  0.48894  0.32215  0.87423  1.0000
  H   H31       1.0  0.46688  0.71408  0.92487  1.0000
  H   H32       1.0  0.53312  0.28592  0.07513  1.0000
  H   H33       1.0  0.78778  0.99157  0.15433  1.0000
  H   H34       1.0  0.21222  0.00843  0.84567  1.0000
  H   H35       1.0  0.26498  0.33808  0.27198  1.0000
  H   H36       1.0  0.73502  0.66191  0.72803  1.0000
  C   C1        1.0  0.48752  0.62663  0.72104  1.0000
  C   C2        1.0  0.51248  0.37337  0.27896  1.0000
  C   C3        1.0  0.39772  0.53967  0.70566  1.0000
  C   C4        1.0  0.60228  0.46033  0.29434  1.0000
  C   C5        1.0  0.46369  0.45156  0.64924  1.0000
  C   C6        1.0  0.53631  0.54843  0.35077  1.0000
  C   C7        1.0  0.38171  0.37940  0.62089  1.0000
  C   C8        1.0  0.61828  0.62060  0.37911  1.0000
  C   C9        1.0  0.24760  0.55018  0.73935  1.0000
  C   C10       1.0  0.75239  0.44982  0.26065  1.0000
  C   C11       1.0  0.16542  0.47447  0.71601  1.0000
  C   C12       1.0  0.83457  0.52553  0.28399  1.0000
  C   C13       1.0  0.23172  0.39178  0.65353  1.0000
  C   C14       1.0  0.76828  0.60822  0.34647  1.0000
  C   C15       1.0  0.20148  0.26081  0.54878  1.0000
  C   C16       1.0  0.79853  0.73919  0.45121  1.0000
  C   C17       1.0  0.30151  0.13130  0.60135  1.0000
  C   C18       1.0  0.69849  0.86870  0.39865  1.0000
  C   C19       1.0  0.72319  0.16055  0.56047  1.0000
  C   C20       1.0  0.27680  0.83945  0.43953  1.0000
  C   C21       1.0  0.80245  0.25343  0.56283  1.0000
  C   C22       1.0  0.19755  0.74657  0.43717  1.0000
  C   C23       1.0  0.83241  0.24949  0.66763  1.0000
  C   C24       1.0  0.16758  0.75051  0.33237  1.0000
  C   C25       1.0  0.78441  0.15189  0.76942  1.0000
  C   C26       1.0  0.21559  0.84811  0.23058  1.0000
  C   C27       1.0  0.81370  0.13712  0.88134  1.0000
  C   C28       1.0  0.18630  0.86287  0.11866  1.0000
  C   C29       1.0  0.95271  0.19610  0.10047  1.0000
  C   C30       1.0  0.04729  0.80390  0.89953  1.0000
  C   C31       1.0  0.03511  0.29999  0.05265  1.0000
  C   C32       1.0  0.96490  0.70001  0.94735  1.0000
  C   C33       1.0  0.11231  0.33132  0.12055  1.0000
  C   C34       1.0  0.88769  0.66867  0.87945  1.0000
  C   C35       1.0  0.11089  0.25670  0.23860  1.0000
  C   C36       1.0  0.88911  0.74330  0.76140  1.0000
  C   C37       1.0  0.02159  0.15856  0.28804  1.0000
  C   C38       1.0  0.97841  0.84144  0.71196  1.0000
  C   C39       1.0  0.94428  0.12853  0.22006  1.0000
  C   C40       1.0  0.05571  0.87147  0.77994  1.0000
  C   C41       1.0  0.88418  0.15569  0.02717  1.0000
  C   C42       1.0  0.11583  0.84431  0.97283  1.0000
  C   C43       1.0  0.76577  0.03459  0.97826  1.0000
  C   C44       1.0  0.23423  0.96541  0.02173  1.0000
  C   C45       1.0  0.68520  0.94205  0.97369  1.0000
  C   C46       1.0  0.31480  0.05795  0.02631  1.0000
  C   C47       1.0  0.63335  0.83936  0.06973  1.0000
  C   C48       1.0  0.36665  0.16064  0.93027  1.0000
  C   C49       1.0  0.55404  0.75704  0.05354  1.0000
  C   C50       1.0  0.44597  0.24296  0.94646  1.0000
  C   C51       1.0  0.52846  0.77708  0.94156  1.0000
  C   C52       1.0  0.47154  0.22292  0.05844  1.0000
  C   C53       1.0  0.65342  0.95666  0.86276  1.0000
  C   C54       1.0  0.34658  0.04334  0.13724  1.0000
  C   C55       1.0  0.70421  0.06099  0.76032  1.0000
  C   C56       1.0  0.29579  0.93901  0.23968  1.0000
  N   N1        1.0  0.57641  0.87362  0.85024  1.0000
  N   N2        1.0  0.42359  0.12638  0.14976  1.0000
  N   N3        1.0  0.67580  0.06826  0.65621  1.0000
  N   N4        1.0  0.32419  0.93174  0.34379  1.0000
  N   N5        1.0  0.81181  0.04788  0.06961  1.0000
  N   N6        1.0  0.18819  0.95212  0.93039  1.0000
  N   N7        1.0  0.88704  0.21130  0.91268  1.0000
  N   N8        1.0  0.11297  0.78870  0.08732  1.0000
  O   O1        1.0  0.61738  0.57905  0.74381  1.0000
  O   O2        1.0  0.38261  0.42095  0.25620  1.0000
  O   O3        1.0  0.42446  0.74632  0.70556  1.0000
  O   O4        1.0  0.57554  0.25368  0.29444  1.0000
  O   O5        1.0  0.14116  0.32851  0.62668  1.0000
  O   O6        1.0  0.85884  0.67149  0.37332  1.0000
  O   O7        1.0  0.37850  0.07644  0.53213  1.0000
  O   O8        1.0  0.62151  0.92357  0.46787  1.0000
  O   O9        1.0  0.30835  0.08181  0.70801  1.0000
  O   O10       1.0  0.69166  0.91819  0.29199  1.0000
  O   O11       1.0  0.19336  0.27109  0.30915  1.0000
  O   O12       1.0  0.80664  0.72890  0.69085  1.0000
