data_image0
_chemical_formula_structural       K4H24C12N4O20
_chemical_formula_sum              "K4 H24 C12 N4 O20"
_cell_length_a       6.83466
_cell_length_b       7.48072
_cell_length_c       13.0707
_cell_angle_alpha    89.9999
_cell_angle_beta     89.9998
_cell_angle_gamma    105.184

_space_group_name_H-M_alt    "P 1"
_space_group_IT_number       1

loop_
  _space_group_symop_operation_xyz
  'x, y, z'

loop_
  _atom_site_type_symbol
  _atom_site_label
  _atom_site_symmetry_multiplicity
  _atom_site_fract_x
  _atom_site_fract_y
  _atom_site_fract_z
  _atom_site_occupancy
  K   K1        1.0  0.09986  0.49864  0.63803  1.0000
  K   K2        1.0  0.40014  0.50136  0.13803  1.0000
  K   K3        1.0  0.90014  0.50136  0.36197  1.0000
  K   K4        1.0  0.59986  0.49864  0.86197  1.0000
  H   H1        1.0  0.95545  0.97439  0.73492  1.0000
  H   H2        1.0  0.54455  0.02561  0.23492  1.0000
  H   H3        1.0  0.04455  0.02561  0.26507  1.0000
  H   H4        1.0  0.45545  0.97439  0.76507  1.0000
  H   H5        1.0  0.83541  0.97987  0.85448  1.0000
  H   H6        1.0  0.66459  0.02014  0.35448  1.0000
  H   H7        1.0  0.16459  0.02013  0.14552  1.0000
  H   H8        1.0  0.33541  0.97986  0.64552  1.0000
  H   H9        1.0  0.11871  0.55667  0.89240  1.0000
  H   H10       1.0  0.38129  0.44333  0.39240  1.0000
  H   H11       1.0  0.88129  0.44333  0.10760  1.0000
  H   H12       1.0  0.61872  0.55667  0.60760  1.0000
  H   H13       1.0  0.94975  0.23102  0.96070  1.0000
  H   H14       1.0  0.55026  0.76898  0.46070  1.0000
  H   H15       1.0  0.05025  0.76898  0.03930  1.0000
  H   H16       1.0  0.44975  0.23102  0.53930  1.0000
  H   H17       1.0  0.13843  0.88415  0.48352  1.0000
  H   H18       1.0  0.36157  0.11585  0.98352  1.0000
  H   H19       1.0  0.86157  0.11585  0.51648  1.0000
  H   H20       1.0  0.63843  0.88415  0.01648  1.0000
  H   H21       1.0  0.92286  0.81831  0.53564  1.0000
  H   H22       1.0  0.57714  0.18169  0.03564  1.0000
  H   H23       1.0  0.07714  0.18169  0.46436  1.0000
  H   H24       1.0  0.42286  0.81831  0.96436  1.0000
  C   C1        1.0  0.08269  0.85767  0.86126  1.0000
  C   C2        1.0  0.41731  0.14234  0.36126  1.0000
  C   C3        1.0  0.91731  0.14233  0.13875  1.0000
  C   C4        1.0  0.58269  0.85767  0.63874  1.0000
  C   C5        1.0  0.98393  0.00143  0.81673  1.0000
  C   C6        1.0  0.51607  0.99857  0.31673  1.0000
  C   C7        1.0  0.01607  0.99857  0.18327  1.0000
  C   C8        1.0  0.48393  0.00143  0.68327  1.0000
  C   C9        1.0  0.11038  0.19913  0.82895  1.0000
  C   C10       1.0  0.38962  0.80087  0.32895  1.0000
  C   C11       1.0  0.88961  0.80086  0.17105  1.0000
  C   C12       1.0  0.61039  0.19913  0.67104  1.0000
  N   N1        1.0  0.06177  0.29022  0.90928  1.0000
  N   N2        1.0  0.43824  0.70978  0.40929  1.0000
  N   N3        1.0  0.93823  0.70978  0.09072  1.0000
  N   N4        1.0  0.56177  0.29022  0.59071  1.0000
  O   O1        1.0  0.02394  0.69357  0.82668  1.0000
  O   O2        1.0  0.47606  0.30643  0.32668  1.0000
  O   O3        1.0  0.97606  0.30643  0.17332  1.0000
  O   O4        1.0  0.52394  0.69357  0.67332  1.0000
  O   O5        1.0  0.21016  0.90545  0.93432  1.0000
  O   O6        1.0  0.28984  0.09455  0.43432  1.0000
  O   O7        1.0  0.78984  0.09455  0.06569  1.0000
  O   O8        1.0  0.71017  0.90545  0.56568  1.0000
  O   O9        1.0  0.25003  0.27061  0.76794  1.0000
  O   O10       1.0  0.24997  0.72939  0.26795  1.0000
  O   O11       1.0  0.74997  0.72939  0.23206  1.0000
  O   O12       1.0  0.75003  0.27061  0.73205  1.0000
  O   O13       1.0  0.17868  0.46676  0.93355  1.0000
  O   O14       1.0  0.32132  0.53324  0.43355  1.0000
  O   O15       1.0  0.82132  0.53324  0.06645  1.0000
  O   O16       1.0  0.67868  0.46676  0.56645  1.0000
  O   O17       1.0  0.04355  0.77665  0.51633  1.0000
  O   O18       1.0  0.45645  0.22335  0.01633  1.0000
  O   O19       1.0  0.95645  0.22335  0.48367  1.0000
  O   O20       1.0  0.54355  0.77665  0.98367  1.0000
