data_image0
_chemical_formula_structural       K4H20C24N4O12
_chemical_formula_sum              "K4 H20 C24 N4 O12"
_cell_length_a       3.73154
_cell_length_b       7.91621
_cell_length_c       26.5422
_cell_angle_alpha    89.999
_cell_angle_beta     93.6681
_cell_angle_gamma    90.0005

_space_group_name_H-M_alt    "P 1"
_space_group_IT_number       1

loop_
  _space_group_symop_operation_xyz
  'x, y, z'

loop_
  _atom_site_type_symbol
  _atom_site_label
  _atom_site_symmetry_multiplicity
  _atom_site_fract_x
  _atom_site_fract_y
  _atom_site_fract_z
  _atom_site_occupancy
  K   K1        1.0  0.06814  0.72569  0.22261  1.0000
  K   K2        1.0  0.93195  0.22570  0.27738  1.0000
  K   K3        1.0  0.93187  0.27429  0.77739  1.0000
  K   K4        1.0  0.06811  0.77429  0.72262  1.0000
  H   H1        1.0  0.49128  0.42818  0.17375  1.0000
  H   H2        1.0  0.50874  0.92818  0.32625  1.0000
  H   H3        1.0  0.50874  0.57182  0.82625  1.0000
  H   H4        1.0  0.49126  0.07182  0.67375  1.0000
  H   H5        1.0  0.51770  0.54489  0.12599  1.0000
  H   H6        1.0  0.48230  0.04488  0.37400  1.0000
  H   H7        1.0  0.48231  0.45511  0.87400  1.0000
  H   H8        1.0  0.51770  0.95510  0.62599  1.0000
  H   H9        1.0  0.47983  0.32889  0.38032  1.0000
  H   H10       1.0  0.52016  0.82891  0.11968  1.0000
  H   H11       1.0  0.52014  0.67110  0.61968  1.0000
  H   H12       1.0  0.47984  0.17110  0.88033  1.0000
  H   H13       1.0  0.94747  0.82391  0.38317  1.0000
  H   H14       1.0  0.05253  0.32391  0.11683  1.0000
  H   H15       1.0  0.05247  0.17608  0.61683  1.0000
  H   H16       1.0  0.94749  0.67609  0.88318  1.0000
  H   H17       1.0  0.15613  0.77007  0.47467  1.0000
  H   H18       1.0  0.84383  0.27007  0.02533  1.0000
  H   H19       1.0  0.84383  0.22993  0.52533  1.0000
  H   H20       1.0  0.15614  0.72994  0.97468  1.0000
  C   C1        1.0  0.93485  0.51922  0.47369  1.0000
  C   C2        1.0  0.06515  0.01923  0.02631  1.0000
  C   C3        1.0  0.06515  0.48077  0.52631  1.0000
  C   C4        1.0  0.93486  0.98078  0.97369  1.0000
  C   C5        1.0  0.63418  0.42805  0.40036  1.0000
  C   C6        1.0  0.36584  0.92806  0.09964  1.0000
  C   C7        1.0  0.36580  0.57194  0.59964  1.0000
  C   C8        1.0  0.63416  0.07195  0.90036  1.0000
  C   C9        1.0  0.69477  0.57984  0.37505  1.0000
  C   C10       1.0  0.30525  0.07987  0.12494  1.0000
  C   C11       1.0  0.30520  0.42014  0.62494  1.0000
  C   C12       1.0  0.69477  0.92015  0.87506  1.0000
  C   C13       1.0  0.88692  0.70593  0.40208  1.0000
  C   C14       1.0  0.11310  0.20594  0.09792  1.0000
  C   C15       1.0  0.11306  0.29407  0.59792  1.0000
  C   C16       1.0  0.88691  0.79408  0.90208  1.0000
  C   C17       1.0  0.00433  0.67674  0.45202  1.0000
  C   C18       1.0  0.99566  0.17675  0.04798  1.0000
  C   C19       1.0  0.99565  0.32327  0.54798  1.0000
  C   C20       1.0  0.00434  0.82327  0.95203  1.0000
  C   C21       1.0  0.55800  0.60330  0.32096  1.0000
  C   C22       1.0  0.44206  0.10328  0.17904  1.0000
  C   C23       1.0  0.44199  0.39670  0.67904  1.0000
  C   C24       1.0  0.55799  0.89671  0.82097  1.0000
  N   N1        1.0  0.75152  0.39604  0.44795  1.0000
  N   N2        1.0  0.24848  0.89606  0.05205  1.0000
  N   N3        1.0  0.24847  0.60394  0.55205  1.0000
  N   N4        1.0  0.75152  0.10396  0.94795  1.0000
  O   O1        1.0  0.59848  0.74872  0.30089  1.0000
  O   O2        1.0  0.40160  0.24873  0.19911  1.0000
  O   O3        1.0  0.40153  0.25126  0.69911  1.0000
  O   O4        1.0  0.59847  0.75128  0.80089  1.0000
  O   O5        1.0  0.41395  0.47858  0.29756  1.0000
  O   O6        1.0  0.58605  0.97858  0.20244  1.0000
  O   O7        1.0  0.58604  0.52141  0.70244  1.0000
  O   O8        1.0  0.41395  0.02142  0.79756  1.0000
  O   O9        1.0  0.55802  0.54539  0.16249  1.0000
  O   O10       1.0  0.44200  0.04539  0.33751  1.0000
  O   O11       1.0  0.44199  0.45461  0.83751  1.0000
  O   O12       1.0  0.55802  0.95461  0.66249  1.0000
