data_image0
_chemical_formula_structural       Tb2Ag2H22C30N4O24
_chemical_formula_sum              "Tb2 Ag2 H22 C30 N4 O24"
_cell_length_a       7.53042
_cell_length_b       8.20482
_cell_length_c       14.2019
_cell_angle_alpha    98.2409
_cell_angle_beta     100.458
_cell_angle_gamma    94.6636

_space_group_name_H-M_alt    "P 1"
_space_group_IT_number       1

loop_
  _space_group_symop_operation_xyz
  'x, y, z'

loop_
  _atom_site_type_symbol
  _atom_site_label
  _atom_site_symmetry_multiplicity
  _atom_site_fract_x
  _atom_site_fract_y
  _atom_site_fract_z
  _atom_site_occupancy
  Tb  Tb1       1.0  0.81115  0.29753  0.08057  1.0000
  Tb  Tb2       1.0  0.18885  0.70246  0.91943  1.0000
  Ag  Ag1       1.0  0.17078  0.40366  0.53204  1.0000
  Ag  Ag2       1.0  0.82922  0.59634  0.46797  1.0000
  H   H1        1.0  0.78476  0.55143  0.95873  1.0000
  H   H2        1.0  0.21524  0.44857  0.04127  1.0000
  H   H3        1.0  0.63739  0.62131  0.01886  1.0000
  H   H4        1.0  0.36261  0.37869  0.98114  1.0000
  H   H5        1.0  0.12731  0.11437  0.01697  1.0000
  H   H6        1.0  0.87269  0.88563  0.98303  1.0000
  H   H7        1.0  0.20333  0.18853  0.12684  1.0000
  H   H8        1.0  0.79667  0.81147  0.87315  1.0000
  H   H9        1.0  0.32870  0.28835  0.36351  1.0000
  H   H10       1.0  0.67130  0.71165  0.63649  1.0000
  H   H11       1.0  0.52345  0.70117  0.23980  1.0000
  H   H12       1.0  0.47655  0.29883  0.76020  1.0000
  H   H13       1.0  0.27994  0.76402  0.49442  1.0000
  H   H14       1.0  0.72006  0.23598  0.50558  1.0000
  H   H15       1.0  0.96470  0.53792  0.28490  1.0000
  H   H16       1.0  0.03530  0.46208  0.71510  1.0000
  H   H17       1.0  0.02489  0.99327  0.17047  1.0000
  H   H18       1.0  0.97511  0.00673  0.82953  1.0000
  H   H19       1.0  0.83450  0.96938  0.43723  1.0000
  H   H20       1.0  0.16551  0.03063  0.56277  1.0000
  H   H21       1.0  0.45445  0.08541  0.26719  1.0000
  H   H22       1.0  0.54554  0.91459  0.73281  1.0000
  C   C1        1.0  0.35305  0.42096  0.36266  1.0000
  C   C2        1.0  0.64695  0.57904  0.63734  1.0000
  C   C3        1.0  0.43785  0.48116  0.29321  1.0000
  C   C4        1.0  0.56214  0.51884  0.70679  1.0000
  C   C5        1.0  0.46275  0.65175  0.29516  1.0000
  C   C6        1.0  0.53725  0.34825  0.70484  1.0000
  C   C7        1.0  0.40302  0.75681  0.36650  1.0000
  C   C8        1.0  0.59698  0.24319  0.63350  1.0000
  C   C9        1.0  0.32691  0.68778  0.43649  1.0000
  C   C10       1.0  0.67309  0.31222  0.56351  1.0000
  C   C11       1.0  0.49846  0.36490  0.21703  1.0000
  C   C12       1.0  0.50153  0.63510  0.78297  1.0000
  C   C13       1.0  0.40467  0.93789  0.36198  1.0000
  C   C14       1.0  0.59533  0.06211  0.63802  1.0000
  C   C15       1.0  0.95618  0.67073  0.28898  1.0000
  C   C16       1.0  0.04381  0.32927  0.71102  1.0000
  C   C17       1.0  0.00488  0.75561  0.21769  1.0000
  C   C18       1.0  0.99512  0.24438  0.78231  1.0000
  C   C19       1.0  0.98835  0.92479  0.22549  1.0000
  C   C20       1.0  0.01165  0.07521  0.77451  1.0000
  C   C21       1.0  0.92416  0.00483  0.30396  1.0000
  C   C22       1.0  0.07584  0.99517  0.69604  1.0000
  C   C23       1.0  0.88300  0.91211  0.37393  1.0000
  C   C24       1.0  0.11700  0.08789  0.62607  1.0000
  C   C25       1.0  0.07234  0.66582  0.13428  1.0000
  C   C26       1.0  0.92767  0.33419  0.86571  1.0000
  C   C27       1.0  0.43439  0.06032  0.98056  1.0000
  C   C28       1.0  0.56559  0.93965  0.01943  1.0000
  C   C29       1.0  0.90110  0.18737  0.31202  1.0000
  C   C30       1.0  0.09890  0.81263  0.68798  1.0000
  N   N1        1.0  0.30162  0.52259  0.43390  1.0000
  N   N2        1.0  0.69838  0.47741  0.56610  1.0000
  N   N3        1.0  0.89832  0.74790  0.36628  1.0000
  N   N4        1.0  0.10168  0.25210  0.63372  1.0000
  O   O1        1.0  0.42483  0.21482  0.19841  1.0000
  O   O2        1.0  0.57517  0.78518  0.80159  1.0000
  O   O3        1.0  0.71705  0.53225  0.01031  1.0000
  O   O4        1.0  0.28295  0.46774  0.98969  1.0000
  O   O5        1.0  0.61765  0.42346  0.17511  1.0000
  O   O6        1.0  0.38236  0.57654  0.82489  1.0000
  O   O7        1.0  0.09176  0.17047  0.07573  1.0000
  O   O8        1.0  0.90824  0.82953  0.92427  1.0000
  O   O9        1.0  0.47878  0.97441  0.28842  1.0000
  O   O10       1.0  0.52122  0.02560  0.71158  1.0000
  O   O11       1.0  0.33858  0.03563  0.41655  1.0000
  O   O12       1.0  0.66143  0.96437  0.58345  1.0000
  O   O13       1.0  0.06013  0.50704  0.12341  1.0000
  O   O14       1.0  0.93987  0.49295  0.87659  1.0000
  O   O15       1.0  0.49912  0.20962  0.98807  1.0000
  O   O16       1.0  0.50089  0.79039  0.01194  1.0000
  O   O17       1.0  0.13882  0.75117  0.07914  1.0000
  O   O18       1.0  0.86117  0.24882  0.92087  1.0000
  O   O19       1.0  0.87354  0.26295  0.39076  1.0000
  O   O20       1.0  0.12646  0.73705  0.60924  1.0000
  O   O21       1.0  0.27140  0.99899  0.94522  1.0000
  O   O22       1.0  0.72862  0.00101  0.05478  1.0000
  O   O23       1.0  0.91410  0.25324  0.23653  1.0000
  O   O24       1.0  0.08590  0.74677  0.76347  1.0000
