data_image0
_chemical_formula_structural       H28Pb2C26N4Cl4
_chemical_formula_sum              "H28 Pb2 C26 N4 Cl4"
_cell_length_a       4.27419
_cell_length_b       10.6609
_cell_length_c       15.505
_cell_angle_alpha    89.9966
_cell_angle_beta     90.0024
_cell_angle_gamma    97.1007

_space_group_name_H-M_alt    "P 1"
_space_group_IT_number       1

loop_
  _space_group_symop_operation_xyz
  'x, y, z'

loop_
  _atom_site_type_symbol
  _atom_site_label
  _atom_site_symmetry_multiplicity
  _atom_site_fract_x
  _atom_site_fract_y
  _atom_site_fract_z
  _atom_site_occupancy
  H   H1        1.0  0.66562  0.95339  0.57732  1.0000
  H   H2        1.0  0.33417  0.04667  0.07735  1.0000
  H   H3        1.0  0.33428  0.04666  0.42268  1.0000
  H   H4        1.0  0.66550  0.95342  0.92271  1.0000
  H   H5        1.0  0.35512  0.55515  0.42309  1.0000
  H   H6        1.0  0.64489  0.44486  0.92303  1.0000
  H   H7        1.0  0.64475  0.44491  0.57691  1.0000
  H   H8        1.0  0.35527  0.55511  0.07692  1.0000
  H   H9        1.0  0.87777  0.90816  0.43067  1.0000
  H   H10       1.0  0.12222  0.09185  0.93067  1.0000
  H   H11       1.0  0.12226  0.09186  0.56934  1.0000
  H   H12       1.0  0.87773  0.90816  0.06935  1.0000
  H   H13       1.0  0.99550  0.73738  0.67261  1.0000
  H   H14       1.0  0.00443  0.26266  0.17261  1.0000
  H   H15       1.0  0.00445  0.26265  0.32740  1.0000
  H   H16       1.0  0.99547  0.73737  0.82739  1.0000
  H   H17       1.0  0.17820  0.89627  0.67166  1.0000
  H   H18       1.0  0.82174  0.10377  0.17167  1.0000
  H   H19       1.0  0.82173  0.10376  0.32835  1.0000
  H   H20       1.0  0.17812  0.89627  0.82833  1.0000
  H   H21       1.0  0.13414  0.58284  0.57094  1.0000
  H   H22       1.0  0.86588  0.41718  0.07090  1.0000
  H   H23       1.0  0.86587  0.41720  0.42908  1.0000
  H   H24       1.0  0.13421  0.58282  0.92907  1.0000
  H   H25       1.0  0.63924  0.83287  0.75002  1.0000
  H   H26       1.0  0.36068  0.16717  0.25000  1.0000
  H   H27       1.0  0.46482  0.67197  0.75002  1.0000
  H   H28       1.0  0.53510  0.32806  0.25000  1.0000
  Pb  Pb1       1.0  0.68960  0.71556  0.24997  1.0000
  Pb  Pb2       1.0  0.31188  0.28404  0.74994  1.0000
  C   C1        1.0  0.37759  0.77196  0.58549  1.0000
  C   C2        1.0  0.62235  0.22808  0.08549  1.0000
  C   C3        1.0  0.62236  0.22809  0.41451  1.0000
  C   C4        1.0  0.37753  0.77197  0.91453  1.0000
  C   C5        1.0  0.59510  0.86301  0.54554  1.0000
  C   C6        1.0  0.40477  0.13703  0.04555  1.0000
  C   C7        1.0  0.40482  0.13703  0.45446  1.0000
  C   C8        1.0  0.59502  0.86303  0.95448  1.0000
  C   C9        1.0  0.42332  0.64108  0.46036  1.0000
  C   C10       1.0  0.57671  0.35894  0.96033  1.0000
  C   C11       1.0  0.57659  0.35898  0.53963  1.0000
  C   C12       1.0  0.42339  0.64105  0.03965  1.0000
  C   C13       1.0  0.71238  0.83853  0.46439  1.0000
  C   C14       1.0  0.28761  0.16150  0.96438  1.0000
  C   C15       1.0  0.28758  0.16151  0.53561  1.0000
  C   C16       1.0  0.71235  0.83853  0.03563  1.0000
  C   C17       1.0  0.22408  0.79687  0.66955  1.0000
  C   C18       1.0  0.77586  0.20317  0.16954  1.0000
  C   C19       1.0  0.77588  0.20316  0.33046  1.0000
  C   C20       1.0  0.22403  0.79688  0.83047  1.0000
  C   C21       1.0  0.29862  0.65738  0.54185  1.0000
  C   C22       1.0  0.70135  0.34265  0.04182  1.0000
  C   C23       1.0  0.70133  0.34267  0.45815  1.0000
  C   C24       1.0  0.29865  0.65737  0.95816  1.0000
  C   C25       1.0  0.41454  0.77077  0.75001  1.0000
  C   C26       1.0  0.58539  0.22927  0.25000  1.0000
  N   N1        1.0  0.62553  0.73009  0.42160  1.0000
  N   N2        1.0  0.37456  0.26991  0.92157  1.0000
  N   N3        1.0  0.37442  0.26996  0.57839  1.0000
  N   N4        1.0  0.62557  0.73007  0.07841  1.0000
  Cl  Cl1       1.0  0.22358  0.90338  0.25003  1.0000
  Cl  Cl2       1.0  0.77619  0.09638  0.75004  1.0000
  Cl  Cl3       1.0  0.11760  0.52805  0.24997  1.0000
  Cl  Cl4       1.0  0.88271  0.47161  0.74997  1.0000
