data_image0
_chemical_formula_structural       Cu4H36C20N4Cl8O8
_chemical_formula_sum              "Cu4 H36 C20 N4 Cl8 O8"
_cell_length_a       6.64949
_cell_length_b       9.69767
_cell_length_c       12.7236
_cell_angle_alpha    76.882
_cell_angle_beta     89.5932
_cell_angle_gamma    80.6822

_space_group_name_H-M_alt    "P 1"
_space_group_IT_number       1

loop_
  _space_group_symop_operation_xyz
  'x, y, z'

loop_
  _atom_site_type_symbol
  _atom_site_label
  _atom_site_symmetry_multiplicity
  _atom_site_fract_x
  _atom_site_fract_y
  _atom_site_fract_z
  _atom_site_occupancy
  Cu  Cu1       1.0  0.62675  0.26284  0.26599  1.0000
  Cu  Cu2       1.0  0.37325  0.73715  0.73401  1.0000
  Cu  Cu3       1.0  0.13613  0.23649  0.22308  1.0000
  Cu  Cu4       1.0  0.86387  0.76350  0.77692  1.0000
  H   H1        1.0  0.37130  0.38556  0.89014  1.0000
  H   H2        1.0  0.62868  0.61441  0.10984  1.0000
  H   H3        1.0  0.42636  0.09242  0.92264  1.0000
  H   H4        1.0  0.57365  0.90754  0.07736  1.0000
  H   H5        1.0  0.51201  0.19884  0.80420  1.0000
  H   H6        1.0  0.48797  0.80110  0.19581  1.0000
  H   H7        1.0  0.76996  0.04726  0.00949  1.0000
  H   H8        1.0  0.23004  0.95273  0.99050  1.0000
  H   H9        1.0  0.82480  0.03537  0.87481  1.0000
  H   H10       1.0  0.17522  0.96462  0.12520  1.0000
  H   H11       1.0  0.98013  0.22986  0.97038  1.0000
  H   H12       1.0  0.01986  0.77015  0.02961  1.0000
  H   H13       1.0  0.91050  0.27460  0.83029  1.0000
  H   H14       1.0  0.08949  0.72541  0.16971  1.0000
  H   H15       1.0  0.71897  0.39085  0.99764  1.0000
  H   H16       1.0  0.28098  0.60914  0.00236  1.0000
  H   H17       1.0  0.67645  0.44531  0.86225  1.0000
  H   H18       1.0  0.32352  0.55469  0.13774  1.0000
  H   H19       1.0  0.93856  0.08283  0.59372  1.0000
  H   H20       1.0  0.06144  0.91720  0.40625  1.0000
  H   H21       1.0  0.87747  0.40361  0.54456  1.0000
  H   H22       1.0  0.12251  0.59639  0.45544  1.0000
  H   H23       1.0  0.82357  0.28476  0.66401  1.0000
  H   H24       1.0  0.17644  0.71523  0.33600  1.0000
  H   H25       1.0  0.14526  0.43347  0.66181  1.0000
  H   H26       1.0  0.85473  0.56654  0.33820  1.0000
  H   H27       1.0  0.16969  0.25266  0.73523  1.0000
  H   H28       1.0  0.83031  0.74735  0.26478  1.0000
  H   H29       1.0  0.30596  0.35158  0.50180  1.0000
  H   H30       1.0  0.69404  0.64841  0.49822  1.0000
  H   H31       1.0  0.45739  0.23958  0.61397  1.0000
  H   H32       1.0  0.54262  0.76043  0.38605  1.0000
  H   H33       1.0  0.27199  0.05643  0.61743  1.0000
  H   H34       1.0  0.72805  0.94357  0.38258  1.0000
  H   H35       1.0  0.28400  0.12169  0.48314  1.0000
  H   H36       1.0  0.71603  0.87832  0.51687  1.0000
  C   C1        1.0  0.42478  0.27888  0.05602  1.0000
  C   C2        1.0  0.57521  0.72112  0.94397  1.0000
  C   C3        1.0  0.48855  0.30192  0.93795  1.0000
  C   C4        1.0  0.51144  0.69808  0.06202  1.0000
  C   C5        1.0  0.53135  0.16729  0.89252  1.0000
  C   C6        1.0  0.46865  0.83268  0.10748  1.0000
  C   C7        1.0  0.75494  0.10696  0.92488  1.0000
  C   C8        1.0  0.24506  0.89303  0.07511  1.0000
  C   C9        1.0  0.85600  0.23986  0.91173  1.0000
  C   C10       1.0  0.14400  0.76013  0.08826  1.0000
  C   C11       1.0  0.92266  0.21826  0.43212  1.0000
  C   C12       1.0  0.07739  0.78177  0.56787  1.0000
  C   C13       1.0  0.99711  0.17831  0.54964  1.0000
  C   C14       1.0  0.00293  0.82171  0.45038  1.0000
  C   C15       1.0  0.94097  0.30595  0.60447  1.0000
  C   C16       1.0  0.05905  0.69405  0.39555  1.0000
  C   C17       1.0  0.14241  0.32355  0.65420  1.0000
  C   C18       1.0  0.85761  0.67645  0.34582  1.0000
  C   C19       1.0  0.30258  0.27380  0.57901  1.0000
  C   C20       1.0  0.69743  0.72621  0.42101  1.0000
  N   N1        1.0  0.68823  0.35806  0.92798  1.0000
  N   N2        1.0  0.31176  0.64192  0.07200  1.0000
  N   N3        1.0  0.22733  0.14568  0.55484  1.0000
  N   N4        1.0  0.77269  0.85433  0.44517  1.0000
  Cl  Cl1       1.0  0.95410  0.44306  0.13360  1.0000
  Cl  Cl2       1.0  0.04588  0.55694  0.86644  1.0000
  Cl  Cl3       1.0  0.35793  0.05115  0.32616  1.0000
  Cl  Cl4       1.0  0.64210  0.94884  0.67384  1.0000
  Cl  Cl5       1.0  0.83965  0.07868  0.21341  1.0000
  Cl  Cl6       1.0  0.16040  0.92132  0.78658  1.0000
  Cl  Cl7       1.0  0.45590  0.46133  0.31080  1.0000
  Cl  Cl8       1.0  0.54405  0.53865  0.68917  1.0000
  O   O1        1.0  0.52187  0.33764  0.11505  1.0000
  O   O2        1.0  0.47809  0.66238  0.88494  1.0000
  O   O3        1.0  0.27793  0.21188  0.08361  1.0000
  O   O4        1.0  0.72202  0.78819  0.91637  1.0000
  O   O5        1.0  0.04033  0.27902  0.36508  1.0000
  O   O6        1.0  0.95970  0.72100  0.63493  1.0000
  O   O7        1.0  0.74744  0.19010  0.41391  1.0000
  O   O8        1.0  0.25257  0.80998  0.58608  1.0000
