data_image0
_chemical_formula_structural       Cu3H16C8S2Cl6O2
_chemical_formula_sum              "Cu3 H16 C8 S2 Cl6 O2"
_cell_length_a       7.26984
_cell_length_b       7.78719
_cell_length_c       9.34834
_cell_angle_alpha    66.5959
_cell_angle_beta     73.2243
_cell_angle_gamma    67.6924

_space_group_name_H-M_alt    "P 1"
_space_group_IT_number       1

loop_
  _space_group_symop_operation_xyz
  'x, y, z'

loop_
  _atom_site_type_symbol
  _atom_site_label
  _atom_site_symmetry_multiplicity
  _atom_site_fract_x
  _atom_site_fract_y
  _atom_site_fract_z
  _atom_site_occupancy
  Cu  Cu1       1.0  0.85661  0.07943  0.35565  1.0000
  Cu  Cu2       1.0  0.14257  0.92086  0.64560  1.0000
  Cu  Cu3       1.0  0.00043  0.99961  0.99920  1.0000
  H   H1        1.0  0.14167  0.54998  0.31879  1.0000
  H   H2        1.0  0.85808  0.45093  0.68079  1.0000
  H   H3        1.0  0.12636  0.52178  0.14257  1.0000
  H   H4        1.0  0.87386  0.47754  0.85757  1.0000
  H   H5        1.0  0.32945  0.20629  0.30918  1.0000
  H   H6        1.0  0.66952  0.79390  0.69232  1.0000
  H   H7        1.0  0.48859  0.30241  0.13147  1.0000
  H   H8        1.0  0.51113  0.69611  0.86988  1.0000
  H   H9        1.0  0.71712  0.50608  0.11592  1.0000
  H   H10       1.0  0.28321  0.49299  0.88458  1.0000
  H   H11       1.0  0.71193  0.57302  0.27901  1.0000
  H   H12       1.0  0.28776  0.42735  0.72100  1.0000
  H   H13       1.0  0.48257  0.84179  0.09524  1.0000
  H   H14       1.0  0.51841  0.15767  0.90337  1.0000
  H   H15       1.0  0.34723  0.75434  0.28794  1.0000
  H   H16       1.0  0.65281  0.24699  0.71061  1.0000
  C   C1        1.0  0.39467  0.32679  0.24101  1.0000
  C   C2        1.0  0.60488  0.67293  0.75991  1.0000
  C   C3        1.0  0.22922  0.52308  0.20791  1.0000
  C   C4        1.0  0.77083  0.47682  0.79208  1.0000
  C   C5        1.0  0.43486  0.71564  0.18172  1.0000
  C   C6        1.0  0.56550  0.28442  0.81742  1.0000
  C   C7        1.0  0.62234  0.54161  0.22139  1.0000
  C   C8        1.0  0.37761  0.45833  0.77871  1.0000
  S   S1        1.0  0.55309  0.32548  0.35917  1.0000
  S   S2        1.0  0.44639  0.67485  0.64151  1.0000
  Cl  Cl1       1.0  0.95577  0.22211  0.48280  1.0000
  Cl  Cl2       1.0  0.04433  0.77843  0.51730  1.0000
  Cl  Cl3       1.0  0.77639  0.92190  0.23317  1.0000
  Cl  Cl4       1.0  0.22437  0.07955  0.76585  1.0000
  Cl  Cl5       1.0  0.08466  0.17969  0.09682  1.0000
  Cl  Cl6       1.0  0.91530  0.81984  0.90316  1.0000
  O   O1        1.0  0.30817  0.68302  0.10835  1.0000
  O   O2        1.0  0.69232  0.31645  0.89103  1.0000
