data_image0
_chemical_formula_structural       Na4H36C20N8O20
_chemical_formula_sum              "Na4 H36 C20 N8 O20"
_cell_length_a       5.02939
_cell_length_b       9.32326
_cell_length_c       17.1061
_cell_angle_alpha    89.9997
_cell_angle_beta     89.9995
_cell_angle_gamma    90.0003

_space_group_name_H-M_alt    "P 1"
_space_group_IT_number       1

loop_
  _space_group_symop_operation_xyz
  'x, y, z'

loop_
  _atom_site_type_symbol
  _atom_site_label
  _atom_site_symmetry_multiplicity
  _atom_site_fract_x
  _atom_site_fract_y
  _atom_site_fract_z
  _atom_site_occupancy
  Na  Na1       1.0  0.24295  0.05712  0.86357  1.0000
  Na  Na2       1.0  0.74295  0.94289  0.63643  1.0000
  Na  Na3       1.0  0.75703  0.44289  0.36357  1.0000
  Na  Na4       1.0  0.25705  0.55712  0.13642  1.0000
  H   H1        1.0  0.72927  0.72057  0.00902  1.0000
  H   H2        1.0  0.22928  0.27945  0.49097  1.0000
  H   H3        1.0  0.27068  0.77944  0.50903  1.0000
  H   H4        1.0  0.77073  0.22057  0.99098  1.0000
  H   H5        1.0  0.65151  0.48059  0.98120  1.0000
  H   H6        1.0  0.15151  0.51942  0.51880  1.0000
  H   H7        1.0  0.34849  0.01941  0.48120  1.0000
  H   H8        1.0  0.84849  0.98059  0.01881  1.0000
  H   H9        1.0  0.00308  0.46676  0.98962  1.0000
  H   H10       1.0  0.50309  0.53325  0.51038  1.0000
  H   H11       1.0  0.99691  0.03325  0.48962  1.0000
  H   H12       1.0  0.49692  0.96676  0.01038  1.0000
  H   H13       1.0  0.77799  0.37774  0.85424  1.0000
  H   H14       1.0  0.27801  0.62226  0.64577  1.0000
  H   H15       1.0  0.22205  0.12225  0.35424  1.0000
  H   H16       1.0  0.72201  0.87774  0.14577  1.0000
  H   H17       1.0  0.05673  0.49404  0.84675  1.0000
  H   H18       1.0  0.55674  0.50595  0.65325  1.0000
  H   H19       1.0  0.94329  0.00597  0.34674  1.0000
  H   H20       1.0  0.44328  0.99405  0.15326  1.0000
  H   H21       1.0  0.46553  0.57602  0.84074  1.0000
  H   H22       1.0  0.96555  0.42397  0.65926  1.0000
  H   H23       1.0  0.53448  0.92395  0.34074  1.0000
  H   H24       1.0  0.03447  0.07604  0.15926  1.0000
  H   H25       1.0  0.71722  0.63000  0.77351  1.0000
  H   H26       1.0  0.21724  0.36998  0.72649  1.0000
  H   H27       1.0  0.28279  0.86999  0.27351  1.0000
  H   H28       1.0  0.78278  0.13001  0.22650  1.0000
  H   H29       1.0  0.55175  0.78695  0.89471  1.0000
  H   H30       1.0  0.05176  0.21306  0.60528  1.0000
  H   H31       1.0  0.44822  0.71305  0.39472  1.0000
  H   H32       1.0  0.94824  0.28695  0.10529  1.0000
  H   H33       1.0  0.86797  0.79831  0.85817  1.0000
  H   H34       1.0  0.36799  0.20168  0.64181  1.0000
  H   H35       1.0  0.13200  0.70168  0.35818  1.0000
  H   H36       1.0  0.63202  0.29832  0.14182  1.0000
  C   C1        1.0  0.13635  0.74109  0.96943  1.0000
  C   C2        1.0  0.63635  0.25891  0.53056  1.0000
  C   C3        1.0  0.86362  0.75892  0.46944  1.0000
  C   C4        1.0  0.36365  0.24109  0.03056  1.0000
  C   C5        1.0  0.85286  0.68095  0.96088  1.0000
  C   C6        1.0  0.35287  0.31905  0.53911  1.0000
  C   C7        1.0  0.14712  0.81906  0.46088  1.0000
  C   C8        1.0  0.64714  0.18095  0.03912  1.0000
  C   C9        1.0  0.84172  0.51673  0.95651  1.0000
  C   C10       1.0  0.34174  0.48327  0.54349  1.0000
  C   C11       1.0  0.15826  0.98327  0.45650  1.0000
  C   C12       1.0  0.65827  0.01674  0.04350  1.0000
  C   C13       1.0  0.85205  0.48474  0.86892  1.0000
  C   C14       1.0  0.35207  0.51525  0.63108  1.0000
  C   C15       1.0  0.14797  0.01526  0.36892  1.0000
  C   C16       1.0  0.64795  0.98475  0.13108  1.0000
  C   C17       1.0  0.67717  0.60182  0.83434  1.0000
  C   C18       1.0  0.17720  0.39816  0.66566  1.0000
  C   C19       1.0  0.32283  0.89816  0.33434  1.0000
  C   C20       1.0  0.82282  0.10183  0.16566  1.0000
  N   N1        1.0  0.73061  0.73112  0.88479  1.0000
  N   N2        1.0  0.23061  0.26887  0.61520  1.0000
  N   N3        1.0  0.26937  0.76887  0.38480  1.0000
  N   N4        1.0  0.76939  0.23113  0.11521  1.0000
  N   N5        1.0  0.73833  0.13042  0.79384  1.0000
  N   N6        1.0  0.23834  0.86958  0.70616  1.0000
  N   N7        1.0  0.26164  0.36958  0.29384  1.0000
  N   N8        1.0  0.76168  0.63042  0.20617  1.0000
  O   O1        1.0  0.21748  0.82679  0.91599  1.0000
  O   O2        1.0  0.71749  0.17320  0.58401  1.0000
  O   O3        1.0  0.78248  0.67321  0.41600  1.0000
  O   O4        1.0  0.28251  0.32680  0.08401  1.0000
  O   O5        1.0  0.26777  0.70082  0.02780  1.0000
  O   O6        1.0  0.76778  0.29919  0.47219  1.0000
  O   O7        1.0  0.73222  0.79919  0.52780  1.0000
  O   O8        1.0  0.23224  0.20082  0.97220  1.0000
  O   O9        1.0  0.94576  0.13007  0.75205  1.0000
  O   O10       1.0  0.44573  0.86992  0.74795  1.0000
  O   O11       1.0  0.05425  0.36993  0.25206  1.0000
  O   O12       1.0  0.55426  0.63006  0.24795  1.0000
  O   O13       1.0  0.74259  0.06851  0.86040  1.0000
  O   O14       1.0  0.24260  0.93146  0.63961  1.0000
  O   O15       1.0  0.25739  0.43147  0.36039  1.0000
  O   O16       1.0  0.75739  0.56852  0.13961  1.0000
  O   O17       1.0  0.52745  0.19142  0.77098  1.0000
  O   O18       1.0  0.02742  0.80856  0.72902  1.0000
  O   O19       1.0  0.47256  0.30857  0.27098  1.0000
  O   O20       1.0  0.97257  0.69142  0.22902  1.0000
