data_image0
_chemical_formula_structural       Cu2H12C12N8Cl8
_chemical_formula_sum              "Cu2 H12 C12 N8 Cl8"
_cell_length_a       3.78649
_cell_length_b       10.4779
_cell_length_c       13.5489
_cell_angle_alpha    87.8258
_cell_angle_beta     87.7403
_cell_angle_gamma    80.3747

_space_group_name_H-M_alt    "P 1"
_space_group_IT_number       1

loop_
  _space_group_symop_operation_xyz
  'x, y, z'

loop_
  _atom_site_type_symbol
  _atom_site_label
  _atom_site_symmetry_multiplicity
  _atom_site_fract_x
  _atom_site_fract_y
  _atom_site_fract_z
  _atom_site_occupancy
  Cu  Cu1       1.0  0.49814  0.99975  0.25084  1.0000
  Cu  Cu2       1.0  0.50187  0.00025  0.74916  1.0000
  H   H1        1.0  0.71176  0.09679  0.44477  1.0000
  H   H2        1.0  0.28823  0.90320  0.55524  1.0000
  H   H3        1.0  0.82442  0.90832  0.05580  1.0000
  H   H4        1.0  0.17557  0.09168  0.94421  1.0000
  H   H5        1.0  0.53834  0.32226  0.51561  1.0000
  H   H6        1.0  0.46164  0.67773  0.48440  1.0000
  H   H7        1.0  0.09619  0.29053  0.22702  1.0000
  H   H8        1.0  0.90383  0.70947  0.77298  1.0000
  H   H9        1.0  0.90192  0.68069  0.98315  1.0000
  H   H10       1.0  0.09808  0.31932  0.01685  1.0000
  H   H11       1.0  0.37198  0.70372  0.27456  1.0000
  H   H12       1.0  0.62803  0.29628  0.72544  1.0000
  C   C1        1.0  0.45193  0.29459  0.44546  1.0000
  C   C2        1.0  0.54806  0.70540  0.55454  1.0000
  C   C3        1.0  0.24791  0.36399  0.37174  1.0000
  C   C4        1.0  0.75209  0.63600  0.62825  1.0000
  C   C5        1.0  0.23261  0.27689  0.29627  1.0000
  C   C6        1.0  0.76741  0.72311  0.70373  1.0000
  C   C7        1.0  0.77577  0.70648  0.05432  1.0000
  C   C8        1.0  0.22423  0.29352  0.94568  1.0000
  C   C9        1.0  0.62789  0.63420  0.12867  1.0000
  C   C10       1.0  0.37212  0.36580  0.87133  1.0000
  C   C11       1.0  0.50754  0.71995  0.20465  1.0000
  C   C12       1.0  0.49248  0.28005  0.79535  1.0000
  N   N1        1.0  0.41846  0.16131  0.32280  1.0000
  N   N2        1.0  0.58154  0.83869  0.67720  1.0000
  N   N3        1.0  0.54603  0.17319  0.41273  1.0000
  N   N4        1.0  0.45395  0.82681  0.58727  1.0000
  N   N5        1.0  0.57903  0.83794  0.17800  1.0000
  N   N6        1.0  0.42098  0.16206  0.82200  1.0000
  N   N7        1.0  0.73991  0.82760  0.08742  1.0000
  N   N8        1.0  0.26010  0.17241  0.91258  1.0000
  Cl  Cl1       1.0  0.82826  0.09938  0.12844  1.0000
  Cl  Cl2       1.0  0.17173  0.90063  0.87156  1.0000
  Cl  Cl3       1.0  0.11411  0.91512  0.36906  1.0000
  Cl  Cl4       1.0  0.88590  0.08488  0.63094  1.0000
  Cl  Cl5       1.0  0.05357  0.52320  0.37176  1.0000
  Cl  Cl6       1.0  0.94642  0.47680  0.62824  1.0000
  Cl  Cl7       1.0  0.59504  0.47366  0.12835  1.0000
  Cl  Cl8       1.0  0.40497  0.52634  0.87165  1.0000
