data_image0
_chemical_formula_structural       Mn4H28C24N36O4
_chemical_formula_sum              "Mn4 H28 C24 N36 O4"
_cell_length_a       9.52525
_cell_length_b       10.2771
_cell_length_c       10.8785
_cell_angle_alpha    100.012
_cell_angle_beta     90.0137
_cell_angle_gamma    89.9979

_space_group_name_H-M_alt    "P 1"
_space_group_IT_number       1

loop_
  _space_group_symop_operation_xyz
  'x, y, z'

loop_
  _atom_site_type_symbol
  _atom_site_label
  _atom_site_symmetry_multiplicity
  _atom_site_fract_x
  _atom_site_fract_y
  _atom_site_fract_z
  _atom_site_occupancy
  Mn  Mn1       1.0  0.87815  0.87613  0.47465  1.0000
  Mn  Mn2       1.0  0.37818  0.62384  0.52530  1.0000
  Mn  Mn3       1.0  0.12182  0.12382  0.52527  1.0000
  Mn  Mn4       1.0  0.62188  0.37609  0.47458  1.0000
  H   H1        1.0  0.56470  0.91607  0.35746  1.0000
  H   H2        1.0  0.06466  0.58391  0.64252  1.0000
  H   H3        1.0  0.43529  0.08395  0.64254  1.0000
  H   H4        1.0  0.93533  0.41609  0.35749  1.0000
  H   H5        1.0  0.57066  0.67047  0.99073  1.0000
  H   H6        1.0  0.07077  0.82953  0.00921  1.0000
  H   H7        1.0  0.42934  0.32954  0.00928  1.0000
  H   H8        1.0  0.92923  0.17049  0.99078  1.0000
  H   H9        1.0  0.43776  0.82991  0.15189  1.0000
  H   H10       1.0  0.93780  0.67009  0.84806  1.0000
  H   H11       1.0  0.56225  0.17009  0.84812  1.0000
  H   H12       1.0  0.06220  0.32991  0.15195  1.0000
  H   H13       1.0  0.19281  0.51868  0.06515  1.0000
  H   H14       1.0  0.69286  0.98136  0.93487  1.0000
  H   H15       1.0  0.80718  0.48135  0.93486  1.0000
  H   H16       1.0  0.30713  0.01865  0.06513  1.0000
  H   H17       1.0  0.18021  0.53902  0.23302  1.0000
  H   H18       1.0  0.68022  0.96097  0.76699  1.0000
  H   H19       1.0  0.81977  0.46098  0.76698  1.0000
  H   H20       1.0  0.31980  0.03901  0.23302  1.0000
  H   H21       1.0  0.23076  0.67608  0.16205  1.0000
  H   H22       1.0  0.73075  0.82393  0.83799  1.0000
  H   H23       1.0  0.76926  0.32395  0.83797  1.0000
  H   H24       1.0  0.26923  0.17608  0.16203  1.0000
  H   H25       1.0  0.10669  0.70910  0.36157  1.0000
  H   H26       1.0  0.60666  0.79089  0.63846  1.0000
  H   H27       1.0  0.89332  0.29090  0.63844  1.0000
  H   H28       1.0  0.39333  0.20907  0.36156  1.0000
  C   C1        1.0  0.80880  0.72917  0.20726  1.0000
  C   C2        1.0  0.30882  0.77083  0.79274  1.0000
  C   C3        1.0  0.19119  0.27084  0.79274  1.0000
  C   C4        1.0  0.69119  0.22916  0.20725  1.0000
  C   C5        1.0  0.61332  0.84831  0.28092  1.0000
  C   C6        1.0  0.11330  0.65169  0.71908  1.0000
  C   C7        1.0  0.38666  0.15171  0.71910  1.0000
  C   C8        1.0  0.88671  0.34832  0.28092  1.0000
  C   C9        1.0  0.95615  0.69305  0.23500  1.0000
  C   C10       1.0  0.45615  0.80695  0.76499  1.0000
  C   C11       1.0  0.04385  0.30697  0.76500  1.0000
  C   C12       1.0  0.54385  0.19304  0.23500  1.0000
  C   C13       1.0  0.61869  0.71450  0.07922  1.0000
  C   C14       1.0  0.11878  0.78552  0.92075  1.0000
  C   C15       1.0  0.38130  0.28551  0.92080  1.0000
  C   C16       1.0  0.88122  0.21450  0.07924  1.0000
  C   C17       1.0  0.54496  0.80144  0.16914  1.0000
  C   C18       1.0  0.04499  0.69857  0.83082  1.0000
  C   C19       1.0  0.45506  0.19856  0.83085  1.0000
  C   C20       1.0  0.95502  0.30144  0.16916  1.0000
  C   C21       1.0  0.16585  0.58654  0.15093  1.0000
  C   C22       1.0  0.66586  0.91349  0.84909  1.0000
  C   C23       1.0  0.83417  0.41349  0.84909  1.0000
  C   C24       1.0  0.33413  0.08652  0.15092  1.0000
  N   N1        1.0  0.80831  0.73430  0.58112  1.0000
  N   N2        1.0  0.30836  0.76573  0.41886  1.0000
  N   N3        1.0  0.19167  0.26571  0.41890  1.0000
  N   N4        1.0  0.69166  0.23428  0.58116  1.0000
  N   N5        1.0  0.03149  0.95994  0.61429  1.0000
  N   N6        1.0  0.53148  0.54007  0.38572  1.0000
  N   N7        1.0  0.96852  0.04006  0.38571  1.0000
  N   N8        1.0  0.46853  0.45994  0.61425  1.0000
  N   N9        1.0  0.74568  0.81182  0.30056  1.0000
  N   N10       1.0  0.24565  0.68817  0.69945  1.0000
  N   N11       1.0  0.25432  0.18818  0.69943  1.0000
  N   N12       1.0  0.75437  0.31182  0.30053  1.0000
  N   N13       1.0  0.80193  0.61733  0.56289  1.0000
  N   N14       1.0  0.30193  0.88270  0.43718  1.0000
  N   N15       1.0  0.19807  0.38268  0.43718  1.0000
  N   N16       1.0  0.69809  0.11730  0.56289  1.0000
  N   N17       1.0  0.79590  0.50047  0.54842  1.0000
  N   N18       1.0  0.29586  0.99956  0.45168  1.0000
  N   N19       1.0  0.20412  0.49955  0.45160  1.0000
  N   N20       1.0  0.70414  0.00044  0.54835  1.0000
  N   N21       1.0  0.75192  0.67902  0.09714  1.0000
  N   N22       1.0  0.25200  0.82100  0.90286  1.0000
  N   N23       1.0  0.24808  0.32097  0.90286  1.0000
  N   N24       1.0  0.74801  0.17901  0.09712  1.0000
  N   N25       1.0  0.00255  0.98685  0.72392  1.0000
  N   N26       1.0  0.50249  0.51321  0.27608  1.0000
  N   N27       1.0  0.99749  0.01315  0.27609  1.0000
  N   N28       1.0  0.49748  0.48680  0.72390  1.0000
  N   N29       1.0  0.97608  0.01481  0.82994  1.0000
  N   N30       1.0  0.47603  0.48523  0.17006  1.0000
  N   N31       1.0  0.02393  0.98515  0.17006  1.0000
  N   N32       1.0  0.52394  0.51474  0.82992  1.0000
  N   N33       1.0  0.00404  0.73318  0.34581  1.0000
  N   N34       1.0  0.50403  0.76679  0.65419  1.0000
  N   N35       1.0  0.99595  0.26681  0.65418  1.0000
  N   N36       1.0  0.49596  0.23318  0.34579  1.0000
  O   O1        1.0  0.01981  0.62053  0.13708  1.0000
  O   O2        1.0  0.51982  0.87952  0.86290  1.0000
  O   O3        1.0  0.98020  0.37950  0.86292  1.0000
  O   O4        1.0  0.48017  0.12048  0.13709  1.0000
