data_image0
_chemical_formula_structural       Cu12H32C48I8N20
_chemical_formula_sum              "Cu12 H32 C48 I8 N20"
_cell_length_a       9.84832
_cell_length_b       12.1806
_cell_length_c       12.857
_cell_angle_alpha    90
_cell_angle_beta     90
_cell_angle_gamma    94.5396

_space_group_name_H-M_alt    "P 1"
_space_group_IT_number       1

loop_
  _space_group_symop_operation_xyz
  'x, y, z'

loop_
  _atom_site_type_symbol
  _atom_site_label
  _atom_site_symmetry_multiplicity
  _atom_site_fract_x
  _atom_site_fract_y
  _atom_site_fract_z
  _atom_site_occupancy
  Cu  Cu1       1.0  0.17894  0.25234  0.53103  1.0000
  Cu  Cu2       1.0  0.32106  0.24766  0.03103  1.0000
  Cu  Cu3       1.0  0.82106  0.74766  0.46897  1.0000
  Cu  Cu4       1.0  0.67894  0.75234  0.96897  1.0000
  Cu  Cu5       1.0  0.46459  0.16208  0.63400  1.0000
  Cu  Cu6       1.0  0.03541  0.33792  0.13400  1.0000
  Cu  Cu7       1.0  0.53541  0.83792  0.36600  1.0000
  Cu  Cu8       1.0  0.96459  0.66208  0.86600  1.0000
  Cu  Cu9       1.0  0.98686  0.12438  0.18886  1.0000
  Cu  Cu10      1.0  0.51314  0.37562  0.68886  1.0000
  Cu  Cu11      1.0  0.01315  0.87562  0.81114  1.0000
  Cu  Cu12      1.0  0.48685  0.62438  0.31114  1.0000
  H   H1        1.0  0.25595  0.96163  0.92157  1.0000
  H   H2        1.0  0.24406  0.53837  0.42157  1.0000
  H   H3        1.0  0.74406  0.03837  0.07843  1.0000
  H   H4        1.0  0.75594  0.46163  0.57843  1.0000
  H   H5        1.0  0.43656  0.87462  0.02263  1.0000
  H   H6        1.0  0.06344  0.62538  0.52263  1.0000
  H   H7        1.0  0.56344  0.12538  0.97737  1.0000
  H   H8        1.0  0.93656  0.37462  0.47737  1.0000
  H   H9        1.0  0.65867  0.82321  0.75523  1.0000
  H   H10       1.0  0.84132  0.67678  0.25524  1.0000
  H   H11       1.0  0.34133  0.17679  0.24477  1.0000
  H   H12       1.0  0.15867  0.32322  0.74476  1.0000
  H   H13       1.0  0.48927  0.90715  0.64347  1.0000
  H   H14       1.0  0.01072  0.59285  0.14347  1.0000
  H   H15       1.0  0.51073  0.09285  0.35654  1.0000
  H   H16       1.0  0.98927  0.40715  0.85653  1.0000
  H   H17       1.0  0.93192  0.11695  0.48842  1.0000
  H   H18       1.0  0.56807  0.38304  0.98841  1.0000
  H   H19       1.0  0.06808  0.88304  0.51159  1.0000
  H   H20       1.0  0.43193  0.61696  0.01159  1.0000
  H   H21       1.0  0.68849  0.15780  0.48496  1.0000
  H   H22       1.0  0.81151  0.34219  0.98496  1.0000
  H   H23       1.0  0.31151  0.84219  0.51504  1.0000
  H   H24       1.0  0.18849  0.65780  0.01504  1.0000
  H   H25       1.0  0.64589  0.10443  0.80198  1.0000
  H   H26       1.0  0.85410  0.39556  0.30197  1.0000
  H   H27       1.0  0.35411  0.89556  0.19803  1.0000
  H   H28       1.0  0.14589  0.60444  0.69803  1.0000
  H   H29       1.0  0.88713  0.05847  0.81934  1.0000
  H   H30       1.0  0.61287  0.44154  0.31933  1.0000
  H   H31       1.0  0.11287  0.94154  0.18067  1.0000
  H   H32       1.0  0.38713  0.55847  0.68066  1.0000
  C   C1        1.0  0.25785  0.99655  0.71380  1.0000
  C   C2        1.0  0.24215  0.50345  0.21380  1.0000
  C   C3        1.0  0.74215  0.00345  0.28621  1.0000
  C   C4        1.0  0.75785  0.49655  0.78620  1.0000
  C   C5        1.0  0.07288  0.06028  0.66245  1.0000
  C   C6        1.0  0.42712  0.43972  0.16244  1.0000
  C   C7        1.0  0.92712  0.93972  0.33756  1.0000
  C   C8        1.0  0.57288  0.56028  0.83755  1.0000
  C   C9        1.0  0.35740  0.94106  0.77364  1.0000
  C   C10       1.0  0.14260  0.55894  0.27364  1.0000
  C   C11       1.0  0.64260  0.05894  0.22637  1.0000
  C   C12       1.0  0.85739  0.44106  0.72636  1.0000
  C   C13       1.0  0.34282  0.93029  0.88187  1.0000
  C   C14       1.0  0.15718  0.56971  0.38187  1.0000
  C   C15       1.0  0.65719  0.06971  0.11813  1.0000
  C   C16       1.0  0.84282  0.43029  0.61812  1.0000
  C   C17       1.0  0.44334  0.88350  0.93825  1.0000
  C   C18       1.0  0.05667  0.61650  0.43826  1.0000
  C   C19       1.0  0.55667  0.11650  0.06174  1.0000
  C   C20       1.0  0.94333  0.38351  0.56174  1.0000
  C   C21       1.0  0.56809  0.85503  0.78924  1.0000
  C   C22       1.0  0.93191  0.64497  0.28925  1.0000
  C   C23       1.0  0.43191  0.14497  0.21076  1.0000
  C   C24       1.0  0.06809  0.35504  0.71075  1.0000
  C   C25       1.0  0.47279  0.90163  0.72717  1.0000
  C   C26       1.0  0.02721  0.59836  0.22717  1.0000
  C   C27       1.0  0.52721  0.09837  0.27283  1.0000
  C   C28       1.0  0.97279  0.40164  0.77283  1.0000
  C   C29       1.0  0.93028  0.08264  0.65452  1.0000
  C   C30       1.0  0.56972  0.41737  0.15452  1.0000
  C   C31       1.0  0.06972  0.91737  0.34548  1.0000
  C   C32       1.0  0.43028  0.58264  0.84548  1.0000
  C   C33       1.0  0.87205  0.11170  0.55980  1.0000
  C   C34       1.0  0.62795  0.38830  0.05979  1.0000
  C   C35       1.0  0.12795  0.88830  0.44021  1.0000
  C   C36       1.0  0.37205  0.61170  0.94021  1.0000
  C   C37       1.0  0.73652  0.13482  0.55736  1.0000
  C   C38       1.0  0.76348  0.36517  0.05736  1.0000
  C   C39       1.0  0.26349  0.86517  0.44264  1.0000
  C   C40       1.0  0.23651  0.63483  0.94264  1.0000
  C   C41       1.0  0.71263  0.10415  0.73434  1.0000
  C   C42       1.0  0.78737  0.39584  0.23433  1.0000
  C   C43       1.0  0.28737  0.89584  0.26566  1.0000
  C   C44       1.0  0.21263  0.60416  0.76567  1.0000
  C   C45       1.0  0.84665  0.07843  0.74324  1.0000
  C   C46       1.0  0.65335  0.42158  0.24323  1.0000
  C   C47       1.0  0.15335  0.92158  0.25677  1.0000
  C   C48       1.0  0.34665  0.57843  0.75676  1.0000
  I   I1        1.0  0.43569  0.33289  0.50569  1.0000
  I   I2        1.0  0.06431  0.16711  0.00569  1.0000
  I   I3        1.0  0.56431  0.66711  0.49431  1.0000
  I   I4        1.0  0.93570  0.83289  0.99431  1.0000
  I   I5        1.0  0.09998  0.25177  0.33360  1.0000
  I   I6        1.0  0.40002  0.24823  0.83360  1.0000
  I   I7        1.0  0.90002  0.74823  0.66640  1.0000
  I   I8        1.0  0.59998  0.75177  0.16640  1.0000
  N   N1        1.0  0.17408  0.10925  0.60377  1.0000
  N   N2        1.0  0.32592  0.39075  0.10376  1.0000
  N   N3        1.0  0.82592  0.89075  0.39623  1.0000
  N   N4        1.0  0.67408  0.60925  0.89623  1.0000
  N   N5        1.0  0.29212  0.06873  0.63666  1.0000
  N   N6        1.0  0.20788  0.43127  0.13666  1.0000
  N   N7        1.0  0.70788  0.93127  0.36334  1.0000
  N   N8        1.0  0.79212  0.56872  0.86334  1.0000
  N   N9        1.0  0.12207  0.98957  0.73294  1.0000
  N   N10       1.0  0.37793  0.51043  0.23294  1.0000
  N   N11       1.0  0.87793  0.01043  0.26706  1.0000
  N   N12       1.0  0.62207  0.48957  0.76706  1.0000
  N   N13       1.0  0.55530  0.84622  0.89381  1.0000
  N   N14       1.0  0.94471  0.65378  0.39381  1.0000
  N   N15       1.0  0.44471  0.15379  0.10619  1.0000
  N   N16       1.0  0.05529  0.34622  0.60619  1.0000
  N   N17       1.0  0.65629  0.13174  0.64290  1.0000
  N   N18       1.0  0.84371  0.36826  0.14290  1.0000
  N   N19       1.0  0.34371  0.86826  0.35710  1.0000
  N   N20       1.0  0.15629  0.63174  0.85710  1.0000
