data_image0
_chemical_formula_structural       Fe2H28C40N8O4
_chemical_formula_sum              "Fe2 H28 C40 N8 O4"
_cell_length_a       7.73644
_cell_length_b       8.10248
_cell_length_c       13.0566
_cell_angle_alpha    89.9992
_cell_angle_beta     90.0013
_cell_angle_gamma    96.2344

_space_group_name_H-M_alt    "P 1"
_space_group_IT_number       1

loop_
  _space_group_symop_operation_xyz
  'x, y, z'

loop_
  _atom_site_type_symbol
  _atom_site_label
  _atom_site_symmetry_multiplicity
  _atom_site_fract_x
  _atom_site_fract_y
  _atom_site_fract_z
  _atom_site_occupancy
  Fe  Fe1       1.0  1.00000  1.00000  0.50000  1.0000
  Fe  Fe2       1.0  0.50000  0.50000  1.00000  1.0000
  H   H1        1.0  0.34949  0.27183  0.42172  1.0000
  H   H2        1.0  0.15048  0.22815  0.92173  1.0000
  H   H3        1.0  0.65050  0.72816  0.57828  1.0000
  H   H4        1.0  0.84952  0.77186  0.07827  1.0000
  H   H5        1.0  0.38304  0.57354  0.51801  1.0000
  H   H6        1.0  0.11697  0.92645  0.01805  1.0000
  H   H7        1.0  0.61697  0.42645  0.48199  1.0000
  H   H8        1.0  0.88303  0.07356  0.98195  1.0000
  H   H9        1.0  0.11922  0.56537  0.65402  1.0000
  H   H10       1.0  0.38081  0.93465  0.15406  1.0000
  H   H11       1.0  0.88079  0.43462  0.34599  1.0000
  H   H12       1.0  0.61920  0.06535  0.84594  1.0000
  H   H13       1.0  0.53942  0.25073  0.64727  1.0000
  H   H14       1.0  0.96061  0.24935  0.14724  1.0000
  H   H15       1.0  0.46058  0.74927  0.35273  1.0000
  H   H16       1.0  0.03939  0.75065  0.85276  1.0000
  H   H17       1.0  0.39165  0.36172  0.79742  1.0000
  H   H18       1.0  0.10837  0.13836  0.29738  1.0000
  H   H19       1.0  0.60836  0.63828  0.20258  1.0000
  H   H20       1.0  0.89163  0.86164  0.70262  1.0000
  H   H21       1.0  0.85835  0.47847  0.95011  1.0000
  H   H22       1.0  0.64168  0.02159  0.45010  1.0000
  H   H23       1.0  0.14165  0.52153  0.04989  1.0000
  H   H24       1.0  0.35831  0.97841  0.54990  1.0000
  H   H25       1.0  0.02794  0.38154  0.80377  1.0000
  H   H26       1.0  0.47211  0.11853  0.30378  1.0000
  H   H27       1.0  0.97206  0.61846  0.19623  1.0000
  H   H28       1.0  0.52789  0.88148  0.69622  1.0000
  C   C1        1.0  0.26782  0.31418  0.48196  1.0000
  C   C2        1.0  0.23216  0.18582  0.98198  1.0000
  C   C3        1.0  0.73217  0.68581  0.51804  1.0000
  C   C4        1.0  0.76784  0.81419  0.01802  1.0000
  C   C5        1.0  0.28509  0.47041  0.53326  1.0000
  C   C6        1.0  0.21491  0.02960  0.03329  1.0000
  C   C7        1.0  0.71490  0.52958  0.46675  1.0000
  C   C8        1.0  0.78509  0.97041  0.96670  1.0000
  C   C9        1.0  0.15028  0.46629  0.60391  1.0000
  C   C10       1.0  0.34972  0.03372  0.10393  1.0000
  C   C11       1.0  0.84972  0.53371  0.39609  1.0000
  C   C12       1.0  0.65028  0.96629  0.89606  1.0000
  C   C13       1.0  0.05397  0.30774  0.59344  1.0000
  C   C14       1.0  0.44604  0.19226  0.09344  1.0000
  C   C15       1.0  0.94603  0.69226  0.40657  1.0000
  C   C16       1.0  0.55396  0.80774  0.90656  1.0000
  C   C17       1.0  0.89450  0.23144  0.63090  1.0000
  C   C18       1.0  0.60552  0.26858  0.13090  1.0000
  C   C19       1.0  0.10549  0.76855  0.36910  1.0000
  C   C20       1.0  0.39449  0.73143  0.86910  1.0000
  C   C21       1.0  0.79777  0.30381  0.71337  1.0000
  C   C22       1.0  0.70227  0.19625  0.21336  1.0000
  C   C23       1.0  0.20223  0.69619  0.28664  1.0000
  C   C24       1.0  0.29773  0.80376  0.78664  1.0000
  C   C25       1.0  0.61591  0.29968  0.71270  1.0000
  C   C26       1.0  0.88413  0.20041  0.21268  1.0000
  C   C27       1.0  0.38408  0.70032  0.28730  1.0000
  C   C28       1.0  0.11588  0.79959  0.78732  1.0000
  C   C29       1.0  0.53214  0.36098  0.79623  1.0000
  C   C30       1.0  0.96788  0.13907  0.29620  1.0000
  C   C31       1.0  0.46786  0.63903  0.20377  1.0000
  C   C32       1.0  0.03212  0.86092  0.70380  1.0000
  C   C33       1.0  0.79397  0.42889  0.88088  1.0000
  C   C34       1.0  0.70607  0.07113  0.38086  1.0000
  C   C35       1.0  0.20603  0.57111  0.11912  1.0000
  C   C36       1.0  0.29393  0.92887  0.61913  1.0000
  C   C37       1.0  0.88675  0.37388  0.79942  1.0000
  C   C38       1.0  0.61329  0.12618  0.29942  1.0000
  C   C39       1.0  0.11324  0.62612  0.20058  1.0000
  C   C40       1.0  0.38670  0.87382  0.70058  1.0000
  N   N1        1.0  0.12924  0.21737  0.51795  1.0000
  N   N2        1.0  0.37076  0.28263  0.01795  1.0000
  N   N3        1.0  0.87076  0.78262  0.48205  1.0000
  N   N4        1.0  0.62924  0.71738  0.98204  1.0000
  N   N5        1.0  0.61835  0.42230  0.88076  1.0000
  N   N6        1.0  0.88169  0.07771  0.38073  1.0000
  N   N7        1.0  0.38165  0.57771  0.11924  1.0000
  N   N8        1.0  0.11831  0.92228  0.61927  1.0000
  O   O1        1.0  0.83267  0.09012  0.59162  1.0000
  O   O2        1.0  0.66737  0.40989  0.09162  1.0000
  O   O3        1.0  0.16733  0.90988  0.40838  1.0000
  O   O4        1.0  0.33263  0.59011  0.90838  1.0000
