data_image0
_chemical_formula_structural       K2Cr2H52C32N4O16
_chemical_formula_sum              "K2 Cr2 H52 C32 N4 O16"
_cell_length_a       7.85437
_cell_length_b       7.82407
_cell_length_c       19.707
_cell_angle_alpha    90
_cell_angle_beta     90
_cell_angle_gamma    108.031

_space_group_name_H-M_alt    "P 1"
_space_group_IT_number       1

loop_
  _space_group_symop_operation_xyz
  'x, y, z'

loop_
  _atom_site_type_symbol
  _atom_site_label
  _atom_site_symmetry_multiplicity
  _atom_site_fract_x
  _atom_site_fract_y
  _atom_site_fract_z
  _atom_site_occupancy
  K   K1        1.0  0.50001  0.50000  0.00000  1.0000
  K   K2        1.0  0.50000  1.00000  0.50000  1.0000
  Cr  Cr1       1.0  1.00000  1.00000  1.00000  1.0000
  Cr  Cr2       1.0  0.00000  0.50000  0.50000  1.0000
  H   H1        1.0  0.37441  0.01021  0.91509  1.0000
  H   H2        1.0  0.62558  0.48977  0.41509  1.0000
  H   H3        1.0  0.62559  0.98979  0.08491  1.0000
  H   H4        1.0  0.37442  0.51023  0.58491  1.0000
  H   H5        1.0  0.29219  0.77907  0.89473  1.0000
  H   H6        1.0  0.70780  0.72091  0.39473  1.0000
  H   H7        1.0  0.70781  0.22093  0.10527  1.0000
  H   H8        1.0  0.29220  0.27909  0.60527  1.0000
  H   H9        1.0  0.99934  0.08676  0.84382  1.0000
  H   H10       1.0  0.00066  0.41324  0.34382  1.0000
  H   H11       1.0  0.00066  0.91324  0.15618  1.0000
  H   H12       1.0  0.99934  0.58676  0.65618  1.0000
  H   H13       1.0  0.21257  0.06992  0.81953  1.0000
  H   H14       1.0  0.78743  0.43007  0.31953  1.0000
  H   H15       1.0  0.78742  0.93008  0.18047  1.0000
  H   H16       1.0  0.21257  0.56993  0.68047  1.0000
  H   H17       1.0  0.94370  0.59303  0.77878  1.0000
  H   H18       1.0  0.05630  0.90697  0.27878  1.0000
  H   H19       1.0  0.05630  0.40697  0.22122  1.0000
  H   H20       1.0  0.94370  0.09303  0.72122  1.0000
  H   H21       1.0  0.03186  0.82764  0.76455  1.0000
  H   H22       1.0  0.96814  0.67236  0.26455  1.0000
  H   H23       1.0  0.96814  0.17236  0.23545  1.0000
  H   H24       1.0  0.03185  0.32764  0.73545  1.0000
  H   H25       1.0  0.16845  0.70708  0.80080  1.0000
  H   H26       1.0  0.83155  0.79292  0.30080  1.0000
  H   H27       1.0  0.83155  0.29292  0.19920  1.0000
  H   H28       1.0  0.16845  0.20708  0.69920  1.0000
  H   H29       1.0  0.77504  0.87581  0.82960  1.0000
  H   H30       1.0  0.22496  0.62419  0.32960  1.0000
  H   H31       1.0  0.22496  0.12419  0.17040  1.0000
  H   H32       1.0  0.77504  0.37581  0.67040  1.0000
  H   H33       1.0  0.68508  0.64116  0.84241  1.0000
  H   H34       1.0  0.31492  0.85884  0.34241  1.0000
  H   H35       1.0  0.31492  0.35884  0.15759  1.0000
  H   H36       1.0  0.68508  0.14116  0.65759  1.0000
  H   H37       1.0  0.72348  0.79133  0.91280  1.0000
  H   H38       1.0  0.27651  0.70867  0.41280  1.0000
  H   H39       1.0  0.27652  0.20867  0.08720  1.0000
  H   H40       1.0  0.72348  0.29133  0.58720  1.0000
  H   H41       1.0  0.92037  0.59739  0.96661  1.0000
  H   H42       1.0  0.07962  0.90260  0.46661  1.0000
  H   H43       1.0  0.07963  0.40260  0.03339  1.0000
  H   H44       1.0  0.92037  0.09739  0.53339  1.0000
  H   H45       1.0  0.84604  0.46211  0.89386  1.0000
  H   H46       1.0  0.15396  0.03788  0.39386  1.0000
  H   H47       1.0  0.15396  0.53789  0.10614  1.0000
  H   H48       1.0  0.84604  0.96212  0.60614  1.0000
  H   H49       1.0  0.07715  0.54229  0.91191  1.0000
  H   H50       1.0  0.92284  0.95770  0.41191  1.0000
  H   H51       1.0  0.92285  0.45771  0.08809  1.0000
  H   H52       1.0  0.07715  0.04229  0.58809  1.0000
  C   C1        1.0  0.28154  0.84888  0.00035  1.0000
  C   C2        1.0  0.71846  0.65111  0.50035  1.0000
  C   C3        1.0  0.71846  0.15113  0.99965  1.0000
  C   C4        1.0  0.28154  0.34889  0.49965  1.0000
  C   C5        1.0  0.26504  0.88525  0.92500  1.0000
  C   C6        1.0  0.73496  0.61474  0.42500  1.0000
  C   C7        1.0  0.73496  0.11475  0.07500  1.0000
  C   C8        1.0  0.26505  0.38526  0.57500  1.0000
  C   C9        1.0  0.12630  0.07461  0.86290  1.0000
  C   C10       1.0  0.87370  0.42539  0.36290  1.0000
  C   C11       1.0  0.87369  0.92539  0.13710  1.0000
  C   C12       1.0  0.12630  0.57461  0.63710  1.0000
  C   C13       1.0  0.21467  0.24206  0.90488  1.0000
  C   C14       1.0  0.78534  0.25796  0.40488  1.0000
  C   C15       1.0  0.78533  0.75794  0.09512  1.0000
  C   C16       1.0  0.21466  0.74204  0.59512  1.0000
  C   C17       1.0  0.96336  0.74406  0.87076  1.0000
  C   C18       1.0  0.03663  0.75594  0.37076  1.0000
  C   C19       1.0  0.03664  0.25594  0.12924  1.0000
  C   C20       1.0  0.96336  0.24406  0.62924  1.0000
  C   C21       1.0  0.03284  0.71916  0.79973  1.0000
  C   C22       1.0  0.96716  0.78084  0.29973  1.0000
  C   C23       1.0  0.96716  0.28084  0.20027  1.0000
  C   C24       1.0  0.03284  0.21916  0.70027  1.0000
  C   C25       1.0  0.77647  0.76550  0.86381  1.0000
  C   C26       1.0  0.22352  0.73450  0.36382  1.0000
  C   C27       1.0  0.22353  0.23450  0.13619  1.0000
  C   C28       1.0  0.77647  0.26550  0.63618  1.0000
  C   C29       1.0  0.95268  0.57785  0.91372  1.0000
  C   C30       1.0  0.04731  0.92215  0.41372  1.0000
  C   C31       1.0  0.04731  0.42215  0.08628  1.0000
  C   C32       1.0  0.95269  0.07785  0.58628  1.0000
  N   N1        1.0  0.08951  0.91116  0.90603  1.0000
  N   N2        1.0  0.91049  0.58884  0.40603  1.0000
  N   N3        1.0  0.91049  0.08884  0.09396  1.0000
  N   N4        1.0  0.08952  0.41116  0.59396  1.0000
  O   O1        1.0  0.17460  0.89777  0.04081  1.0000
  O   O2        1.0  0.82540  0.60224  0.54081  1.0000
  O   O3        1.0  0.82540  0.10224  0.95919  1.0000
  O   O4        1.0  0.17460  0.39777  0.45919  1.0000
  O   O5        1.0  0.18752  0.22155  0.97026  1.0000
  O   O6        1.0  0.81249  0.27845  0.47026  1.0000
  O   O7        1.0  0.81248  0.77845  0.02974  1.0000
  O   O8        1.0  0.18751  0.72155  0.52974  1.0000
  O   O9        1.0  0.39815  0.78313  0.01985  1.0000
  O   O10       1.0  0.60184  0.71687  0.51984  1.0000
  O   O11       1.0  0.60185  0.21687  0.98015  1.0000
  O   O12       1.0  0.39816  0.28313  0.48015  1.0000
  O   O13       1.0  0.30433  0.38467  0.87781  1.0000
  O   O14       1.0  0.69566  0.11532  0.37781  1.0000
  O   O15       1.0  0.69567  0.61533  0.12218  1.0000
  O   O16       1.0  0.30433  0.88468  0.62219  1.0000
