data_image0
_chemical_formula_structural       Cu2H18C30N6
_chemical_formula_sum              "Cu2 H18 C30 N6"
_cell_length_a       7.97139
_cell_length_b       8.09684
_cell_length_c       10.1874
_cell_angle_alpha    110.672
_cell_angle_beta     96.5147
_cell_angle_gamma    99.5763

_space_group_name_H-M_alt    "P 1"
_space_group_IT_number       1

loop_
  _space_group_symop_operation_xyz
  'x, y, z'

loop_
  _atom_site_type_symbol
  _atom_site_label
  _atom_site_symmetry_multiplicity
  _atom_site_fract_x
  _atom_site_fract_y
  _atom_site_fract_z
  _atom_site_occupancy
  Cu  Cu1       1.0  0.10900  0.18866  0.51228  1.0000
  Cu  Cu2       1.0  0.89101  0.81134  0.48771  1.0000
  H   H1        1.0  0.35993  0.51503  0.70389  1.0000
  H   H2        1.0  0.64006  0.48497  0.29611  1.0000
  H   H3        1.0  0.78784  0.00566  0.12413  1.0000
  H   H4        1.0  0.21217  0.99435  0.87586  1.0000
  H   H5        1.0  0.41482  0.72801  0.21740  1.0000
  H   H6        1.0  0.58516  0.27198  0.78261  1.0000
  H   H7        1.0  0.45209  0.69268  0.96424  1.0000
  H   H8        1.0  0.54790  0.30732  0.03577  1.0000
  H   H9        1.0  0.26860  0.08607  0.13655  1.0000
  H   H10       1.0  0.73141  0.91393  0.86345  1.0000
  H   H11       1.0  0.98308  0.14308  0.76523  1.0000
  H   H12       1.0  0.01692  0.85692  0.23476  1.0000
  H   H13       1.0  0.93860  0.17060  0.01067  1.0000
  H   H14       1.0  0.06138  0.82939  0.98932  1.0000
  H   H15       1.0  0.26526  0.60647  0.37576  1.0000
  H   H16       1.0  0.73473  0.39352  0.62425  1.0000
  H   H17       1.0  0.02821  0.33008  0.27400  1.0000
  H   H18       1.0  0.97177  0.66991  0.72599  1.0000
  C   C1        1.0  0.29717  0.47458  0.78085  1.0000
  C   C2        1.0  0.70283  0.52543  0.21915  1.0000
  C   C3        1.0  0.43230  0.13909  0.38262  1.0000
  C   C4        1.0  0.56771  0.86091  0.61738  1.0000
  C   C5        1.0  0.66106  0.00409  0.07031  1.0000
  C   C6        1.0  0.33896  0.99592  0.92969  1.0000
  C   C7        1.0  0.31204  0.60536  0.17257  1.0000
  C   C8        1.0  0.68795  0.39464  0.82744  1.0000
  C   C9        1.0  0.73355  0.13260  0.37914  1.0000
  C   C10       1.0  0.26647  0.86741  0.62085  1.0000
  C   C11       1.0  0.34745  0.57243  0.92498  1.0000
  C   C12       1.0  0.65254  0.42757  0.07503  1.0000
  C   C13       1.0  0.56684  0.10766  0.30789  1.0000
  C   C14       1.0  0.43317  0.89234  0.69211  1.0000
  C   C15       1.0  0.37030  0.04600  0.07710  1.0000
  C   C16       1.0  0.62972  0.95400  0.92289  1.0000
  C   C17       1.0  0.13023  0.35443  0.96375  1.0000
  C   C18       1.0  0.86976  0.64557  0.03625  1.0000
  C   C19       1.0  0.26560  0.51457  0.02219  1.0000
  C   C20       1.0  0.73439  0.48543  0.97781  1.0000
  C   C21       1.0  0.53242  0.05154  0.15139  1.0000
  C   C22       1.0  0.46760  0.94845  0.84860  1.0000
  C   C23       1.0  0.08690  0.26502  0.81366  1.0000
  C   C24       1.0  0.91309  0.73498  0.18633  1.0000
  C   C25       1.0  0.04461  0.28993  0.05652  1.0000
  C   C26       1.0  0.95537  0.71007  0.94348  1.0000
  C   C27       1.0  0.22879  0.53732  0.26025  1.0000
  C   C28       1.0  0.77119  0.46267  0.73975  1.0000
  C   C29       1.0  0.09371  0.37941  0.20227  1.0000
  C   C30       1.0  0.90627  0.62059  0.79773  1.0000
  N   N1        1.0  0.16786  0.32074  0.72451  1.0000
  N   N2        1.0  0.83214  0.67927  0.27549  1.0000
  N   N3        1.0  0.30761  0.16054  0.43314  1.0000
  N   N4        1.0  0.69241  0.83947  0.56686  1.0000
  N   N5        1.0  0.87989  0.15037  0.42898  1.0000
  N   N6        1.0  0.12013  0.84963  0.57102  1.0000
