data_image0
_chemical_formula_structural       Cu2H18C26N6F4
_chemical_formula_sum              "Cu2 H18 C26 N6 F4"
_cell_length_a       7.59304
_cell_length_b       7.65112
_cell_length_c       11.2885
_cell_angle_alpha    99.5728
_cell_angle_beta     100.706
_cell_angle_gamma    101.866

_space_group_name_H-M_alt    "P 1"
_space_group_IT_number       1

loop_
  _space_group_symop_operation_xyz
  'x, y, z'

loop_
  _atom_site_type_symbol
  _atom_site_label
  _atom_site_symmetry_multiplicity
  _atom_site_fract_x
  _atom_site_fract_y
  _atom_site_fract_z
  _atom_site_occupancy
  Cu  Cu1       1.0  0.16458  0.21024  0.26394  1.0000
  Cu  Cu2       1.0  0.83542  0.78976  0.73606  1.0000
  H   H1        1.0  0.82677  0.16702  0.34797  1.0000
  H   H2        1.0  0.17323  0.83297  0.65204  1.0000
  H   H3        1.0  0.87007  0.21911  0.57888  1.0000
  H   H4        1.0  0.12993  0.78088  0.42112  1.0000
  H   H5        1.0  0.40334  0.04633  0.13991  1.0000
  H   H6        1.0  0.59666  0.95367  0.86009  1.0000
  H   H7        1.0  0.63620  0.16147  0.14921  1.0000
  H   H8        1.0  0.36380  0.83853  0.85079  1.0000
  H   H9        1.0  0.46113  0.28611  0.15323  1.0000
  H   H10       1.0  0.53888  0.71389  0.84677  1.0000
  H   H11       1.0  0.61012  0.28266  0.67251  1.0000
  H   H12       1.0  0.38987  0.71734  0.32749  1.0000
  H   H13       1.0  0.20327  0.38983  0.49866  1.0000
  H   H14       1.0  0.79673  0.61017  0.50134  1.0000
  H   H15       1.0  0.30493  0.35242  0.64531  1.0000
  H   H16       1.0  0.69507  0.64758  0.35469  1.0000
  H   H17       1.0  0.16164  0.16619  0.52919  1.0000
  H   H18       1.0  0.83835  0.83381  0.47081  1.0000
  C   C1        1.0  0.43004  0.26297  0.49681  1.0000
  C   C2        1.0  0.56996  0.73703  0.50319  1.0000
  C   C3        1.0  0.54881  0.20074  0.32043  1.0000
  C   C4        1.0  0.45119  0.79926  0.67957  1.0000
  C   C5        1.0  0.62680  0.40126  0.97757  1.0000
  C   C6        1.0  0.37320  0.59873  0.02243  1.0000
  C   C7        1.0  0.87955  0.62011  0.14639  1.0000
  C   C8        1.0  0.12045  0.37989  0.85361  1.0000
  C   C9        1.0  0.96594  0.80500  0.18538  1.0000
  C   C10       1.0  0.03406  0.19499  0.81461  1.0000
  C   C11       1.0  0.97812  0.49561  0.18076  1.0000
  C   C12       1.0  0.02188  0.50440  0.81924  1.0000
  C   C13       1.0  0.44519  0.34429  0.90981  1.0000
  C   C14       1.0  0.55481  0.65571  0.09020  1.0000
  C   C15       1.0  0.68989  0.56000  0.07138  1.0000
  C   C16       1.0  0.31010  0.43999  0.92862  1.0000
  C   C17       1.0  0.71689  0.19447  0.39272  1.0000
  C   C18       1.0  0.28311  0.80552  0.60728  1.0000
  C   C19       1.0  0.74027  0.22351  0.52041  1.0000
  C   C20       1.0  0.25973  0.77648  0.47959  1.0000
  C   C21       1.0  0.51178  0.17210  0.18303  1.0000
  C   C22       1.0  0.48822  0.82790  0.81697  1.0000
  C   C23       1.0  0.59570  0.25870  0.57304  1.0000
  C   C24       1.0  0.40429  0.74129  0.42696  1.0000
  C   C25       1.0  0.26695  0.29582  0.54587  1.0000
  C   C26       1.0  0.73305  0.70418  0.45413  1.0000
  N   N1        1.0  0.06001  0.38964  0.21196  1.0000
  N   N2        1.0  0.93999  0.61037  0.78804  1.0000
  N   N3        1.0  0.03748  0.96223  0.21771  1.0000
  N   N4        1.0  0.96253  0.03778  0.78229  1.0000
  N   N5        1.0  0.40849  0.23417  0.37254  1.0000
  N   N6        1.0  0.59151  0.76584  0.62746  1.0000
  F   F1        1.0  0.74524  0.29700  0.95164  1.0000
  F   F2        1.0  0.25477  0.70300  0.04836  1.0000
  F   F3        1.0  0.39916  0.19116  0.81848  1.0000
  F   F4        1.0  0.60084  0.80884  0.18151  1.0000
