data_image0
_chemical_formula_structural       Cu2H22C34N6
_chemical_formula_sum              "Cu2 H22 C34 N6"
_cell_length_a       7.84622
_cell_length_b       9.07628
_cell_length_c       9.79383
_cell_angle_alpha    91.6414
_cell_angle_beta     95.9917
_cell_angle_gamma    108.583

_space_group_name_H-M_alt    "P 1"
_space_group_IT_number       1

loop_
  _space_group_symop_operation_xyz
  'x, y, z'

loop_
  _atom_site_type_symbol
  _atom_site_label
  _atom_site_symmetry_multiplicity
  _atom_site_fract_x
  _atom_site_fract_y
  _atom_site_fract_z
  _atom_site_occupancy
  Cu  Cu1       1.0  0.13820  0.67205  0.48962  1.0000
  Cu  Cu2       1.0  0.86179  0.32794  0.51038  1.0000
  H   H1        1.0  0.28682  0.59946  0.11479  1.0000
  H   H2        1.0  0.71316  0.40054  0.88521  1.0000
  H   H3        1.0  0.78787  0.49598  0.12832  1.0000
  H   H4        1.0  0.21210  0.50402  0.87168  1.0000
  H   H5        1.0  0.24528  0.16840  0.45826  1.0000
  H   H6        1.0  0.75475  0.83160  0.54174  1.0000
  H   H7        1.0  0.94361  0.59606  0.72936  1.0000
  H   H8        1.0  0.05638  0.40393  0.27064  1.0000
  H   H9        1.0  0.95497  0.70740  0.96247  1.0000
  H   H10       1.0  0.04503  0.29259  0.03754  1.0000
  H   H11       1.0  0.00099  0.78548  0.15844  1.0000
  H   H12       1.0  0.99902  0.21452  0.84156  1.0000
  H   H13       1.0  0.38797  0.96212  0.64771  1.0000
  H   H14       1.0  0.61203  0.03787  0.35229  1.0000
  H   H15       1.0  0.41918  0.09056  0.87684  1.0000
  H   H16       1.0  0.58082  0.90943  0.12316  1.0000
  H   H17       1.0  0.41035  0.20020  0.05363  1.0000
  H   H18       1.0  0.58967  0.79980  0.94638  1.0000
  H   H19       1.0  0.43928  0.31311  0.28823  1.0000
  H   H20       1.0  0.56074  0.68689  0.71177  1.0000
  H   H21       1.0  0.02383  0.90512  0.38925  1.0000
  H   H22       1.0  0.97619  0.09489  0.61076  1.0000
  C   C1        1.0  0.75296  0.61509  0.35758  1.0000
  C   C2        1.0  0.24703  0.38493  0.64241  1.0000
  C   C3        1.0  0.45948  0.64428  0.35787  1.0000
  C   C4        1.0  0.54049  0.35572  0.64213  1.0000
  C   C5        1.0  0.54438  0.55654  0.14082  1.0000
  C   C6        1.0  0.45561  0.44348  0.85917  1.0000
  C   C7        1.0  0.58816  0.60948  0.28742  1.0000
  C   C8        1.0  0.41183  0.39053  0.71256  1.0000
  C   C9        1.0  0.38095  0.55534  0.06528  1.0000
  C   C10       1.0  0.61903  0.44467  0.93471  1.0000
  C   C11       1.0  0.66214  0.50007  0.07196  1.0000
  C   C12       1.0  0.33784  0.49994  0.92803  1.0000
  C   C13       1.0  0.20484  0.98214  0.08610  1.0000
  C   C14       1.0  0.79517  0.01786  0.91390  1.0000
  C   C15       1.0  0.19144  0.91090  0.94595  1.0000
  C   C16       1.0  0.80856  0.08909  0.05405  1.0000
  C   C17       1.0  0.23434  0.11650  0.35474  1.0000
  C   C18       1.0  0.76568  0.88350  0.64526  1.0000
  C   C19       1.0  0.04883  0.70500  0.76717  1.0000
  C   C20       1.0  0.95117  0.29500  0.23283  1.0000
  C   C21       1.0  0.05760  0.76863  0.89894  1.0000
  C   C22       1.0  0.94241  0.23136  0.10107  1.0000
  C   C23       1.0  0.09719  0.90189  0.18412  1.0000
  C   C24       1.0  0.90282  0.09811  0.81588  1.0000
  C   C25       1.0  0.29405  0.90932  0.72072  1.0000
  C   C26       1.0  0.70595  0.09067  0.27928  1.0000
  C   C27       1.0  0.31051  0.98072  0.85085  1.0000
  C   C28       1.0  0.68949  0.01926  0.14915  1.0000
  C   C29       1.0  0.32640  0.13223  0.12627  1.0000
  C   C30       1.0  0.67361  0.86777  0.87373  1.0000
  C   C31       1.0  0.34242  0.19776  0.25920  1.0000
  C   C32       1.0  0.65760  0.80225  0.74080  1.0000
  C   C33       1.0  0.11048  0.96901  0.31614  1.0000
  C   C34       1.0  0.88954  0.03099  0.68386  1.0000
  N   N1        1.0  0.89581  0.61499  0.40975  1.0000
  N   N2        1.0  0.10419  0.38503  0.59024  1.0000
  N   N3        1.0  0.34038  0.66943  0.40791  1.0000
  N   N4        1.0  0.65959  0.33055  0.59209  1.0000
  N   N5        1.0  0.16578  0.77226  0.67754  1.0000
  N   N6        1.0  0.83422  0.22773  0.32246  1.0000
