data_image0
_chemical_formula_structural       Cu4H24C36N12
_chemical_formula_sum              "Cu4 H24 C36 N12"
_cell_length_a       7.86279
_cell_length_b       7.89777
_cell_length_c       15.9066
_cell_angle_alpha    85.0075
_cell_angle_beta     79.8718
_cell_angle_gamma    60.0935

_space_group_name_H-M_alt    "P 1"
_space_group_IT_number       1

loop_
  _space_group_symop_operation_xyz
  'x, y, z'

loop_
  _atom_site_type_symbol
  _atom_site_label
  _atom_site_symmetry_multiplicity
  _atom_site_fract_x
  _atom_site_fract_y
  _atom_site_fract_z
  _atom_site_occupancy
  Cu  Cu1       1.0  0.92953  0.81943  0.82997  1.0000
  Cu  Cu2       1.0  0.25069  0.81947  0.67008  1.0000
  Cu  Cu3       1.0  0.07049  0.18055  0.17002  1.0000
  Cu  Cu4       1.0  0.74930  0.18053  0.32992  1.0000
  H   H1        1.0  0.38506  0.35472  0.49686  1.0000
  H   H2        1.0  0.26011  0.35480  0.00319  1.0000
  H   H3        1.0  0.61492  0.64530  0.50315  1.0000
  H   H4        1.0  0.73991  0.64518  0.99681  1.0000
  H   H5        1.0  0.66338  0.79389  0.61988  1.0000
  H   H6        1.0  0.54301  0.79380  0.88005  1.0000
  H   H7        1.0  0.33661  0.20613  0.38013  1.0000
  H   H8        1.0  0.45701  0.20620  0.11995  1.0000
  H   H9        1.0  0.15937  0.65690  0.96646  1.0000
  H   H10       1.0  0.18375  0.65698  0.53348  1.0000
  H   H11       1.0  0.84063  0.34309  0.03353  1.0000
  H   H12       1.0  0.81624  0.34303  0.46651  1.0000
  H   H13       1.0  0.83974  0.26659  0.82269  1.0000
  H   H14       1.0  0.89341  0.26686  0.67738  1.0000
  H   H15       1.0  0.16026  0.73342  0.17731  1.0000
  H   H16       1.0  0.10657  0.73313  0.32262  1.0000
  H   H17       1.0  0.68158  0.42361  0.91049  1.0000
  H   H18       1.0  0.89446  0.42363  0.58961  1.0000
  H   H19       1.0  0.31842  0.57639  0.08951  1.0000
  H   H20       1.0  0.10553  0.57636  0.41039  1.0000
  H   H21       1.0  0.63512  0.24309  0.87593  1.0000
  H   H22       1.0  0.12170  0.24302  0.62409  1.0000
  H   H23       1.0  0.36488  0.75692  0.12406  1.0000
  H   H24       1.0  0.87829  0.75697  0.37591  1.0000
  C   C1        1.0  0.43356  0.19893  0.49937  1.0000
  C   C2        1.0  0.36747  0.19899  0.00066  1.0000
  C   C3        1.0  0.56644  0.80109  0.50064  1.0000
  C   C4        1.0  0.63255  0.80100  0.99934  1.0000
  C   C5        1.0  0.59189  0.88517  0.56730  1.0000
  C   C6        1.0  0.52314  0.88512  0.93265  1.0000
  C   C7        1.0  0.40810  0.11485  0.43271  1.0000
  C   C8        1.0  0.47687  0.11487  0.06735  1.0000
  C   C9        1.0  0.55197  0.17636  0.63846  1.0000
  C   C10       1.0  0.27184  0.17637  0.86153  1.0000
  C   C11       1.0  0.44803  0.82366  0.36155  1.0000
  C   C12       1.0  0.72818  0.82361  0.13847  1.0000
  C   C13       1.0  0.08811  0.81165  0.98181  1.0000
  C   C14       1.0  0.10027  0.81170  0.51816  1.0000
  C   C15       1.0  0.91189  0.18835  0.01818  1.0000
  C   C16       1.0  0.89972  0.18830  0.48183  1.0000
  C   C17       1.0  0.66990  0.06365  0.69895  1.0000
  C   C18       1.0  0.26652  0.06364  0.80106  1.0000
  C   C19       1.0  0.33010  0.93633  0.30105  1.0000
  C   C20       1.0  0.73350  0.93633  0.19894  1.0000
  C   C21       1.0  0.52545  0.08692  0.56835  1.0000
  C   C22       1.0  0.38771  0.08693  0.93163  1.0000
  C   C23       1.0  0.47455  0.91310  0.43165  1.0000
  C   C24       1.0  0.61231  0.91306  0.06837  1.0000
  C   C25       1.0  0.46233  0.37746  0.64737  1.0000
  C   C26       1.0  0.16023  0.37748  0.85263  1.0000
  C   C27       1.0  0.53768  0.62254  0.35264  1.0000
  C   C28       1.0  0.83977  0.62252  0.14736  1.0000
  C   C29       1.0  0.88016  0.12968  0.94496  1.0000
  C   C30       1.0  0.99001  0.12971  0.55507  1.0000
  C   C31       1.0  0.11985  0.87031  0.05503  1.0000
  C   C32       1.0  0.00997  0.87029  0.44493  1.0000
  C   C33       1.0  0.75127  0.27475  0.88553  1.0000
  C   C34       1.0  0.97377  0.27481  0.61452  1.0000
  C   C35       1.0  0.24872  0.72526  0.11446  1.0000
  C   C36       1.0  0.02622  0.72518  0.38548  1.0000
  N   N1        1.0  0.97042  0.93645  0.92718  1.0000
  N   N2        1.0  0.09303  0.93652  0.57284  1.0000
  N   N3        1.0  0.02958  0.06355  0.07282  1.0000
  N   N4        1.0  0.90696  0.06349  0.42716  1.0000
  N   N5        1.0  0.77499  0.96630  0.74868  1.0000
  N   N6        1.0  0.25860  0.96637  0.75134  1.0000
  N   N7        1.0  0.22502  0.03369  0.25132  1.0000
  N   N8        1.0  0.74140  0.03362  0.24866  1.0000
  N   N9        1.0  0.38739  0.54830  0.65454  1.0000
  N   N10       1.0  0.06439  0.54829  0.84543  1.0000
  N   N11       1.0  0.61260  0.45172  0.34546  1.0000
  N   N12       1.0  0.93564  0.45168  0.15456  1.0000
