data_image0
_chemical_formula_structural       Co2H16C16O12
_chemical_formula_sum              "Co2 H16 C16 O12"
_cell_length_a       6.466
_cell_length_b       7.47362
_cell_length_c       9.48882
_cell_angle_alpha    98.5135
_cell_angle_beta     110.373
_cell_angle_gamma    91.5845

_space_group_name_H-M_alt    "P 1"
_space_group_IT_number       1

loop_
  _space_group_symop_operation_xyz
  'x, y, z'

loop_
  _atom_site_type_symbol
  _atom_site_label
  _atom_site_symmetry_multiplicity
  _atom_site_fract_x
  _atom_site_fract_y
  _atom_site_fract_z
  _atom_site_occupancy
  Co  Co1       1.0  0.50000  0.00001  0.50000  1.0000
  Co  Co2       1.0  1.00000  0.49999  0.50000  1.0000
  H   H1        1.0  0.40295  0.08359  0.14234  1.0000
  H   H2        1.0  0.74288  0.55839  0.14224  1.0000
  H   H3        1.0  0.59705  0.91643  0.85764  1.0000
  H   H4        1.0  0.25713  0.44159  0.85778  1.0000
  H   H5        1.0  0.72968  0.10631  0.11969  1.0000
  H   H6        1.0  0.39018  0.63248  0.11740  1.0000
  H   H7        1.0  0.27032  0.89370  0.88030  1.0000
  H   H8        1.0  0.60983  0.36751  0.88261  1.0000
  H   H9        1.0  0.83300  0.10468  0.46869  1.0000
  H   H10       1.0  0.62568  0.60220  0.46026  1.0000
  H   H11       1.0  0.16700  0.89532  0.53132  1.0000
  H   H12       1.0  0.37432  0.39780  0.53975  1.0000
  H   H13       1.0  0.79081  0.89464  0.38587  1.0000
  H   H14       1.0  0.55984  0.39446  0.37727  1.0000
  H   H15       1.0  0.20918  0.10537  0.61414  1.0000
  H   H16       1.0  0.44014  0.60554  0.62273  1.0000
  C   C1        1.0  0.07284  0.10657  0.14450  1.0000
  C   C2        1.0  0.07429  0.60857  0.14485  1.0000
  C   C3        1.0  0.92716  0.89344  0.85549  1.0000
  C   C4        1.0  0.92571  0.39143  0.85515  1.0000
  C   C5        1.0  0.22723  0.04779  0.07836  1.0000
  C   C6        1.0  0.85369  0.53380  0.07867  1.0000
  C   C7        1.0  0.77276  0.95222  0.92163  1.0000
  C   C8        1.0  0.14631  0.46619  0.92134  1.0000
  C   C9        1.0  0.84577  0.05816  0.06561  1.0000
  C   C10       1.0  0.21970  0.57347  0.06494  1.0000
  C   C11       1.0  0.15424  0.94184  0.93437  1.0000
  C   C12       1.0  0.78030  0.42653  0.93507  1.0000
  C   C13       1.0  0.14586  0.22413  0.29642  1.0000
  C   C14       1.0  0.15316  0.72820  0.29629  1.0000
  C   C15       1.0  0.85415  0.77588  0.70357  1.0000
  C   C16       1.0  0.84684  0.27179  0.70371  1.0000
  O   O1        1.0  0.35210  0.24128  0.38374  1.0000
  O   O2        1.0  0.03609  0.73714  0.38305  1.0000
  O   O3        1.0  0.64790  0.75873  0.61625  1.0000
  O   O4        1.0  0.96394  0.26285  0.61697  1.0000
  O   O5        1.0  0.99657  0.30312  0.33383  1.0000
  O   O6        1.0  0.33882  0.82038  0.33201  1.0000
  O   O7        1.0  0.00343  0.69688  0.66617  1.0000
  O   O8        1.0  0.66117  0.17964  0.66799  1.0000
  O   O9        1.0  0.71703  0.00607  0.39923  1.0000
  O   O10       1.0  0.66264  0.50235  0.39227  1.0000
  O   O11       1.0  0.28296  0.99394  0.60077  1.0000
  O   O12       1.0  0.33736  0.49764  0.60774  1.0000
