data_image0
_chemical_formula_structural       Li4H44C32N8O8
_chemical_formula_sum              "Li4 H44 C32 N8 O8"
_cell_length_a       9.30049
_cell_length_b       9.5457
_cell_length_c       10.4729
_cell_angle_alpha    90.0001
_cell_angle_beta     90
_cell_angle_gamma    98.0148

_space_group_name_H-M_alt    "P 1"
_space_group_IT_number       1

loop_
  _space_group_symop_operation_xyz
  'x, y, z'

loop_
  _atom_site_type_symbol
  _atom_site_label
  _atom_site_symmetry_multiplicity
  _atom_site_fract_x
  _atom_site_fract_y
  _atom_site_fract_z
  _atom_site_occupancy
  Li  Li1       1.0  0.92389  0.72137  0.17273  1.0000
  Li  Li2       1.0  0.07611  0.27863  0.67273  1.0000
  Li  Li3       1.0  0.65274  0.75057  0.24738  1.0000
  Li  Li4       1.0  0.34726  0.24943  0.74738  1.0000
  H   H1        1.0  0.10931  0.83230  0.42171  1.0000
  H   H2        1.0  0.89068  0.16769  0.92171  1.0000
  H   H3        1.0  0.44714  0.63201  0.07512  1.0000
  H   H4        1.0  0.55286  0.36798  0.57512  1.0000
  H   H5        1.0  0.84037  0.47653  0.95086  1.0000
  H   H6        1.0  0.15963  0.52348  0.45087  1.0000
  H   H7        1.0  0.67383  0.94148  0.44570  1.0000
  H   H8        1.0  0.32617  0.05852  0.94570  1.0000
  H   H9        1.0  0.68675  0.31120  0.80664  1.0000
  H   H10       1.0  0.31326  0.68880  0.30663  1.0000
  H   H11       1.0  0.31046  0.45311  0.93116  1.0000
  H   H12       1.0  0.68954  0.54689  0.43116  1.0000
  H   H13       1.0  0.18689  0.03476  0.56982  1.0000
  H   H14       1.0  0.81311  0.96524  0.06983  1.0000
  H   H15       1.0  0.62777  0.10034  0.09908  1.0000
  H   H16       1.0  0.37222  0.89966  0.59908  1.0000
  H   H17       1.0  0.54973  0.29733  0.12067  1.0000
  H   H18       1.0  0.45027  0.70267  0.62067  1.0000
  H   H19       1.0  0.47608  0.34023  0.27108  1.0000
  H   H20       1.0  0.52392  0.65977  0.77108  1.0000
  H   H21       1.0  0.35890  0.26656  0.14529  1.0000
  H   H22       1.0  0.64110  0.73344  0.64529  1.0000
  H   H23       1.0  0.16918  0.41648  0.12354  1.0000
  H   H24       1.0  0.83082  0.58352  0.62354  1.0000
  H   H25       1.0  0.77059  0.13814  0.59176  1.0000
  H   H26       1.0  0.22941  0.86186  0.09176  1.0000
  H   H27       1.0  0.41191  0.96311  0.36762  1.0000
  H   H28       1.0  0.58809  0.03690  0.86762  1.0000
  H   H29       1.0  0.26880  0.05219  0.30954  1.0000
  H   H30       1.0  0.73120  0.94781  0.80954  1.0000
  H   H31       1.0  0.39518  0.13915  0.42214  1.0000
  H   H32       1.0  0.60483  0.86086  0.92213  1.0000
  H   H33       1.0  0.85394  0.50491  0.29297  1.0000
  H   H34       1.0  0.14606  0.49509  0.79297  1.0000
  H   H35       1.0  0.89569  0.39246  0.42125  1.0000
  H   H36       1.0  0.10431  0.60754  0.92125  1.0000
  H   H37       1.0  0.77919  0.32175  0.29473  1.0000
  H   H38       1.0  0.22081  0.67825  0.79474  1.0000
  H   H39       1.0  0.12610  0.20631  0.20153  1.0000
  H   H40       1.0  0.87390  0.79369  0.70153  1.0000
  H   H41       1.0  0.95229  0.14410  0.26579  1.0000
  H   H42       1.0  0.04771  0.85590  0.76579  1.0000
  H   H43       1.0  0.09137  0.22649  0.36901  1.0000
  H   H44       1.0  0.90863  0.77351  0.86901  1.0000
  C   C1        1.0  0.03088  0.89764  0.45791  1.0000
  C   C2        1.0  0.96912  0.10236  0.95791  1.0000
  C   C3        1.0  0.50466  0.56279  0.01700  1.0000
  C   C4        1.0  0.49534  0.43720  0.51701  1.0000
  C   C5        1.0  0.72312  0.47633  0.94785  1.0000
  C   C6        1.0  0.27688  0.52367  0.44785  1.0000
  C   C7        1.0  0.78848  0.95775  0.47187  1.0000
  C   C8        1.0  0.21152  0.04225  0.97187  1.0000
  C   C9        1.0  0.88346  0.86872  0.41671  1.0000
  C   C10       1.0  0.11654  0.13128  0.91671  1.0000
  C   C11       1.0  0.65905  0.57282  0.02704  1.0000
  C   C12       1.0  0.34095  0.42718  0.52704  1.0000
  C   C13       1.0  0.63679  0.38321  0.86864  1.0000
  C   C14       1.0  0.36322  0.61679  0.36864  1.0000
  C   C15       1.0  0.42874  0.46403  0.93651  1.0000
  C   C16       1.0  0.57126  0.53596  0.43651  1.0000
  C   C17       1.0  0.07349  0.00931  0.54018  1.0000
  C   C18       1.0  0.92651  0.99069  0.04018  1.0000
  C   C19       1.0  0.56258  0.04267  0.17614  1.0000
  C   C20       1.0  0.43742  0.95733  0.67614  1.0000
  C   C21       1.0  0.46477  0.26493  0.19140  1.0000
  C   C22       1.0  0.53523  0.73507  0.69140  1.0000
  C   C23       1.0  0.07776  0.45906  0.17025  1.0000
  C   C24       1.0  0.92224  0.54094  0.67025  1.0000
  C   C25       1.0  0.84258  0.06709  0.55306  1.0000
  C   C26       1.0  0.15742  0.93291  0.05306  1.0000
  C   C27       1.0  0.38280  0.06631  0.34041  1.0000
  C   C28       1.0  0.61720  0.93370  0.84041  1.0000
  C   C29       1.0  0.87507  0.39849  0.31798  1.0000
  C   C30       1.0  0.12493  0.60151  0.81798  1.0000
  C   C31       1.0  0.04543  0.22799  0.27240  1.0000
  C   C32       1.0  0.95457  0.77202  0.77240  1.0000
  N   N1        1.0  0.49055  0.37394  0.86106  1.0000
  N   N2        1.0  0.50945  0.62605  0.36106  1.0000
  N   N3        1.0  0.98352  0.09622  0.58784  1.0000
  N   N4        1.0  0.01647  0.90378  0.08784  1.0000
  N   N5        1.0  0.47733  0.12323  0.23680  1.0000
  N   N6        1.0  0.52267  0.87677  0.73680  1.0000
  N   N7        1.0  0.99955  0.36465  0.24646  1.0000
  N   N8        1.0  0.00044  0.63535  0.74647  1.0000
  O   O1        1.0  0.83902  0.77066  0.33442  1.0000
  O   O2        1.0  0.16098  0.22933  0.83442  1.0000
  O   O3        1.0  0.05507  0.58296  0.14965  1.0000
  O   O4        1.0  0.94492  0.41704  0.64965  1.0000
  O   O5        1.0  0.73363  0.66193  0.10305  1.0000
  O   O6        1.0  0.26637  0.33808  0.60306  1.0000
  O   O7        1.0  0.57143  0.91667  0.20114  1.0000
  O   O8        1.0  0.42857  0.08333  0.70114  1.0000
