data_image0
_chemical_formula_structural       Li4H32C28N4O8
_chemical_formula_sum              "Li4 H32 C28 N4 O8"
_cell_length_a       6.99633
_cell_length_b       11.7323
_cell_length_c       12.5407
_cell_angle_alpha    89.9993
_cell_angle_beta     89.9976
_cell_angle_gamma    89.5729

_space_group_name_H-M_alt    "P 1"
_space_group_IT_number       1

loop_
  _space_group_symop_operation_xyz
  'x, y, z'

loop_
  _atom_site_type_symbol
  _atom_site_label
  _atom_site_symmetry_multiplicity
  _atom_site_fract_x
  _atom_site_fract_y
  _atom_site_fract_z
  _atom_site_occupancy
  Li  Li1       1.0  0.39545  0.57508  0.94830  1.0000
  Li  Li2       1.0  0.60455  0.92491  0.44831  1.0000
  Li  Li3       1.0  0.60455  0.42492  0.05169  1.0000
  Li  Li4       1.0  0.39544  0.07509  0.55169  1.0000
  H   H1        1.0  0.63040  0.21610  0.91716  1.0000
  H   H2        1.0  0.36957  0.28389  0.41717  1.0000
  H   H3        1.0  0.36960  0.78390  0.08285  1.0000
  H   H4        1.0  0.63043  0.71613  0.58283  1.0000
  H   H5        1.0  0.28004  0.45318  0.73730  1.0000
  H   H6        1.0  0.71999  0.04682  0.23729  1.0000
  H   H7        1.0  0.71996  0.54682  0.26270  1.0000
  H   H8        1.0  0.28000  0.95317  0.76270  1.0000
  H   H9        1.0  0.25913  0.30610  0.59549  1.0000
  H   H10       1.0  0.74086  0.19391  0.09549  1.0000
  H   H11       1.0  0.74087  0.69389  0.40451  1.0000
  H   H12       1.0  0.25914  0.80609  0.90451  1.0000
  H   H13       1.0  0.60020  0.08053  0.76594  1.0000
  H   H14       1.0  0.39977  0.41945  0.26595  1.0000
  H   H15       1.0  0.39981  0.91946  0.23407  1.0000
  H   H16       1.0  0.60024  0.58056  0.73404  1.0000
  H   H17       1.0  0.02960  0.60269  0.83425  1.0000
  H   H18       1.0  0.97041  0.89731  0.33425  1.0000
  H   H19       1.0  0.97038  0.39732  0.16576  1.0000
  H   H20       1.0  0.02961  0.10268  0.66575  1.0000
  H   H21       1.0  0.84334  0.61893  0.93198  1.0000
  H   H22       1.0  0.15667  0.88107  0.43197  1.0000
  H   H23       1.0  0.15665  0.38108  0.06802  1.0000
  H   H24       1.0  0.84335  0.11892  0.56803  1.0000
  H   H25       1.0  0.93313  0.60224  0.11778  1.0000
  H   H26       1.0  0.06685  0.89776  0.61778  1.0000
  H   H27       1.0  0.06685  0.39778  0.88223  1.0000
  H   H28       1.0  0.93316  0.10223  0.38223  1.0000
  H   H29       1.0  0.18007  0.57443  0.14776  1.0000
  H   H30       1.0  0.81992  0.92557  0.64777  1.0000
  H   H31       1.0  0.81993  0.42557  0.85224  1.0000
  H   H32       1.0  0.18009  0.07443  0.35223  1.0000
  C   C1        1.0  0.45503  0.34802  0.84299  1.0000
  C   C2        1.0  0.54495  0.15196  0.34299  1.0000
  C   C3        1.0  0.54497  0.65197  0.15701  1.0000
  C   C4        1.0  0.45504  0.84804  0.65700  1.0000
  C   C5        1.0  0.54684  0.23919  0.84691  1.0000
  C   C6        1.0  0.45311  0.26079  0.34691  1.0000
  C   C7        1.0  0.45316  0.76080  0.15309  1.0000
  C   C8        1.0  0.54687  0.73922  0.65309  1.0000
  C   C9        1.0  0.35060  0.37070  0.74755  1.0000
  C   C10       1.0  0.64940  0.12930  0.24754  1.0000
  C   C11       1.0  0.64940  0.62930  0.25245  1.0000
  C   C12       1.0  0.35060  0.87070  0.75246  1.0000
  C   C13       1.0  0.34118  0.28902  0.66812  1.0000
  C   C14       1.0  0.65878  0.21097  0.16812  1.0000
  C   C15       1.0  0.65882  0.71096  0.33188  1.0000
  C   C16       1.0  0.34122  0.78904  0.83188  1.0000
  C   C17       1.0  0.52978  0.16403  0.76246  1.0000
  C   C18       1.0  0.47019  0.33596  0.26247  1.0000
  C   C19       1.0  0.47022  0.83596  0.23754  1.0000
  C   C20       1.0  0.52981  0.66404  0.73752  1.0000
  C   C21       1.0  0.97521  0.57180  0.91113  1.0000
  C   C22       1.0  0.02480  0.92820  0.41113  1.0000
  C   C23       1.0  0.02478  0.42821  0.08888  1.0000
  C   C24       1.0  0.97522  0.07179  0.58887  1.0000
  C   C25       1.0  0.06259  0.55531  0.09277  1.0000
  C   C26       1.0  0.93740  0.94469  0.59277  1.0000
  C   C27       1.0  0.93739  0.44470  0.90724  1.0000
  C   C28       1.0  0.06262  0.05530  0.40723  1.0000
  N   N1        1.0  0.42775  0.18573  0.67296  1.0000
  N   N2        1.0  0.57221  0.31426  0.17296  1.0000
  N   N3        1.0  0.57225  0.81426  0.32704  1.0000
  N   N4        1.0  0.42778  0.68574  0.82704  1.0000
  O   O1        1.0  0.46657  0.42122  0.92039  1.0000
  O   O2        1.0  0.53342  0.07876  0.42039  1.0000
  O   O3        1.0  0.53342  0.57878  0.07960  1.0000
  O   O4        1.0  0.46659  0.92124  0.57960  1.0000
  O   O5        1.0  0.12071  0.59632  0.98927  1.0000
  O   O6        1.0  0.87929  0.90368  0.48927  1.0000
  O   O7        1.0  0.87928  0.40369  0.01073  1.0000
  O   O8        1.0  0.12072  0.09632  0.51073  1.0000
