data_image0
_chemical_formula_structural       Co3H24C40S2N6O12
_chemical_formula_sum              "Co3 H24 C40 S2 N6 O12"
_cell_length_a       9.05371
_cell_length_b       11.7491
_cell_length_c       11.4386
_cell_angle_alpha    115.235
_cell_angle_beta     99.1753
_cell_angle_gamma    105.247

_space_group_name_H-M_alt    "P 1"
_space_group_IT_number       1

loop_
  _space_group_symop_operation_xyz
  'x, y, z'

loop_
  _atom_site_type_symbol
  _atom_site_label
  _atom_site_symmetry_multiplicity
  _atom_site_fract_x
  _atom_site_fract_y
  _atom_site_fract_z
  _atom_site_occupancy
  Co  Co1       1.0  0.49999  0.00000  0.50000  1.0000
  Co  Co2       1.0  0.87866  0.99956  0.61204  1.0000
  Co  Co3       1.0  0.12134  0.00044  0.38797  1.0000
  H   H1        1.0  0.00297  0.29496  0.00246  1.0000
  H   H2        1.0  0.99703  0.70504  0.99754  1.0000
  H   H3        1.0  0.02309  0.45883  0.24000  1.0000
  H   H4        1.0  0.97692  0.54117  0.76000  1.0000
  H   H5        1.0  0.64546  0.55983  0.07736  1.0000
  H   H6        1.0  0.35455  0.44018  0.92265  1.0000
  H   H7        1.0  0.61999  0.38855  0.83953  1.0000
  H   H8        1.0  0.38001  0.61145  0.16048  1.0000
  H   H9        1.0  0.69006  0.25409  0.45623  1.0000
  H   H10       1.0  0.30993  0.74591  0.54377  1.0000
  H   H11       1.0  0.88133  0.43298  0.43479  1.0000
  H   H12       1.0  0.11866  0.56701  0.56521  1.0000
  H   H13       1.0  0.48849  0.53205  0.29116  1.0000
  H   H14       1.0  0.51151  0.46795  0.70884  1.0000
  H   H15       1.0  0.29479  0.34817  0.31021  1.0000
  H   H16       1.0  0.70521  0.65184  0.68978  1.0000
  H   H17       1.0  0.39713  0.92039  0.15587  1.0000
  H   H18       1.0  0.60286  0.07961  0.84412  1.0000
  H   H19       1.0  0.44034  0.85875  0.93130  1.0000
  H   H20       1.0  0.55966  0.14124  0.06869  1.0000
  H   H21       1.0  0.70720  0.86929  0.90226  1.0000
  H   H22       1.0  0.29280  0.13071  0.09774  1.0000
  H   H23       1.0  0.94125  0.93103  0.09642  1.0000
  H   H24       1.0  0.05876  0.06897  0.90358  1.0000
  C   C1        1.0  0.78434  0.22141  0.76856  1.0000
  C   C2        1.0  0.21565  0.77859  0.23144  1.0000
  C   C3        1.0  0.80929  0.33204  0.90837  1.0000
  C   C4        1.0  0.19071  0.66796  0.09163  1.0000
  C   C5        1.0  0.92454  0.35257  0.02034  1.0000
  C   C6        1.0  0.07547  0.64744  0.97965  1.0000
  C   C7        1.0  0.93565  0.44311  0.15182  1.0000
  C   C8        1.0  0.06436  0.55690  0.84818  1.0000
  C   C9        1.0  0.83204  0.51435  0.16977  1.0000
  C   C10       1.0  0.16797  0.48565  0.83023  1.0000
  C   C11       1.0  0.72113  0.49967  0.05914  1.0000
  C   C12       1.0  0.27887  0.50034  0.94087  1.0000
  C   C13       1.0  0.70931  0.40718  0.92823  1.0000
  C   C14       1.0  0.29069  0.59283  0.07178  1.0000
  C   C15       1.0  0.36637  0.17686  0.38801  1.0000
  C   C16       1.0  0.63363  0.82314  0.61200  1.0000
  C   C17       1.0  0.48059  0.28871  0.38109  1.0000
  C   C18       1.0  0.51941  0.71130  0.61892  1.0000
  C   C19       1.0  0.64601  0.31356  0.41825  1.0000
  C   C20       1.0  0.35399  0.68644  0.58175  1.0000
  C   C21       1.0  0.75336  0.41482  0.40723  1.0000
  C   C22       1.0  0.24664  0.58517  0.59276  1.0000
  C   C23       1.0  0.69429  0.49110  0.35996  1.0000
  C   C24       1.0  0.30571  0.50889  0.64004  1.0000
  C   C25       1.0  0.53014  0.46886  0.32474  1.0000
  C   C26       1.0  0.46986  0.53114  0.67525  1.0000
  C   C27       1.0  0.42327  0.36739  0.33574  1.0000
  C   C28       1.0  0.57673  0.63261  0.66426  1.0000
  C   C29       1.0  0.64306  0.95005  0.25128  1.0000
  C   C30       1.0  0.35693  0.04995  0.74871  1.0000
  C   C31       1.0  0.51306  0.91905  0.14288  1.0000
  C   C32       1.0  0.48694  0.08095  0.85712  1.0000
  C   C33       1.0  0.53925  0.88667  0.01848  1.0000
  C   C34       1.0  0.46074  0.11333  0.98152  1.0000
  C   C35       1.0  0.69231  0.89199  0.00144  1.0000
  C   C36       1.0  0.30769  0.10801  0.99855  1.0000
  C   C37       1.0  0.82285  0.92603  0.10785  1.0000
  C   C38       1.0  0.17715  0.07397  0.89215  1.0000
  C   C39       1.0  0.79478  0.95237  0.23248  1.0000
  C   C40       1.0  0.20521  0.04764  0.76753  1.0000
  S   S1        1.0  0.82942  0.61533  0.33704  1.0000
  S   S2        1.0  0.17058  0.38467  0.66296  1.0000
  N   N1        1.0  0.65730  0.97752  0.38244  1.0000
  N   N2        1.0  0.34269  0.02248  0.61756  1.0000
  N   N3        1.0  0.80739  0.99359  0.43841  1.0000
  N   N4        1.0  0.19260  0.00641  0.56159  1.0000
  N   N5        1.0  0.89371  0.98081  0.35247  1.0000
  N   N6        1.0  0.10628  0.01919  0.64753  1.0000
  O   O1        1.0  0.66860  0.19360  0.67098  1.0000
  O   O2        1.0  0.33139  0.80640  0.32902  1.0000
  O   O3        1.0  0.88361  0.15939  0.76351  1.0000
  O   O4        1.0  0.11638  0.84060  0.23649  1.0000
  O   O5        1.0  0.21563  0.15697  0.36017  1.0000
  O   O6        1.0  0.78436  0.84303  0.63984  1.0000
  O   O7        1.0  0.41862  0.09925  0.41782  1.0000
  O   O8        1.0  0.58138  0.90075  0.58218  1.0000
  O   O9        1.0  0.75211  0.70771  0.33309  1.0000
  O   O10       1.0  0.24793  0.29230  0.66693  1.0000
  O   O11       1.0  0.98807  0.66451  0.43177  1.0000
  O   O12       1.0  0.01195  0.33547  0.56824  1.0000
