data_image0
_chemical_formula_structural       Cu4H60C40S8N20Cl4
_chemical_formula_sum              "Cu4 H60 C40 S8 N20 Cl4"
_cell_length_a       10.0866
_cell_length_b       10.5028
_cell_length_c       13.435
_cell_angle_alpha    90
_cell_angle_beta     103.116
_cell_angle_gamma    90

_space_group_name_H-M_alt    "P 1"
_space_group_IT_number       1

loop_
  _space_group_symop_operation_xyz
  'x, y, z'

loop_
  _atom_site_type_symbol
  _atom_site_label
  _atom_site_symmetry_multiplicity
  _atom_site_fract_x
  _atom_site_fract_y
  _atom_site_fract_z
  _atom_site_occupancy
  Cu  Cu1       1.0  0.76752  0.18474  0.13876  1.0000
  Cu  Cu2       1.0  0.23248  0.68474  0.36124  1.0000
  Cu  Cu3       1.0  0.23247  0.81526  0.86124  1.0000
  Cu  Cu4       1.0  0.76753  0.31526  0.63876  1.0000
  H   H1        1.0  0.63395  0.90757  0.43505  1.0000
  H   H2        1.0  0.36605  0.40757  0.06495  1.0000
  H   H3        1.0  0.36605  0.09243  0.56495  1.0000
  H   H4        1.0  0.63395  0.59243  0.93505  1.0000
  H   H5        1.0  0.67904  0.71373  0.74337  1.0000
  H   H6        1.0  0.32096  0.21373  0.75663  1.0000
  H   H7        1.0  0.32096  0.28627  0.25663  1.0000
  H   H8        1.0  0.67904  0.78627  0.24337  1.0000
  H   H9        1.0  0.70129  0.55131  0.72214  1.0000
  H   H10       1.0  0.29871  0.05131  0.77786  1.0000
  H   H11       1.0  0.29871  0.44869  0.27786  1.0000
  H   H12       1.0  0.70130  0.94869  0.22214  1.0000
  H   H13       1.0  0.64270  0.29310  0.40744  1.0000
  H   H14       1.0  0.35731  0.79309  0.09256  1.0000
  H   H15       1.0  0.35730  0.70690  0.59256  1.0000
  H   H16       1.0  0.64270  0.20690  0.90744  1.0000
  H   H17       1.0  0.53834  0.54907  0.21328  1.0000
  H   H18       1.0  0.46166  0.04907  0.28672  1.0000
  H   H19       1.0  0.46166  0.45092  0.78672  1.0000
  H   H20       1.0  0.53834  0.95093  0.71328  1.0000
  H   H21       1.0  0.55072  0.38109  0.23332  1.0000
  H   H22       1.0  0.44928  0.88109  0.26668  1.0000
  H   H23       1.0  0.44928  0.61891  0.76668  1.0000
  H   H24       1.0  0.55072  0.11891  0.73332  1.0000
  H   H25       1.0  0.81365  0.41400  0.28031  1.0000
  H   H26       1.0  0.18635  0.91400  0.21969  1.0000
  H   H27       1.0  0.18635  0.58600  0.71969  1.0000
  H   H28       1.0  0.81365  0.08600  0.78031  1.0000
  H   H29       1.0  0.78079  0.56707  0.21941  1.0000
  H   H30       1.0  0.21921  0.06706  0.28059  1.0000
  H   H31       1.0  0.21921  0.43293  0.78059  1.0000
  H   H32       1.0  0.78079  0.93293  0.71941  1.0000
  H   H33       1.0  0.87578  0.42797  0.99302  1.0000
  H   H34       1.0  0.12422  0.92797  0.50698  1.0000
  H   H35       1.0  0.12422  0.57203  0.00698  1.0000
  H   H36       1.0  0.87578  0.07203  0.49302  1.0000
  H   H37       1.0  0.89678  0.54726  0.08939  1.0000
  H   H38       1.0  0.10322  0.04726  0.41061  1.0000
  H   H39       1.0  0.10322  0.45274  0.91061  1.0000
  H   H40       1.0  0.89678  0.95274  0.58939  1.0000
  H   H41       1.0  0.01963  0.39338  0.22110  1.0000
  H   H42       1.0  0.98038  0.89338  0.27890  1.0000
  H   H43       1.0  0.98038  0.60662  0.77890  1.0000
  H   H44       1.0  0.01963  0.10662  0.72110  1.0000
  H   H45       1.0  0.10183  0.40366  0.11889  1.0000
  H   H46       1.0  0.89817  0.90365  0.38111  1.0000
  H   H47       1.0  0.89817  0.59635  0.88111  1.0000
  H   H48       1.0  0.10183  0.09635  0.61889  1.0000
  H   H49       1.0  0.91648  0.24248  0.94547  1.0000
  H   H50       1.0  0.08352  0.74248  0.55453  1.0000
  H   H51       1.0  0.08352  0.75752  0.05453  1.0000
  H   H52       1.0  0.91647  0.25752  0.44547  1.0000
  H   H53       1.0  0.97467  0.08439  0.97431  1.0000
  H   H54       1.0  0.02533  0.58439  0.52569  1.0000
  H   H55       1.0  0.02533  0.91561  0.02569  1.0000
  H   H56       1.0  0.97467  0.41561  0.47431  1.0000
  H   H57       1.0  0.09624  0.20989  0.98311  1.0000
  H   H58       1.0  0.90377  0.70989  0.51688  1.0000
  H   H59       1.0  0.90377  0.79011  0.01688  1.0000
  H   H60       1.0  0.09624  0.29011  0.48312  1.0000
  C   C1        1.0  0.64088  0.80723  0.45757  1.0000
  C   C2        1.0  0.35911  0.30723  0.04243  1.0000
  C   C3        1.0  0.35912  0.19277  0.54243  1.0000
  C   C4        1.0  0.64088  0.69277  0.95757  1.0000
  C   C5        1.0  0.63877  0.60187  0.41723  1.0000
  C   C6        1.0  0.36123  0.10186  0.08277  1.0000
  C   C7        1.0  0.36123  0.39813  0.58277  1.0000
  C   C8        1.0  0.63877  0.89814  0.91723  1.0000
  C   C9        1.0  0.66716  0.56558  0.52054  1.0000
  C   C10       1.0  0.33284  0.06558  0.97946  1.0000
  C   C11       1.0  0.33285  0.43442  0.47946  1.0000
  C   C12       1.0  0.66715  0.93442  0.02054  1.0000
  C   C13       1.0  0.67433  0.66428  0.59365  1.0000
  C   C14       1.0  0.32567  0.16428  0.90635  1.0000
  C   C15       1.0  0.32567  0.33572  0.40635  1.0000
  C   C16       1.0  0.67433  0.83572  0.09365  1.0000
  C   C17       1.0  0.64552  0.39208  0.43178  1.0000
  C   C18       1.0  0.35448  0.89208  0.06822  1.0000
  C   C19       1.0  0.35449  0.60792  0.56822  1.0000
  C   C20       1.0  0.64551  0.10791  0.93178  1.0000
  C   C21       1.0  0.60374  0.47231  0.25241  1.0000
  C   C22       1.0  0.39626  0.97230  0.24759  1.0000
  C   C23       1.0  0.39626  0.52769  0.74760  1.0000
  C   C24       1.0  0.60374  0.02769  0.75240  1.0000
  C   C25       1.0  0.74150  0.47031  0.22371  1.0000
  C   C26       1.0  0.25850  0.97031  0.27629  1.0000
  C   C27       1.0  0.25849  0.52969  0.77629  1.0000
  C   C28       1.0  0.74151  0.02969  0.72371  1.0000
  C   C29       1.0  0.88577  0.44423  0.07518  1.0000
  C   C30       1.0  0.11423  0.94423  0.42482  1.0000
  C   C31       1.0  0.11422  0.55577  0.92482  1.0000
  C   C32       1.0  0.88578  0.05577  0.57518  1.0000
  C   C33       1.0  0.00724  0.37322  0.13935  1.0000
  C   C34       1.0  0.99276  0.87322  0.36065  1.0000
  C   C35       1.0  0.99276  0.62678  0.86065  1.0000
  C   C36       1.0  0.00724  0.12678  0.63935  1.0000
  C   C37       1.0  0.99548  0.18444  0.99479  1.0000
  C   C38       1.0  0.00452  0.68444  0.50521  1.0000
  C   C39       1.0  0.00452  0.81556  0.00521  1.0000
  C   C40       1.0  0.99548  0.31556  0.49479  1.0000
  S   S1        1.0  0.72316  0.39653  0.09928  1.0000
  S   S2        1.0  0.27684  0.89653  0.40072  1.0000
  S   S3        1.0  0.27684  0.60347  0.90072  1.0000
  S   S4        1.0  0.72316  0.10347  0.59928  1.0000
  S   S5        1.0  0.99277  0.20140  0.12851  1.0000
  S   S6        1.0  0.00723  0.70140  0.37149  1.0000
  S   S7        1.0  0.00723  0.79860  0.87148  1.0000
  S   S8        1.0  0.99277  0.29860  0.62852  1.0000
  N   N1        1.0  0.66109  0.78590  0.55833  1.0000
  N   N2        1.0  0.33891  0.28589  0.94168  1.0000
  N   N3        1.0  0.33891  0.21410  0.44168  1.0000
  N   N4        1.0  0.66109  0.71410  0.05832  1.0000
  N   N5        1.0  0.62797  0.72185  0.38128  1.0000
  N   N6        1.0  0.37203  0.22185  0.11872  1.0000
  N   N7        1.0  0.37203  0.27815  0.61872  1.0000
  N   N8        1.0  0.62797  0.77815  0.88128  1.0000
  N   N9        1.0  0.69146  0.64266  0.69405  1.0000
  N   N10       1.0  0.30853  0.14266  0.80596  1.0000
  N   N11       1.0  0.30854  0.35735  0.30596  1.0000
  N   N12       1.0  0.69146  0.85735  0.19404  1.0000
  N   N13       1.0  0.67263  0.43342  0.52788  1.0000
  N   N14       1.0  0.32737  0.93342  0.97212  1.0000
  N   N15       1.0  0.32737  0.56658  0.47212  1.0000
  N   N16       1.0  0.67263  0.06658  0.02788  1.0000
  N   N17       1.0  0.62356  0.48955  0.36235  1.0000
  N   N18       1.0  0.37644  0.98955  0.13765  1.0000
  N   N19       1.0  0.37644  0.51045  0.63765  1.0000
  N   N20       1.0  0.62356  0.01045  0.86235  1.0000
  Cl  Cl1       1.0  0.74358  0.13395  0.30051  1.0000
  Cl  Cl2       1.0  0.25642  0.63395  0.19950  1.0000
  Cl  Cl3       1.0  0.25642  0.86605  0.69950  1.0000
  Cl  Cl4       1.0  0.74358  0.36605  0.80050  1.0000
