data_image0
_chemical_formula_structural       Zn2H32C40S4N16
_chemical_formula_sum              "Zn2 H32 C40 S4 N16"
_cell_length_a       5.45107
_cell_length_b       12.5443
_cell_length_c       18.2358
_cell_angle_alpha    90.0007
_cell_angle_beta     89.9997
_cell_angle_gamma    90.8393

_space_group_name_H-M_alt    "P 1"
_space_group_IT_number       1

loop_
  _space_group_symop_operation_xyz
  'x, y, z'

loop_
  _atom_site_type_symbol
  _atom_site_label
  _atom_site_symmetry_multiplicity
  _atom_site_fract_x
  _atom_site_fract_y
  _atom_site_fract_z
  _atom_site_occupancy
  Zn  Zn1       1.0  0.58907  0.16920  0.05788  1.0000
  Zn  Zn2       1.0  0.41094  0.83080  0.55789  1.0000
  H   H1        1.0  0.25837  0.17100  0.93124  1.0000
  H   H2        1.0  0.74163  0.82899  0.43124  1.0000
  H   H3        1.0  0.90973  0.06447  0.88329  1.0000
  H   H4        1.0  0.09028  0.93551  0.38329  1.0000
  H   H5        1.0  0.06181  0.82831  0.04948  1.0000
  H   H6        1.0  0.93819  0.17169  0.54948  1.0000
  H   H7        1.0  0.40709  0.94588  0.09161  1.0000
  H   H8        1.0  0.59292  0.05413  0.59161  1.0000
  H   H9        1.0  0.57155  0.96481  0.84460  1.0000
  H   H10       1.0  0.42846  0.03518  0.34459  1.0000
  H   H11       1.0  0.25271  0.79317  0.84701  1.0000
  H   H12       1.0  0.74731  0.20682  0.34702  1.0000
  H   H13       1.0  0.18245  0.64480  0.94598  1.0000
  H   H14       1.0  0.81755  0.35520  0.44598  1.0000
  H   H15       1.0  0.42088  0.62888  0.01202  1.0000
  H   H16       1.0  0.57911  0.37112  0.51202  1.0000
  H   H17       1.0  0.68271  0.54327  0.91321  1.0000
  H   H18       1.0  0.31729  0.45672  0.41321  1.0000
  H   H19       1.0  0.41205  0.47059  0.93821  1.0000
  H   H20       1.0  0.58795  0.52941  0.43821  1.0000
  H   H21       1.0  0.65165  0.42939  0.79075  1.0000
  H   H22       1.0  0.34836  0.57062  0.29075  1.0000
  H   H23       1.0  0.37957  0.46435  0.66536  1.0000
  H   H24       1.0  0.62043  0.53565  0.16536  1.0000
  H   H25       1.0  0.85203  0.72053  0.79187  1.0000
  H   H26       1.0  0.14799  0.27946  0.29187  1.0000
  H   H27       1.0  0.54290  0.81424  0.71606  1.0000
  H   H28       1.0  0.45713  0.18576  0.21606  1.0000
  H   H29       1.0  0.75601  0.65521  0.52779  1.0000
  H   H30       1.0  0.24397  0.34478  0.02778  1.0000
  H   H31       1.0  0.07617  0.55562  0.59489  1.0000
  H   H32       1.0  0.92382  0.44437  0.09489  1.0000
  C   C1        1.0  0.20963  0.09433  0.95594  1.0000
  C   C2        1.0  0.79038  0.90567  0.45594  1.0000
  C   C3        1.0  0.01438  0.03416  0.92938  1.0000
  C   C4        1.0  0.98562  0.96584  0.42938  1.0000
  C   C5        1.0  0.95613  0.93561  0.96197  1.0000
  C   C6        1.0  0.04388  0.06439  0.46197  1.0000
  C   C7        1.0  0.10208  0.90299  0.02124  1.0000
  C   C8        1.0  0.89792  0.09702  0.52123  1.0000
  C   C9        1.0  0.29371  0.96795  0.04499  1.0000
  C   C10       1.0  0.70629  0.03206  0.54499  1.0000
  C   C11       1.0  0.75055  0.87100  0.93547  1.0000
  C   C12       1.0  0.24946  0.12900  0.43547  1.0000
  C   C13       1.0  0.57856  0.89516  0.87961  1.0000
  C   C14       1.0  0.42145  0.10484  0.37961  1.0000
  C   C15       1.0  0.41480  0.81020  0.87950  1.0000
  C   C16       1.0  0.58522  0.18979  0.37950  1.0000
  C   C17       1.0  0.38144  0.63947  0.95351  1.0000
  C   C18       1.0  0.61856  0.36053  0.45351  1.0000
  C   C19       1.0  0.48133  0.54415  0.91196  1.0000
  C   C20       1.0  0.51866  0.45585  0.41197  1.0000
  C   C21       1.0  0.49624  0.48068  0.78070  1.0000
  C   C22       1.0  0.50376  0.51932  0.28071  1.0000
  C   C23       1.0  0.35595  0.49988  0.71903  1.0000
  C   C24       1.0  0.64405  0.50012  0.21904  1.0000
  C   C25       1.0  0.18091  0.57565  0.74173  1.0000
  C   C26       1.0  0.81909  0.42435  0.24173  1.0000
  C   C27       1.0  0.99177  0.62912  0.69997  1.0000
  C   C28       1.0  0.00824  0.37088  0.19997  1.0000
  C   C29       1.0  0.83622  0.70308  0.73360  1.0000
  C   C30       1.0  0.16379  0.29692  0.23360  1.0000
  C   C31       1.0  0.66343  0.75526  0.69192  1.0000
  C   C32       1.0  0.33659  0.24474  0.19192  1.0000
  C   C33       1.0  0.78221  0.66614  0.58666  1.0000
  C   C34       1.0  0.21778  0.33386  0.08666  1.0000
  C   C35       1.0  0.95996  0.61081  0.62453  1.0000
  C   C36       1.0  0.04003  0.38918  0.12452  1.0000
  C   C37       1.0  0.82874  0.29998  0.93407  1.0000
  C   C38       1.0  0.17126  0.70002  0.43408  1.0000
  C   C39       1.0  0.90331  0.04847  0.16980  1.0000
  C   C40       1.0  0.09663  0.95155  0.66979  1.0000
  S   S1        1.0  0.01058  0.35030  0.87351  1.0000
  S   S2        1.0  0.98943  0.64969  0.37352  1.0000
  S   S3        1.0  0.03675  0.97613  0.22981  1.0000
  S   S4        1.0  0.96316  0.02389  0.72979  1.0000
  N   N1        1.0  0.34735  0.06264  0.01316  1.0000
  N   N2        1.0  0.65265  0.93736  0.51316  1.0000
  N   N3        1.0  0.69597  0.77583  0.96689  1.0000
  N   N4        1.0  0.30403  0.22417  0.46689  1.0000
  N   N5        1.0  0.49248  0.74089  0.93210  1.0000
  N   N6        1.0  0.50752  0.25911  0.43210  1.0000
  N   N7        1.0  0.40398  0.54279  0.83526  1.0000
  N   N8        1.0  0.59603  0.45721  0.33527  1.0000
  N   N9        1.0  0.21170  0.59995  0.81332  1.0000
  N   N10       1.0  0.78830  0.40005  0.31332  1.0000
  N   N11       1.0  0.63621  0.73762  0.61942  1.0000
  N   N12       1.0  0.36379  0.26238  0.11941  1.0000
  N   N13       1.0  0.69539  0.26287  0.97930  1.0000
  N   N14       1.0  0.30460  0.73713  0.47932  1.0000
  N   N15       1.0  0.80799  0.10227  0.12450  1.0000
  N   N16       1.0  0.19201  0.89774  0.62451  1.0000
