data_image0
_chemical_formula_structural       CuH22C22N8O2
_chemical_formula_sum              "Cu1 H22 C22 N8 O2"
_cell_length_a       7.51819
_cell_length_b       8.46414
_cell_length_c       10.7329
_cell_angle_alpha    94.1665
_cell_angle_beta     110.311
_cell_angle_gamma    110.246

_space_group_name_H-M_alt    "P 1"
_space_group_IT_number       1

loop_
  _space_group_symop_operation_xyz
  'x, y, z'

loop_
  _atom_site_type_symbol
  _atom_site_label
  _atom_site_symmetry_multiplicity
  _atom_site_fract_x
  _atom_site_fract_y
  _atom_site_fract_z
  _atom_site_occupancy
  Cu  Cu1       1.0  1.00000  0.99999  1.00000  1.0000
  H   H1        1.0  0.59244  0.41700  0.31446  1.0000
  H   H2        1.0  0.40756  0.58299  0.68554  1.0000
  H   H3        1.0  0.82084  0.49891  0.46644  1.0000
  H   H4        1.0  0.17917  0.50110  0.53355  1.0000
  H   H5        1.0  0.23745  0.27149  0.25764  1.0000
  H   H6        1.0  0.76256  0.72849  0.74235  1.0000
  H   H7        1.0  0.37671  0.28259  0.50677  1.0000
  H   H8        1.0  0.62329  0.71741  0.49323  1.0000
  H   H9        1.0  0.07883  0.72663  0.40981  1.0000
  H   H10       1.0  0.92117  0.27337  0.59021  1.0000
  H   H11       1.0  0.95821  0.73836  0.16401  1.0000
  H   H12       1.0  0.04178  0.26161  0.83600  1.0000
  H   H13       1.0  0.38922  0.90741  0.64334  1.0000
  H   H14       1.0  0.61079  0.09261  0.35667  1.0000
  H   H15       1.0  0.17197  0.93394  0.64934  1.0000
  H   H16       1.0  0.82804  0.06606  0.35067  1.0000
  H   H17       1.0  0.59270  0.23267  0.71569  1.0000
  H   H18       1.0  0.40729  0.76735  0.28430  1.0000
  H   H19       1.0  0.49445  0.14516  0.83438  1.0000
  H   H20       1.0  0.50554  0.85487  0.16563  1.0000
  H   H21       1.0  0.37119  0.25689  0.72598  1.0000
  H   H22       1.0  0.62878  0.74312  0.27401  1.0000
  C   C1        1.0  0.72912  0.30312  0.15446  1.0000
  C   C2        1.0  0.27089  0.69688  0.84553  1.0000
  C   C3        1.0  0.82522  0.24088  0.08606  1.0000
  C   C4        1.0  0.17478  0.75911  0.91393  1.0000
  C   C5        1.0  0.51727  0.26267  0.08949  1.0000
  C   C6        1.0  0.48274  0.73733  0.91051  1.0000
  C   C7        1.0  0.84819  0.39798  0.29643  1.0000
  C   C8        1.0  0.15182  0.60203  0.70356  1.0000
  C   C9        1.0  0.21051  0.15365  0.29617  1.0000
  C   C10       1.0  0.78949  0.84633  0.70382  1.0000
  C   C11       1.0  0.28506  0.15837  0.43514  1.0000
  C   C12       1.0  0.71494  0.84163  0.56486  1.0000
  C   C13       1.0  0.23963  0.00451  0.48099  1.0000
  C   C14       1.0  0.76037  0.99549  0.51902  1.0000
  C   C15       1.0  0.11887  0.85089  0.38107  1.0000
  C   C16       1.0  0.88113  0.14911  0.61893  1.0000
  C   C17       1.0  0.05129  0.85526  0.24415  1.0000
  C   C18       1.0  0.94870  0.14473  0.75586  1.0000
  C   C19       1.0  0.31106  0.99739  0.62898  1.0000
  C   C20       1.0  0.68894  0.00262  0.37103  1.0000
  C   C21       1.0  0.44996  0.16832  0.73108  1.0000
  C   C22       1.0  0.55003  0.83170  0.26892  1.0000
  N   N1        1.0  0.74671  0.45062  0.36197  1.0000
  N   N2        1.0  0.25330  0.54938  0.63802  1.0000
  N   N3        1.0  0.90806  0.19059  0.02712  1.0000
  N   N4        1.0  0.09194  0.80938  0.97288  1.0000
  N   N5        1.0  0.33928  0.23081  0.03962  1.0000
  N   N6        1.0  0.66072  0.76918  0.96038  1.0000
  N   N7        1.0  0.09709  0.00499  0.20209  1.0000
  N   N8        1.0  0.90291  0.99499  0.79791  1.0000
  O   O1        1.0  0.03762  0.42881  0.35476  1.0000
  O   O2        1.0  0.96240  0.57121  0.64523  1.0000
