data_image0
_chemical_formula_structural       Cu2H36C40N16O8
_chemical_formula_sum              "Cu2 H36 C40 N16 O8"
_cell_length_a       7.42317
_cell_length_b       11.8782
_cell_length_c       12.7873
_cell_angle_alpha    90.0027
_cell_angle_beta     89.9998
_cell_angle_gamma    94.297

_space_group_name_H-M_alt    "P 1"
_space_group_IT_number       1

loop_
  _space_group_symop_operation_xyz
  'x, y, z'

loop_
  _atom_site_type_symbol
  _atom_site_label
  _atom_site_symmetry_multiplicity
  _atom_site_fract_x
  _atom_site_fract_y
  _atom_site_fract_z
  _atom_site_occupancy
  Cu  Cu1       1.0  0.99999  0.50001  0.50001  1.0000
  Cu  Cu2       1.0  0.50001  0.50000  0.00000  1.0000
  H   H1        1.0  0.64171  0.97659  0.50715  1.0000
  H   H2        1.0  0.85829  0.02341  0.00715  1.0000
  H   H3        1.0  0.35830  0.02341  0.49284  1.0000
  H   H4        1.0  0.14172  0.97659  0.99286  1.0000
  H   H5        1.0  0.74709  0.85369  0.52819  1.0000
  H   H6        1.0  0.75292  0.14632  0.02818  1.0000
  H   H7        1.0  0.25290  0.14630  0.47181  1.0000
  H   H8        1.0  0.24709  0.85368  0.97182  1.0000
  H   H9        1.0  0.03627  0.75124  0.46735  1.0000
  H   H10       1.0  0.46374  0.24877  0.96735  1.0000
  H   H11       1.0  0.96376  0.24876  0.53265  1.0000
  H   H12       1.0  0.53627  0.75123  0.03265  1.0000
  H   H13       1.0  0.91525  0.01787  0.39585  1.0000
  H   H14       1.0  0.58472  0.98211  0.89586  1.0000
  H   H15       1.0  0.08480  0.98212  0.60415  1.0000
  H   H16       1.0  0.41523  0.01789  0.10416  1.0000
  H   H17       1.0  0.20517  0.95407  0.34454  1.0000
  H   H18       1.0  0.29482  0.04593  0.84454  1.0000
  H   H19       1.0  0.79482  0.04592  0.65547  1.0000
  H   H20       1.0  0.70520  0.95407  0.15548  1.0000
  H   H21       1.0  0.04558  0.95673  0.24103  1.0000
  H   H22       1.0  0.45440  0.04324  0.74103  1.0000
  H   H23       1.0  0.95446  0.04325  0.75894  1.0000
  H   H24       1.0  0.54555  0.95677  0.25895  1.0000
  H   H25       1.0  0.06969  0.46941  0.27980  1.0000
  H   H26       1.0  0.43031  0.53058  0.77979  1.0000
  H   H27       1.0  0.93031  0.53058  0.72023  1.0000
  H   H28       1.0  0.56967  0.46944  0.22023  1.0000
  H   H29       1.0  0.12119  0.80013  0.13723  1.0000
  H   H30       1.0  0.37880  0.19984  0.63722  1.0000
  H   H31       1.0  0.87879  0.19985  0.86277  1.0000
  H   H32       1.0  0.62122  0.80019  0.36277  1.0000
  H   H33       1.0  0.12200  0.58901  0.11933  1.0000
  H   H34       1.0  0.37799  0.41094  0.61932  1.0000
  H   H35       1.0  0.87796  0.41095  0.88068  1.0000
  H   H36       1.0  0.62199  0.58908  0.38069  1.0000
  C   C1        1.0  0.31363  0.65106  0.58186  1.0000
  C   C2        1.0  0.18639  0.34895  0.08185  1.0000
  C   C3        1.0  0.68635  0.34895  0.41815  1.0000
  C   C4        1.0  0.81363  0.65106  0.91814  1.0000
  C   C5        1.0  0.47285  0.83941  0.55593  1.0000
  C   C6        1.0  0.02717  0.16059  0.05591  1.0000
  C   C7        1.0  0.52715  0.16059  0.44408  1.0000
  C   C8        1.0  0.97284  0.83941  0.94409  1.0000
  C   C9        1.0  0.63546  0.66404  0.57582  1.0000
  C   C10       1.0  0.86458  0.33597  0.07582  1.0000
  C   C11       1.0  0.36454  0.33597  0.42418  1.0000
  C   C12       1.0  0.13544  0.66403  0.92418  1.0000
  C   C13       1.0  0.05349  0.71904  0.38862  1.0000
  C   C14       1.0  0.44651  0.28095  0.88861  1.0000
  C   C15       1.0  0.94653  0.28095  0.61138  1.0000
  C   C16       1.0  0.55347  0.71905  0.11138  1.0000
  C   C17       1.0  0.47398  0.71766  0.57490  1.0000
  C   C18       1.0  0.02605  0.28235  0.07489  1.0000
  C   C19       1.0  0.52602  0.28235  0.42511  1.0000
  C   C20       1.0  0.97396  0.71765  0.92511  1.0000
  C   C21       1.0  0.07203  0.91767  0.31725  1.0000
  C   C22       1.0  0.42796  0.08231  0.81725  1.0000
  C   C23       1.0  0.92798  0.08231  0.68273  1.0000
  C   C24       1.0  0.57203  0.91769  0.18274  1.0000
  C   C25       1.0  0.07382  0.56110  0.28304  1.0000
  C   C26       1.0  0.42617  0.43888  0.78303  1.0000
  C   C27       1.0  0.92617  0.43889  0.71697  1.0000
  C   C28       1.0  0.57381  0.56113  0.21698  1.0000
  C   C29       1.0  0.07631  0.79218  0.30333  1.0000
  C   C30       1.0  0.42369  0.20780  0.80333  1.0000
  C   C31       1.0  0.92370  0.20781  0.69666  1.0000
  C   C32       1.0  0.57629  0.79220  0.19666  1.0000
  C   C33       1.0  0.10129  0.74494  0.20492  1.0000
  C   C34       1.0  0.39869  0.25503  0.70492  1.0000
  C   C35       1.0  0.89870  0.25504  0.79508  1.0000
  C   C36       1.0  0.60130  0.74499  0.29508  1.0000
  C   C37       1.0  0.10120  0.62827  0.19473  1.0000
  C   C38       1.0  0.39880  0.37170  0.69473  1.0000
  C   C39       1.0  0.89878  0.37171  0.80528  1.0000
  C   C40       1.0  0.60118  0.62831  0.30528  1.0000
  N   N1        1.0  0.77450  0.62283  0.57383  1.0000
  N   N2        1.0  0.72555  0.37719  0.07384  1.0000
  N   N3        1.0  0.22550  0.37717  0.42616  1.0000
  N   N4        1.0  0.27448  0.62282  0.92616  1.0000
  N   N5        1.0  0.05068  0.60637  0.37808  1.0000
  N   N6        1.0  0.44931  0.39363  0.87807  1.0000
  N   N7        1.0  0.94932  0.39363  0.62193  1.0000
  N   N8        1.0  0.55068  0.60638  0.12193  1.0000
  N   N9        1.0  0.17953  0.59186  0.58875  1.0000
  N   N10       1.0  0.32047  0.40816  0.08876  1.0000
  N   N11       1.0  0.82045  0.40816  0.41124  1.0000
  N   N12       1.0  0.67953  0.59184  0.91124  1.0000
  N   N13       1.0  0.63544  0.89647  0.53990  1.0000
  N   N14       1.0  0.86457  0.10354  0.03989  1.0000
  N   N15       1.0  0.36456  0.10353  0.46009  1.0000
  N   N16       1.0  0.13544  0.89647  0.96011  1.0000
  O   O1        1.0  0.32737  0.88776  0.55367  1.0000
  O   O2        1.0  0.17264  0.11224  0.05365  1.0000
  O   O3        1.0  0.67263  0.11225  0.44635  1.0000
  O   O4        1.0  0.82737  0.88775  0.94637  1.0000
  O   O5        1.0  0.93431  0.93756  0.39206  1.0000
  O   O6        1.0  0.56569  0.06242  0.89205  1.0000
  O   O7        1.0  0.06565  0.06242  0.60790  1.0000
  O   O8        1.0  0.43436  0.93759  0.10790  1.0000
