data_image0
_chemical_formula_structural       CuH20C18N10O2
_chemical_formula_sum              "Cu1 H20 C18 N10 O2"
_cell_length_a       7.54296
_cell_length_b       8.12821
_cell_length_c       10.5415
_cell_angle_alpha    89.8356
_cell_angle_beta     110.219
_cell_angle_gamma    112.828

_space_group_name_H-M_alt    "P 1"
_space_group_IT_number       1

loop_
  _space_group_symop_operation_xyz
  'x, y, z'

loop_
  _atom_site_type_symbol
  _atom_site_label
  _atom_site_symmetry_multiplicity
  _atom_site_fract_x
  _atom_site_fract_y
  _atom_site_fract_z
  _atom_site_occupancy
  Cu  Cu1       1.0  1.00000  0.99999  1.00000  1.0000
  H   H1        1.0  0.83286  0.45867  0.49364  1.0000
  H   H2        1.0  0.16714  0.54132  0.50636  1.0000
  H   H3        1.0  0.59104  0.29027  0.38875  1.0000
  H   H4        1.0  0.40895  0.70972  0.61124  1.0000
  H   H5        1.0  0.16905  0.29428  0.25357  1.0000
  H   H6        1.0  0.83095  0.70572  0.74643  1.0000
  H   H7        1.0  0.39908  0.70027  0.03254  1.0000
  H   H8        1.0  0.60093  0.29974  0.96746  1.0000
  H   H9        1.0  0.23236  0.38800  0.78620  1.0000
  H   H10       1.0  0.76763  0.61201  0.21380  1.0000
  H   H11       1.0  0.05216  0.47929  0.78190  1.0000
  H   H12       1.0  0.94785  0.52071  0.21811  1.0000
  H   H13       1.0  0.98062  0.24289  0.78011  1.0000
  H   H14       1.0  0.01938  0.75712  0.21990  1.0000
  H   H15       1.0  0.38430  0.73980  0.34319  1.0000
  H   H16       1.0  0.61570  0.26021  0.65681  1.0000
  H   H17       1.0  0.61814  0.74305  0.33776  1.0000
  H   H18       1.0  0.38187  0.25695  0.66225  1.0000
  H   H19       1.0  0.47273  0.57362  0.41274  1.0000
  H   H20       1.0  0.52727  0.42638  0.58727  1.0000
  C   C1        1.0  0.69707  0.11962  0.25032  1.0000
  C   C2        1.0  0.30292  0.88035  0.74968  1.0000
  C   C3        1.0  0.78120  0.04516  0.18179  1.0000
  C   C4        1.0  0.21881  0.95484  0.81821  1.0000
  C   C5        1.0  0.48235  0.05316  0.21194  1.0000
  C   C6        1.0  0.51764  0.94685  0.78805  1.0000
  C   C7        1.0  0.83733  0.26993  0.36224  1.0000
  C   C8        1.0  0.16266  0.73005  0.63776  1.0000
  C   C9        1.0  0.18567  0.40749  0.97376  1.0000
  C   C10       1.0  0.81435  0.59252  0.02624  1.0000
  C   C11       1.0  0.32379  0.57152  0.06216  1.0000
  C   C12       1.0  0.67622  0.42850  0.93785  1.0000
  C   C13       1.0  0.34218  0.53540  0.19390  1.0000
  C   C14       1.0  0.65782  0.46460  0.80610  1.0000
  C   C15       1.0  0.10791  0.37630  0.82190  1.0000
  C   C16       1.0  0.89210  0.62371  0.17811  1.0000
  C   C17       1.0  0.46037  0.65409  0.32904  1.0000
  C   C18       1.0  0.53963  0.34591  0.67096  1.0000
  N   N1        1.0  0.74792  0.33859  0.42577  1.0000
  N   N2        1.0  0.25207  0.66141  0.57423  1.0000
  N   N3        1.0  0.85837  0.98204  0.12823  1.0000
  N   N4        1.0  0.14163  0.01796  0.87176  1.0000
  N   N5        1.0  0.30354  0.00324  0.18647  1.0000
  N   N6        1.0  0.69645  0.99676  0.81353  1.0000
  N   N7        1.0  0.12411  0.27699  0.04809  1.0000
  N   N8        1.0  0.87590  0.72302  0.95191  1.0000
  N   N9        1.0  0.22207  0.35661  0.18126  1.0000
  N   N10       1.0  0.77794  0.64339  0.81875  1.0000
  O   O1        1.0  0.03179  0.33124  0.39535  1.0000
  O   O2        1.0  0.96818  0.66875  0.60464  1.0000
