data_image0
_chemical_formula_structural       ZnH20C32Br4N8O8
_chemical_formula_sum              "Zn1 H20 C32 Br4 N8 O8"
_cell_length_a       8.5092
_cell_length_b       8.78563
_cell_length_c       11.5156
_cell_angle_alpha    89.853
_cell_angle_beta     85.0211
_cell_angle_gamma    81.9032

_space_group_name_H-M_alt    "P 1"
_space_group_IT_number       1

loop_
  _space_group_symop_operation_xyz
  'x, y, z'

loop_
  _atom_site_type_symbol
  _atom_site_label
  _atom_site_symmetry_multiplicity
  _atom_site_fract_x
  _atom_site_fract_y
  _atom_site_fract_z
  _atom_site_occupancy
  Zn  Zn1       1.0  0.50000  0.50000  0.50000  1.0000
  H   H1        1.0  0.24758  0.63464  0.41711  1.0000
  H   H2        1.0  0.75242  0.36536  0.58289  1.0000
  H   H3        1.0  0.17223  0.61079  0.54819  1.0000
  H   H4        1.0  0.82777  0.38921  0.45181  1.0000
  H   H5        1.0  0.25522  0.34841  0.65915  1.0000
  H   H6        1.0  0.74478  0.65159  0.34085  1.0000
  H   H7        1.0  0.51684  0.22256  0.34568  1.0000
  H   H8        1.0  0.48316  0.77744  0.65432  1.0000
  H   H9        1.0  0.39640  0.98026  0.33295  1.0000
  H   H10       1.0  0.60360  0.01973  0.66705  1.0000
  H   H11       1.0  0.19522  0.92207  0.49348  1.0000
  H   H12       1.0  0.80478  0.07793  0.50652  1.0000
  H   H13       1.0  0.76603  0.97569  0.99594  1.0000
  H   H14       1.0  0.23397  0.02431  0.00407  1.0000
  H   H15       1.0  0.72528  0.29007  0.26782  1.0000
  H   H16       1.0  0.27472  0.70993  0.73218  1.0000
  H   H17       1.0  0.85987  0.47429  0.14558  1.0000
  H   H18       1.0  0.14013  0.52571  0.85442  1.0000
  H   H19       1.0  0.95992  0.39951  0.93786  1.0000
  H   H20       1.0  0.04008  0.60049  0.06214  1.0000
  C   C1        1.0  0.20556  0.13324  0.58674  1.0000
  C   C2        1.0  0.79444  0.86676  0.41326  1.0000
  C   C3        1.0  0.28060  0.26525  0.58758  1.0000
  C   C4        1.0  0.71940  0.73475  0.41242  1.0000
  C   C5        1.0  0.42908  0.19331  0.41322  1.0000
  C   C6        1.0  0.57091  0.80669  0.58678  1.0000
  C   C7        1.0  0.36120  0.05884  0.40653  1.0000
  C   C8        1.0  0.63879  0.94116  0.59347  1.0000
  C   C9        1.0  0.24839  0.02751  0.49405  1.0000
  C   C10       1.0  0.75161  0.97249  0.50594  1.0000
  C   C11       1.0  0.08583  0.10087  0.67728  1.0000
  C   C12       1.0  0.91417  0.89913  0.32272  1.0000
  C   C13       1.0  0.93564  0.12235  0.83760  1.0000
  C   C14       1.0  0.06436  0.87765  0.16240  1.0000
  C   C15       1.0  0.87406  0.17964  0.95276  1.0000
  C   C16       1.0  0.12594  0.82036  0.04724  1.0000
  C   C17       1.0  0.78980  0.08645  0.02736  1.0000
  C   C18       1.0  0.21020  0.91355  0.97264  1.0000
  C   C19       1.0  0.76694  0.26084  0.17748  1.0000
  C   C20       1.0  0.23306  0.73916  0.82252  1.0000
  C   C21       1.0  0.84474  0.36354  0.10911  1.0000
  C   C22       1.0  0.15526  0.63646  0.89089  1.0000
  C   C23       1.0  0.89966  0.32274  0.99472  1.0000
  C   C24       1.0  0.10034  0.67726  0.00528  1.0000
  C   C25       1.0  0.44727  0.52628  0.11928  1.0000
  C   C26       1.0  0.55273  0.47372  0.88072  1.0000
  C   C27       1.0  0.53059  0.63090  0.05663  1.0000
  C   C28       1.0  0.46941  0.36910  0.94337  1.0000
  C   C29       1.0  0.58508  0.60427  0.93888  1.0000
  C   C30       1.0  0.41492  0.39573  0.06112  1.0000
  C   C31       1.0  0.40072  0.55073  0.24940  1.0000
  C   C32       1.0  0.59928  0.44927  0.75060  1.0000
  Br  Br1       1.0  0.56691  0.81224  0.13348  1.0000
  Br  Br2       1.0  0.43308  0.18776  0.86651  1.0000
  Br  Br3       1.0  0.70818  0.74174  0.85819  1.0000
  Br  Br4       1.0  0.29182  0.25826  0.14181  1.0000
  N   N1        1.0  0.39006  0.29452  0.50210  1.0000
  N   N2        1.0  0.60993  0.70548  0.49790  1.0000
  N   N3        1.0  0.00082  0.98725  0.67912  1.0000
  N   N4        1.0  0.99918  0.01275  0.32088  1.0000
  N   N5        1.0  0.90406  0.00105  0.78247  1.0000
  N   N6        1.0  0.09594  0.99895  0.21753  1.0000
  N   N7        1.0  0.73720  0.12513  0.13749  1.0000
  N   N8        1.0  0.26280  0.87488  0.86251  1.0000
  O   O1        1.0  0.04996  0.19222  0.77495  1.0000
  O   O2        1.0  0.95005  0.80778  0.22505  1.0000
  O   O3        1.0  0.26127  0.61351  0.28169  1.0000
  O   O4        1.0  0.73873  0.38649  0.71831  1.0000
  O   O5        1.0  0.51143  0.50410  0.31443  1.0000
  O   O6        1.0  0.48857  0.49590  0.68557  1.0000
  O   O7        1.0  0.26331  0.64505  0.50418  1.0000
  O   O8        1.0  0.73669  0.35495  0.49582  1.0000
