data_image0
_chemical_formula_structural       CoH20C32Br4N8O8
_chemical_formula_sum              "Co1 H20 C32 Br4 N8 O8"
_cell_length_a       8.60871
_cell_length_b       8.74964
_cell_length_c       11.1575
_cell_angle_alpha    88.8705
_cell_angle_beta     86.9757
_cell_angle_gamma    83.608

_space_group_name_H-M_alt    "P 1"
_space_group_IT_number       1

loop_
  _space_group_symop_operation_xyz
  'x, y, z'

loop_
  _atom_site_type_symbol
  _atom_site_label
  _atom_site_symmetry_multiplicity
  _atom_site_fract_x
  _atom_site_fract_y
  _atom_site_fract_z
  _atom_site_occupancy
  Co  Co1       1.0  0.00000  1.00000  0.00000  1.0000
  H   H1        1.0  0.25209  0.85714  0.07756  1.0000
  H   H2        1.0  0.74791  0.14286  0.92245  1.0000
  H   H3        1.0  0.32917  0.88878  0.94823  1.0000
  H   H4        1.0  0.67083  0.11122  0.05178  1.0000
  H   H5        1.0  0.64084  0.02420  0.35025  1.0000
  H   H6        1.0  0.35916  0.97579  0.64975  1.0000
  H   H7        1.0  0.24340  0.12862  0.84435  1.0000
  H   H8        1.0  0.75661  0.87138  0.15565  1.0000
  H   H9        1.0  0.97040  0.26414  0.14858  1.0000
  H   H10       1.0  0.02960  0.73586  0.85143  1.0000
  H   H11       1.0  0.09367  0.50681  0.16155  1.0000
  H   H12       1.0  0.90633  0.49319  0.83845  1.0000
  H   H13       1.0  0.30200  0.56278  0.00517  1.0000
  H   H14       1.0  0.69800  0.43722  0.99483  1.0000
  H   H15       1.0  0.53994  0.09203  0.56132  1.0000
  H   H16       1.0  0.46006  0.90797  0.43868  1.0000
  H   H17       1.0  0.77532  0.21566  0.22909  1.0000
  H   H18       1.0  0.22468  0.78434  0.77091  1.0000
  H   H19       1.0  0.73118  0.52388  0.50863  1.0000
  H   H20       1.0  0.26881  0.47612  0.49137  1.0000
  C   C1        1.0  0.65574  0.13490  0.38861  1.0000
  C   C2        1.0  0.34426  0.86510  0.61139  1.0000
  C   C3        1.0  0.21677  0.21382  0.91427  1.0000
  C   C4        1.0  0.78323  0.78618  0.08573  1.0000
  C   C5        1.0  0.06186  0.29112  0.08372  1.0000
  C   C6        1.0  0.93814  0.70887  0.91628  1.0000
  C   C7        1.0  0.13135  0.42637  0.08990  1.0000
  C   C8        1.0  0.86865  0.57363  0.91010  1.0000
  C   C9        1.0  0.24758  0.45651  0.00519  1.0000
  C   C10       1.0  0.75242  0.54349  0.99481  1.0000
  C   C11       1.0  0.29191  0.34767  0.91524  1.0000
  C   C12       1.0  0.70809  0.65233  0.08476  1.0000
  C   C13       1.0  0.41242  0.38249  0.82627  1.0000
  C   C14       1.0  0.58758  0.61751  0.17373  1.0000
  C   C15       1.0  0.56131  0.36879  0.66553  1.0000
  C   C16       1.0  0.43869  0.63121  0.33447  1.0000
  C   C17       1.0  0.62375  0.31550  0.54895  1.0000
  C   C18       1.0  0.37625  0.68450  0.45105  1.0000
  C   C19       1.0  0.59976  0.17195  0.50468  1.0000
  C   C20       1.0  0.40023  0.82805  0.49532  1.0000
  C   C21       1.0  0.73375  0.24135  0.32111  1.0000
  C   C22       1.0  0.26624  0.75865  0.67889  1.0000
  C   C23       1.0  0.70816  0.41279  0.47524  1.0000
  C   C24       1.0  0.29183  0.58721  0.52476  1.0000
  C   C25       1.0  0.10047  0.94724  0.24686  1.0000
  C   C26       1.0  0.89954  0.05276  0.75314  1.0000
  C   C27       1.0  0.05237  0.97305  0.37878  1.0000
  C   C28       1.0  0.94764  0.02695  0.62122  1.0000
  C   C29       1.0  0.08651  0.10459  0.43758  1.0000
  C   C30       1.0  0.91349  0.89541  0.56242  1.0000
  C   C31       1.0  0.03213  0.13231  0.55693  1.0000
  C   C32       1.0  0.96787  0.86769  0.44307  1.0000
  Br  Br1       1.0  0.21304  0.24139  0.35592  1.0000
  Br  Br2       1.0  0.78696  0.75861  0.64408  1.0000
  Br  Br3       1.0  0.06938  0.31571  0.63321  1.0000
  Br  Br4       1.0  0.93062  0.68429  0.36679  1.0000
  N   N1        1.0  0.10323  0.18561  0.99772  1.0000
  N   N2        1.0  0.89678  0.81439  0.00228  1.0000
  N   N3        1.0  0.49453  0.50011  0.82627  1.0000
  N   N4        1.0  0.50547  0.49989  0.17373  1.0000
  N   N5        1.0  0.59029  0.49141  0.72269  1.0000
  N   N6        1.0  0.40970  0.50859  0.27731  1.0000
  N   N7        1.0  0.76251  0.37744  0.36376  1.0000
  N   N8        1.0  0.23748  0.62255  0.63624  1.0000
  O   O1        1.0  0.44963  0.29296  0.72708  1.0000
  O   O2        1.0  0.55037  0.70704  0.27292  1.0000
  O   O3        1.0  0.99196  0.99634  0.17580  1.0000
  O   O4        1.0  0.00804  0.00366  0.82420  1.0000
  O   O5        1.0  0.23474  0.88361  0.21853  1.0000
  O   O6        1.0  0.76527  0.11639  0.78147  1.0000
  O   O7        1.0  0.24007  0.84619  0.98808  1.0000
  O   O8        1.0  0.75993  0.15381  0.01193  1.0000
