data_image0
_chemical_formula_structural       H20Pb2C40Br8N8O12
_chemical_formula_sum              "H20 Pb2 C40 Br8 N8 O12"
_cell_length_a       8.93426
_cell_length_b       8.93432
_cell_length_c       14.9255
_cell_angle_alpha    78.4903
_cell_angle_beta     78.4901
_cell_angle_gamma    80.0659

_space_group_name_H-M_alt    "P 1"
_space_group_IT_number       1

loop_
  _space_group_symop_operation_xyz
  'x, y, z'

loop_
  _atom_site_type_symbol
  _atom_site_label
  _atom_site_symmetry_multiplicity
  _atom_site_fract_x
  _atom_site_fract_y
  _atom_site_fract_z
  _atom_site_occupancy
  H   H1        1.0  0.83003  0.54594  0.02047  1.0000
  H   H2        1.0  0.45406  0.16996  0.47953  1.0000
  H   H3        1.0  0.16997  0.45407  0.97953  1.0000
  H   H4        1.0  0.54593  0.83002  0.52047  1.0000
  H   H5        1.0  0.49017  0.97028  0.75803  1.0000
  H   H6        1.0  0.02972  0.50983  0.74197  1.0000
  H   H7        1.0  0.50982  0.02972  0.24197  1.0000
  H   H8        1.0  0.97029  0.49018  0.25803  1.0000
  H   H9        1.0  0.70893  0.10318  0.76505  1.0000
  H   H10       1.0  0.89682  0.29107  0.73496  1.0000
  H   H11       1.0  0.29107  0.89682  0.23495  1.0000
  H   H12       1.0  0.10318  0.70893  0.26504  1.0000
  H   H13       1.0  0.94035  0.94248  0.83010  1.0000
  H   H14       1.0  0.05752  0.05965  0.66990  1.0000
  H   H15       1.0  0.05965  0.05752  0.16988  1.0000
  H   H16       1.0  0.94248  0.94035  0.33011  1.0000
  H   H17       1.0  0.69763  0.54863  0.87913  1.0000
  H   H18       1.0  0.45137  0.30237  0.62087  1.0000
  H   H19       1.0  0.30237  0.45137  0.12087  1.0000
  H   H20       1.0  0.54863  0.69763  0.37913  1.0000
  Pb  Pb1       1.0  0.40012  0.59988  0.75000  1.0000
  Pb  Pb2       1.0  0.59986  0.40014  0.25000  1.0000
  C   C1        1.0  0.69479  0.56184  0.61143  1.0000
  C   C2        1.0  0.43817  0.30521  0.88858  1.0000
  C   C3        1.0  0.30521  0.43817  0.38858  1.0000
  C   C4        1.0  0.56184  0.69478  0.11142  1.0000
  C   C5        1.0  0.85046  0.53258  0.55036  1.0000
  C   C6        1.0  0.46743  0.14953  0.94965  1.0000
  C   C7        1.0  0.14953  0.46743  0.44966  1.0000
  C   C8        1.0  0.53259  0.85046  0.05035  1.0000
  C   C9        1.0  0.95730  0.63588  0.53670  1.0000
  C   C10       1.0  0.36413  0.04269  0.96331  1.0000
  C   C11       1.0  0.04270  0.36412  0.46332  1.0000
  C   C12       1.0  0.63590  0.95729  0.03669  1.0000
  C   C13       1.0  0.10580  0.60362  0.48674  1.0000
  C   C14       1.0  0.39640  0.89420  0.01326  1.0000
  C   C15       1.0  0.89421  0.39638  0.51327  1.0000
  C   C16       1.0  0.60363  0.10579  0.98673  1.0000
  C   C17       1.0  0.59060  0.90575  0.78616  1.0000
  C   C18       1.0  0.09425  0.40939  0.71384  1.0000
  C   C19       1.0  0.40939  0.09425  0.21384  1.0000
  C   C20       1.0  0.90575  0.59061  0.28616  1.0000
  C   C21       1.0  0.71474  0.97931  0.78943  1.0000
  C   C22       1.0  0.02069  0.28526  0.71056  1.0000
  C   C23       1.0  0.28526  0.02070  0.21056  1.0000
  C   C24       1.0  0.97930  0.71474  0.28944  1.0000
  C   C25       1.0  0.83967  0.89177  0.82633  1.0000
  C   C26       1.0  0.10823  0.16033  0.67367  1.0000
  C   C27       1.0  0.16033  0.10823  0.17366  1.0000
  C   C28       1.0  0.89177  0.83967  0.32633  1.0000
  C   C29       1.0  0.83419  0.73490  0.86155  1.0000
  C   C30       1.0  0.26510  0.16581  0.63845  1.0000
  C   C31       1.0  0.16580  0.26510  0.13844  1.0000
  C   C32       1.0  0.73490  0.83419  0.36156  1.0000
  C   C33       1.0  0.70528  0.67095  0.85492  1.0000
  C   C34       1.0  0.32905  0.29472  0.64507  1.0000
  C   C35       1.0  0.29472  0.32905  0.14507  1.0000
  C   C36       1.0  0.67095  0.70528  0.35492  1.0000
  C   C37       1.0  0.97036  0.64206  0.89909  1.0000
  C   C38       1.0  0.35795  0.02964  0.60090  1.0000
  C   C39       1.0  0.02964  0.35796  0.10090  1.0000
  C   C40       1.0  0.64204  0.97035  0.39910  1.0000
  Br  Br1       1.0  0.89682  0.81969  0.58794  1.0000
  Br  Br2       1.0  0.18031  0.10317  0.91206  1.0000
  Br  Br3       1.0  0.10318  0.18030  0.41207  1.0000
  Br  Br4       1.0  0.81970  0.89682  0.08794  1.0000
  Br  Br5       1.0  0.24888  0.74511  0.46727  1.0000
  Br  Br6       1.0  0.25490  0.75112  0.03273  1.0000
  Br  Br7       1.0  0.75113  0.25488  0.53273  1.0000
  Br  Br8       1.0  0.74513  0.24887  0.96727  1.0000
  N   N1        1.0  0.58663  0.75440  0.81677  1.0000
  N   N2        1.0  0.24560  0.41337  0.68322  1.0000
  N   N3        1.0  0.41337  0.24560  0.18322  1.0000
  N   N4        1.0  0.75440  0.58663  0.31677  1.0000
  N   N5        1.0  0.93944  0.54204  0.97952  1.0000
  N   N6        1.0  0.45796  0.06056  0.52048  1.0000
  N   N7        1.0  0.06057  0.45797  0.02047  1.0000
  N   N8        1.0  0.54203  0.93943  0.47953  1.0000
  O   O1        1.0  0.58023  0.63392  0.57497  1.0000
  O   O2        1.0  0.36608  0.41976  0.92504  1.0000
  O   O3        1.0  0.41976  0.36608  0.42504  1.0000
  O   O4        1.0  0.63392  0.58023  0.07496  1.0000
  O   O5        1.0  0.69072  0.50961  0.69687  1.0000
  O   O6        1.0  0.49038  0.30927  0.80314  1.0000
  O   O7        1.0  0.30926  0.49039  0.30314  1.0000
  O   O8        1.0  0.50961  0.69072  0.19686  1.0000
  O   O9        1.0  0.10443  0.65694  0.85804  1.0000
  O   O10       1.0  0.34306  0.89557  0.64196  1.0000
  O   O11       1.0  0.89557  0.34308  0.14195  1.0000
  O   O12       1.0  0.65692  0.10443  0.35804  1.0000
