data_image0
_chemical_formula_structural       Zn2H48C52S2N8O12
_chemical_formula_sum              "Zn2 H48 C52 S2 N8 O12"
_cell_length_a       9.76475
_cell_length_b       11.6351
_cell_length_c       12.0667
_cell_angle_alpha    92.1426
_cell_angle_beta     96.6355
_cell_angle_gamma    103.794

_space_group_name_H-M_alt    "P 1"
_space_group_IT_number       1

loop_
  _space_group_symop_operation_xyz
  'x, y, z'

loop_
  _atom_site_type_symbol
  _atom_site_label
  _atom_site_symmetry_multiplicity
  _atom_site_fract_x
  _atom_site_fract_y
  _atom_site_fract_z
  _atom_site_occupancy
  Zn  Zn1       1.0  0.99144  0.67764  0.81494  1.0000
  Zn  Zn2       1.0  0.00857  0.32235  0.18505  1.0000
  H   H1        1.0  0.54384  0.65009  0.92178  1.0000
  H   H2        1.0  0.45617  0.34991  0.07823  1.0000
  H   H3        1.0  0.62563  0.41301  0.92324  1.0000
  H   H4        1.0  0.37438  0.58699  0.07677  1.0000
  H   H5        1.0  0.55763  0.47747  0.80560  1.0000
  H   H6        1.0  0.44238  0.52254  0.19441  1.0000
  H   H7        1.0  0.33041  0.46384  0.87952  1.0000
  H   H8        1.0  0.66961  0.53616  0.12049  1.0000
  H   H9        1.0  0.36559  0.32245  0.87780  1.0000
  H   H10       1.0  0.63442  0.67756  0.12221  1.0000
  H   H11       1.0  0.14015  0.04247  0.63850  1.0000
  H   H12       1.0  0.85984  0.95753  0.36150  1.0000
  H   H13       1.0  0.98341  0.82473  0.48434  1.0000
  H   H14       1.0  0.01658  0.17527  0.51566  1.0000
  H   H15       1.0  0.16816  0.86774  0.52112  1.0000
  H   H16       1.0  0.83183  0.13225  0.47888  1.0000
  H   H17       1.0  0.17855  0.05884  0.42884  1.0000
  H   H18       1.0  0.82144  0.94116  0.57115  1.0000
  H   H19       1.0  0.09869  0.93667  0.33253  1.0000
  H   H20       1.0  0.90130  0.06332  0.66747  1.0000
  H   H21       1.0  0.07304  0.84417  0.04174  1.0000
  H   H22       1.0  0.92696  0.15584  0.95826  1.0000
  H   H23       1.0  0.32228  0.67957  0.85553  1.0000
  H   H24       1.0  0.67772  0.32043  0.14447  1.0000
  H   H25       1.0  0.50380  0.84215  0.01365  1.0000
  H   H26       1.0  0.49620  0.15786  0.98635  1.0000
  H   H27       1.0  0.18098  0.04842  0.09507  1.0000
  H   H28       1.0  0.81902  0.95158  0.90493  1.0000
  H   H29       1.0  0.27764  0.21670  0.23354  1.0000
  H   H30       1.0  0.72237  0.78330  0.76646  1.0000
  H   H31       1.0  0.63249  0.06950  0.34481  1.0000
  H   H32       1.0  0.36752  0.93051  0.65519  1.0000
  H   H33       1.0  0.53308  0.89589  0.20576  1.0000
  H   H34       1.0  0.46691  0.10411  0.79423  1.0000
  H   H35       1.0  0.34529  0.43126  0.33970  1.0000
  H   H36       1.0  0.65471  0.56874  0.66030  1.0000
  H   H37       1.0  0.17264  0.48105  0.45694  1.0000
  H   H38       1.0  0.82736  0.51894  0.54306  1.0000
  H   H39       1.0  0.29339  0.25610  0.70770  1.0000
  H   H40       1.0  0.70661  0.74389  0.29230  1.0000
  H   H41       1.0  0.46609  0.20456  0.58885  1.0000
  H   H42       1.0  0.53391  0.79543  0.41115  1.0000
  H   H43       1.0  0.14717  0.58802  0.61670  1.0000
  H   H44       1.0  0.85283  0.41198  0.38329  1.0000
  H   H45       1.0  0.93980  0.39786  0.86581  1.0000
  H   H46       1.0  0.06020  0.60213  0.13418  1.0000
  H   H47       1.0  0.07297  0.25087  0.75529  1.0000
  H   H48       1.0  0.92703  0.74913  0.24471  1.0000
  C   C1        1.0  0.76118  0.65293  0.93811  1.0000
  C   C2        1.0  0.23883  0.34708  0.06190  1.0000
  C   C3        1.0  0.61007  0.59224  0.95758  1.0000
  C   C4        1.0  0.38994  0.40777  0.04244  1.0000
  C   C5        1.0  0.55430  0.46966  0.89556  1.0000
  C   C6        1.0  0.44571  0.53035  0.10445  1.0000
  C   C7        1.0  0.40325  0.41278  0.91757  1.0000
  C   C8        1.0  0.59676  0.58722  0.08244  1.0000
  C   C9        1.0  0.03279  0.88899  0.71181  1.0000
  C   C10       1.0  0.96720  0.11101  0.28819  1.0000
  C   C11       1.0  0.04839  0.96635  0.61253  1.0000
  C   C12       1.0  0.95160  0.03365  0.38747  1.0000
  C   C13       1.0  0.07307  0.90276  0.50609  1.0000
  C   C14       1.0  0.92692  0.09724  0.49391  1.0000
  C   C15       1.0  0.08414  0.98377  0.40935  1.0000
  C   C16       1.0  0.91586  0.01623  0.59066  1.0000
  C   C17       1.0  0.16521  0.82067  0.01388  1.0000
  C   C18       1.0  0.83478  0.17933  0.98612  1.0000
  C   C19       1.0  0.29805  0.73678  0.91962  1.0000
  C   C20       1.0  0.70196  0.26322  0.08038  1.0000
  C   C21       1.0  0.38890  0.81662  0.99702  1.0000
  C   C22       1.0  0.61110  0.18338  0.00298  1.0000
  C   C23       1.0  0.35303  0.96264  0.14131  1.0000
  C   C24       1.0  0.64696  0.03736  0.85869  1.0000
  C   C25       1.0  0.27868  0.05099  0.14983  1.0000
  C   C26       1.0  0.72132  0.94902  0.85017  1.0000
  C   C27       1.0  0.33350  0.14644  0.22798  1.0000
  C   C28       1.0  0.66650  0.85356  0.77202  1.0000
  C   C29       1.0  0.46154  0.15269  0.29577  1.0000
  C   C30       1.0  0.53846  0.84730  0.70423  1.0000
  C   C31       1.0  0.53355  0.06277  0.29023  1.0000
  C   C32       1.0  0.46645  0.93722  0.70976  1.0000
  C   C33       1.0  0.47834  0.96678  0.21239  1.0000
  C   C34       1.0  0.52166  0.03322  0.78761  1.0000
  C   C35       1.0  0.41590  0.31621  0.45879  1.0000
  C   C36       1.0  0.58410  0.68379  0.54120  1.0000
  C   C37       1.0  0.33445  0.39392  0.42061  1.0000
  C   C38       1.0  0.66555  0.60607  0.57939  1.0000
  C   C39       1.0  0.23736  0.42138  0.48644  1.0000
  C   C40       1.0  0.76264  0.57862  0.51356  1.0000
  C   C41       1.0  0.22367  0.37204  0.58968  1.0000
  C   C42       1.0  0.77633  0.62796  0.41031  1.0000
  C   C43       1.0  0.30381  0.29249  0.62646  1.0000
  C   C44       1.0  0.69618  0.70751  0.37353  1.0000
  C   C45       1.0  0.40034  0.26413  0.56064  1.0000
  C   C46       1.0  0.59966  0.73587  0.43935  1.0000
  C   C47       1.0  0.10448  0.51605  0.66722  1.0000
  C   C48       1.0  0.89552  0.48395  0.33278  1.0000
  C   C49       1.0  0.00135  0.41448  0.79632  1.0000
  C   C50       1.0  0.99865  0.58552  0.20368  1.0000
  C   C51       1.0  0.06631  0.34097  0.74217  1.0000
  C   C52       1.0  0.93369  0.65902  0.25783  1.0000
  S   S1        1.0  0.54536  0.28593  0.37833  1.0000
  S   S2        1.0  0.45464  0.71407  0.62167  1.0000
  N   N1        1.0  0.15972  0.73966  0.93189  1.0000
  N   N2        1.0  0.84029  0.26033  0.06811  1.0000
  N   N3        1.0  0.30344  0.86938  0.05642  1.0000
  N   N4        1.0  0.69656  0.13062  0.94358  1.0000
  N   N5        1.0  0.13127  0.40600  0.65984  1.0000
  N   N6        1.0  0.86873  0.59400  0.34015  1.0000
  N   N7        1.0  0.02685  0.52314  0.74927  1.0000
  N   N8        1.0  0.97316  0.47686  0.25073  1.0000
  O   O1        1.0  0.83775  0.73373  0.00444  1.0000
  O   O2        1.0  0.16225  0.26628  0.99556  1.0000
  O   O3        1.0  0.79910  0.61455  0.84612  1.0000
  O   O4        1.0  0.20091  0.38545  0.15388  1.0000
  O   O5        1.0  0.01107  0.77540  0.68708  1.0000
  O   O6        1.0  0.98892  0.22460  0.31292  1.0000
  O   O7        1.0  0.03663  0.93500  0.80766  1.0000
  O   O8        1.0  0.96336  0.06500  0.19234  1.0000
  O   O9        1.0  0.57442  0.37928  0.30114  1.0000
  O   O10       1.0  0.42559  0.62073  0.69886  1.0000
  O   O11       1.0  0.66239  0.26399  0.45369  1.0000
  O   O12       1.0  0.33761  0.73602  0.54631  1.0000
