data_image0
_chemical_formula_structural       Na2Ca2P4H34C24O42
_chemical_formula_sum              "Na2 Ca2 P4 H34 C24 O42"
_cell_length_a       7.91641
_cell_length_b       11.7954
_cell_length_c       13.2329
_cell_angle_alpha    106.893
_cell_angle_beta     90
_cell_angle_gamma    109.607

_space_group_name_H-M_alt    "P 1"
_space_group_IT_number       1

loop_
  _space_group_symop_operation_xyz
  'x, y, z'

loop_
  _atom_site_type_symbol
  _atom_site_label
  _atom_site_symmetry_multiplicity
  _atom_site_fract_x
  _atom_site_fract_y
  _atom_site_fract_z
  _atom_site_occupancy
  Na  Na1       1.0  0.00000  0.00000  0.50000  1.0000
  Na  Na2       1.0  1.00000  1.00000  1.00000  1.0000
  Ca  Ca1       1.0  0.37387  0.00000  0.25010  1.0000
  Ca  Ca2       1.0  0.62612  1.00000  0.74991  1.0000
  P   P1        1.0  0.24383  0.82462  0.40620  1.0000
  P   P2        1.0  0.58070  0.82474  0.90615  1.0000
  P   P3        1.0  0.75617  0.17539  0.59381  1.0000
  P   P4        1.0  0.41930  0.17526  0.09385  1.0000
  H   H1        1.0  0.46316  0.69122  0.33996  1.0000
  H   H2        1.0  0.22787  0.69154  0.83994  1.0000
  H   H3        1.0  0.53684  0.30878  0.66004  1.0000
  H   H4        1.0  0.77213  0.30846  0.16006  1.0000
  H   H5        1.0  0.35194  0.63718  0.96975  1.0000
  H   H6        1.0  0.28454  0.63705  0.46976  1.0000
  H   H7        1.0  0.64806  0.36282  0.03025  1.0000
  H   H8        1.0  0.71546  0.36296  0.53024  1.0000
  H   H9        1.0  0.75005  0.77689  0.05362  1.0000
  H   H10       1.0  0.02684  0.77673  0.55370  1.0000
  H   H11       1.0  0.24995  0.22310  0.94638  1.0000
  H   H12       1.0  0.97316  0.22327  0.44630  1.0000
  H   H13       1.0  0.50000  0.00000  0.50000  1.0000
  H   H14       1.0  0.50000  1.00000  0.00000  1.0000
  H   H15       1.0  0.72578  0.96287  0.29270  1.0000
  H   H16       1.0  0.23705  0.96271  0.79291  1.0000
  H   H17       1.0  0.27421  0.03713  0.70730  1.0000
  H   H18       1.0  0.76294  0.03729  0.20709  1.0000
  H   H19       1.0  0.76739  0.56764  0.21463  1.0000
  H   H20       1.0  0.79993  0.56758  0.71472  1.0000
  H   H21       1.0  0.23261  0.43237  0.78537  1.0000
  H   H22       1.0  0.20007  0.43243  0.28528  1.0000
  H   H23       1.0  0.89897  0.63246  0.33857  1.0000
  H   H24       1.0  0.73317  0.63256  0.83863  1.0000
  H   H25       1.0  0.10103  0.36754  0.66143  1.0000
  H   H26       1.0  0.26684  0.36744  0.16137  1.0000
  H   H27       1.0  0.12833  0.58574  0.20765  1.0000
  H   H28       1.0  0.45695  0.58579  0.70758  1.0000
  H   H29       1.0  0.87167  0.41426  0.79235  1.0000
  H   H30       1.0  0.54305  0.41421  0.29242  1.0000
  H   H31       1.0  0.97783  0.55525  0.09674  1.0000
  H   H32       1.0  0.57699  0.55522  0.59672  1.0000
  H   H33       1.0  0.02217  0.44475  0.90326  1.0000
  H   H34       1.0  0.42302  0.44478  0.40328  1.0000
  C   C1        1.0  0.72285  0.72876  0.31727  1.0000
  C   C2        1.0  0.00547  0.72885  0.81727  1.0000
  C   C3        1.0  0.27715  0.27125  0.68273  1.0000
  C   C4        1.0  0.99452  0.27115  0.18273  1.0000
  C   C5        1.0  0.84741  0.65720  0.27373  1.0000
  C   C6        1.0  0.80941  0.65719  0.77373  1.0000
  C   C7        1.0  0.15259  0.34280  0.72627  1.0000
  C   C8        1.0  0.19059  0.34281  0.22627  1.0000
  C   C9        1.0  0.00763  0.72759  0.22316  1.0000
  C   C10       1.0  0.71965  0.72753  0.72308  1.0000
  C   C11       1.0  0.99237  0.27241  0.77684  1.0000
  C   C12       1.0  0.28035  0.27247  0.27692  1.0000
  C   C13       1.0  0.08517  0.63041  0.15526  1.0000
  C   C14       1.0  0.54488  0.63043  0.65522  1.0000
  C   C15       1.0  0.91483  0.36959  0.84474  1.0000
  C   C16       1.0  0.45512  0.36957  0.34479  1.0000
  C   C17       1.0  0.24300  0.68314  0.09797  1.0000
  C   C18       1.0  0.43985  0.68321  0.59787  1.0000
  C   C19       1.0  0.75701  0.31686  0.90203  1.0000
  C   C20       1.0  0.56014  0.31679  0.40213  1.0000
  C   C21       1.0  0.94906  0.79352  0.15152  1.0000
  C   C22       1.0  0.84426  0.79327  0.65138  1.0000
  C   C23       1.0  0.05094  0.20648  0.84848  1.0000
  C   C24       1.0  0.15574  0.20673  0.34862  1.0000
  O   O1        1.0  0.77317  0.84484  0.35722  1.0000
  O   O2        1.0  0.07106  0.84497  0.85731  1.0000
  O   O3        1.0  0.22683  0.15516  0.64278  1.0000
  O   O4        1.0  0.92894  0.15503  0.14269  1.0000
  O   O5        1.0  0.55432  0.65033  0.30808  1.0000
  O   O6        1.0  0.09582  0.65056  0.80801  1.0000
  O   O7        1.0  0.44569  0.34967  0.69191  1.0000
  O   O8        1.0  0.90418  0.34944  0.19199  1.0000
  O   O9        1.0  0.34234  0.79512  0.12177  1.0000
  O   O10       1.0  0.45294  0.79523  0.62143  1.0000
  O   O11       1.0  0.65765  0.20487  0.87823  1.0000
  O   O12       1.0  0.54706  0.20478  0.37857  1.0000
  O   O13       1.0  0.26480  0.59406  0.01615  1.0000
  O   O14       1.0  0.32852  0.59400  0.51628  1.0000
  O   O15       1.0  0.73520  0.40594  0.98385  1.0000
  O   O16       1.0  0.67148  0.40600  0.48372  1.0000
  O   O17       1.0  0.05103  0.89498  0.14203  1.0000
  O   O18       1.0  0.84352  0.89457  0.64160  1.0000
  O   O19       1.0  0.94897  0.10502  0.85797  1.0000
  O   O20       1.0  0.15648  0.10543  0.35840  1.0000
  O   O21       1.0  0.78731  0.72797  0.10180  1.0000
  O   O22       1.0  0.94075  0.72780  0.60191  1.0000
  O   O23       1.0  0.21269  0.27203  0.89820  1.0000
  O   O24       1.0  0.05925  0.27220  0.39809  1.0000
  O   O25       1.0  0.14539  0.82876  0.29943  1.0000
  O   O26       1.0  0.68318  0.82878  0.79933  1.0000
  O   O27       1.0  0.85461  0.17124  0.70057  1.0000
  O   O28       1.0  0.31682  0.17122  0.20067  1.0000
  O   O29       1.0  0.41578  0.94016  0.41427  1.0000
  O   O30       1.0  0.52452  0.94039  0.91423  1.0000
  O   O31       1.0  0.58422  0.05984  0.58573  1.0000
  O   O32       1.0  0.47548  0.05961  0.08576  1.0000
  O   O33       1.0  0.27534  0.69913  0.38171  1.0000
  O   O34       1.0  0.42348  0.69938  0.88175  1.0000
  O   O35       1.0  0.72466  0.30087  0.61829  1.0000
  O   O36       1.0  0.57652  0.30061  0.11825  1.0000
  O   O37       1.0  0.12762  0.84892  0.49484  1.0000
  O   O38       1.0  0.72119  0.84898  0.99479  1.0000
  O   O39       1.0  0.87239  0.15108  0.50516  1.0000
  O   O40       1.0  0.27881  0.15102  0.00521  1.0000
  O   O41       1.0  0.67297  0.00019  0.24998  1.0000
  O   O42       1.0  0.32703  0.99982  0.75002  1.0000
