data_image0
_chemical_formula_structural       Na4H28C24N24O32
_chemical_formula_sum              "Na4 H28 C24 N24 O32"
_cell_length_a       6.55326
_cell_length_b       12.9331
_cell_length_c       13.087
_cell_angle_alpha    90
_cell_angle_beta     90.539
_cell_angle_gamma    90

_space_group_name_H-M_alt    "P 1"
_space_group_IT_number       1

loop_
  _space_group_symop_operation_xyz
  'x, y, z'

loop_
  _atom_site_type_symbol
  _atom_site_label
  _atom_site_symmetry_multiplicity
  _atom_site_fract_x
  _atom_site_fract_y
  _atom_site_fract_z
  _atom_site_occupancy
  Na  Na1       1.0  0.73170  0.87189  0.06189  1.0000
  Na  Na2       1.0  0.76831  0.37189  0.93811  1.0000
  Na  Na3       1.0  0.26831  0.12811  0.93810  1.0000
  Na  Na4       1.0  0.23170  0.62811  0.06189  1.0000
  H   H1        1.0  0.86386  0.04765  0.94012  1.0000
  H   H2        1.0  0.63615  0.54765  0.05988  1.0000
  H   H3        1.0  0.13615  0.95235  0.05988  1.0000
  H   H4        1.0  0.36385  0.45235  0.94012  1.0000
  H   H5        1.0  0.50205  0.93775  0.92516  1.0000
  H   H6        1.0  0.99796  0.43775  0.07484  1.0000
  H   H7        1.0  0.49795  0.06225  0.07484  1.0000
  H   H8        1.0  0.00205  0.56225  0.92516  1.0000
  H   H9        1.0  0.36779  0.83883  0.94060  1.0000
  H   H10       1.0  0.13222  0.33882  0.05940  1.0000
  H   H11       1.0  0.63222  0.16117  0.05940  1.0000
  H   H12       1.0  0.86779  0.66118  0.94060  1.0000
  H   H13       1.0  0.79100  0.72954  0.62052  1.0000
  H   H14       1.0  0.70900  0.22954  0.37948  1.0000
  H   H15       1.0  0.20899  0.27045  0.37947  1.0000
  H   H16       1.0  0.29101  0.77046  0.62053  1.0000
  H   H17       1.0  0.74045  0.80484  0.50836  1.0000
  H   H18       1.0  0.75955  0.30484  0.49164  1.0000
  H   H19       1.0  0.25955  0.19515  0.49164  1.0000
  H   H20       1.0  0.24045  0.69516  0.50836  1.0000
  H   H21       1.0  0.68517  0.94971  0.28994  1.0000
  H   H22       1.0  0.81484  0.44971  0.71006  1.0000
  H   H23       1.0  0.31484  0.05029  0.71006  1.0000
  H   H24       1.0  0.18516  0.55029  0.28994  1.0000
  H   H25       1.0  0.69669  0.04605  0.21998  1.0000
  H   H26       1.0  0.80331  0.54605  0.78002  1.0000
  H   H27       1.0  0.30332  0.95395  0.78003  1.0000
  H   H28       1.0  0.19668  0.45395  0.21998  1.0000
  C   C1        1.0  0.83630  0.97199  0.81436  1.0000
  C   C2        1.0  0.66370  0.47199  0.18564  1.0000
  C   C3        1.0  0.16370  0.02801  0.18564  1.0000
  C   C4        1.0  0.33630  0.52801  0.81436  1.0000
  C   C5        1.0  0.81403  0.87956  0.75061  1.0000
  C   C6        1.0  0.68597  0.37955  0.24940  1.0000
  C   C7        1.0  0.18597  0.12044  0.24939  1.0000
  C   C8        1.0  0.31402  0.62044  0.75060  1.0000
  C   C9        1.0  0.78690  0.88453  0.63964  1.0000
  C   C10       1.0  0.71309  0.38453  0.36037  1.0000
  C   C11       1.0  0.21310  0.11547  0.36036  1.0000
  C   C12       1.0  0.28689  0.61547  0.63964  1.0000
  C   C13       1.0  0.77227  0.98364  0.58851  1.0000
  C   C14       1.0  0.72771  0.48364  0.41149  1.0000
  C   C15       1.0  0.22772  0.01635  0.41149  1.0000
  C   C16       1.0  0.27227  0.51636  0.58851  1.0000
  C   C17       1.0  0.80537  0.07587  0.64687  1.0000
  C   C18       1.0  0.69462  0.57586  0.35314  1.0000
  C   C19       1.0  0.19462  0.92414  0.35313  1.0000
  C   C20       1.0  0.30537  0.42414  0.64687  1.0000
  C   C21       1.0  0.84126  0.06696  0.75395  1.0000
  C   C22       1.0  0.65875  0.56696  0.24606  1.0000
  C   C23       1.0  0.15875  0.93304  0.24605  1.0000
  C   C24       1.0  0.34125  0.43304  0.75395  1.0000
  N   N1        1.0  0.81413  0.17437  0.61728  1.0000
  N   N2        1.0  0.68586  0.67436  0.38272  1.0000
  N   N3        1.0  0.18587  0.82564  0.38272  1.0000
  N   N4        1.0  0.31413  0.32563  0.61728  1.0000
  N   N5        1.0  0.85234  0.97324  0.91343  1.0000
  N   N6        1.0  0.64767  0.47325  0.08657  1.0000
  N   N7        1.0  0.14767  0.02676  0.08657  1.0000
  N   N8        1.0  0.35234  0.52676  0.91343  1.0000
  N   N9        1.0  0.87673  0.16112  0.79008  1.0000
  N   N10       1.0  0.62327  0.66112  0.20992  1.0000
  N   N11       1.0  0.12327  0.83888  0.20991  1.0000
  N   N12       1.0  0.37673  0.33888  0.79008  1.0000
  N   N13       1.0  0.81329  0.78346  0.79939  1.0000
  N   N14       1.0  0.68672  0.28346  0.20061  1.0000
  N   N15       1.0  0.18672  0.21654  0.20061  1.0000
  N   N16       1.0  0.31328  0.71654  0.79939  1.0000
  N   N17       1.0  0.77055  0.79904  0.58504  1.0000
  N   N18       1.0  0.72946  0.29904  0.41496  1.0000
  N   N19       1.0  0.22945  0.20096  0.41496  1.0000
  N   N20       1.0  0.27055  0.70096  0.58504  1.0000
  N   N21       1.0  0.74000  0.99350  0.48378  1.0000
  N   N22       1.0  0.75999  0.49350  0.51623  1.0000
  N   N23       1.0  0.26000  0.00649  0.51622  1.0000
  N   N24       1.0  0.23999  0.50650  0.48378  1.0000
  O   O1        1.0  0.78518  0.77779  0.89483  1.0000
  O   O2        1.0  0.71482  0.27779  0.10516  1.0000
  O   O3        1.0  0.21482  0.22221  0.10516  1.0000
  O   O4        1.0  0.28519  0.72222  0.89484  1.0000
  O   O5        1.0  0.42300  0.90067  0.97629  1.0000
  O   O6        1.0  0.07701  0.40068  0.02371  1.0000
  O   O7        1.0  0.57701  0.09933  0.02371  1.0000
  O   O8        1.0  0.92300  0.59933  0.97629  1.0000
  O   O9        1.0  0.68408  0.97056  0.21714  1.0000
  O   O10       1.0  0.81593  0.47056  0.78287  1.0000
  O   O11       1.0  0.31592  0.02944  0.78287  1.0000
  O   O12       1.0  0.18407  0.52944  0.21713  1.0000
  O   O13       1.0  0.84122  0.69973  0.74985  1.0000
  O   O14       1.0  0.65878  0.19972  0.25016  1.0000
  O   O15       1.0  0.15878  0.30027  0.25015  1.0000
  O   O16       1.0  0.34122  0.80028  0.74985  1.0000
  O   O17       1.0  0.70760  0.91436  0.42680  1.0000
  O   O18       1.0  0.79240  0.41436  0.57321  1.0000
  O   O19       1.0  0.29240  0.08564  0.57321  1.0000
  O   O20       1.0  0.20760  0.58564  0.42680  1.0000
  O   O21       1.0  0.74306  0.08235  0.44511  1.0000
  O   O22       1.0  0.75692  0.58234  0.55490  1.0000
  O   O23       1.0  0.25694  0.91765  0.55490  1.0000
  O   O24       1.0  0.24305  0.41765  0.44511  1.0000
  O   O25       1.0  0.85917  0.23173  0.70319  1.0000
  O   O26       1.0  0.64083  0.73173  0.29681  1.0000
  O   O27       1.0  0.14083  0.76827  0.29681  1.0000
  O   O28       1.0  0.35917  0.26827  0.70319  1.0000
  O   O29       1.0  0.92462  0.19828  0.87528  1.0000
  O   O30       1.0  0.57538  0.69827  0.12472  1.0000
  O   O31       1.0  0.07538  0.80172  0.12471  1.0000
  O   O32       1.0  0.42462  0.30173  0.87529  1.0000
