data_image0
_chemical_formula_structural       Zn6H48C52N24Cl4O12
_chemical_formula_sum              "Zn6 H48 C52 N24 Cl4 O12"
_cell_length_a       6.82793
_cell_length_b       11.224
_cell_length_c       22.3813
_cell_angle_alpha    87.2149
_cell_angle_beta     80.8078
_cell_angle_gamma    72.2918

_space_group_name_H-M_alt    "P 1"
_space_group_IT_number       1

loop_
  _space_group_symop_operation_xyz
  'x, y, z'

loop_
  _atom_site_type_symbol
  _atom_site_label
  _atom_site_symmetry_multiplicity
  _atom_site_fract_x
  _atom_site_fract_y
  _atom_site_fract_z
  _atom_site_occupancy
  Zn  Zn1       1.0  0.89142  0.49978  0.50038  1.0000
  Zn  Zn2       1.0  0.14133  0.00014  0.00033  1.0000
  Zn  Zn3       1.0  0.72974  0.11535  0.41511  1.0000
  Zn  Zn4       1.0  0.26143  0.88264  0.58505  1.0000
  Zn  Zn5       1.0  0.89425  0.61728  0.08499  1.0000
  Zn  Zn6       1.0  0.59502  0.38469  0.91509  1.0000
  H   H1        1.0  0.85042  0.23821  0.49889  1.0000
  H   H2        1.0  0.58949  0.76142  0.50065  1.0000
  H   H3        1.0  0.10107  0.73859  0.00068  1.0000
  H   H4        1.0  0.83841  0.26159  0.99895  1.0000
  H   H5        1.0  0.99031  0.09456  0.48705  1.0000
  H   H6        1.0  0.57309  0.90525  0.51259  1.0000
  H   H7        1.0  0.22846  0.59473  0.01253  1.0000
  H   H8        1.0  0.83491  0.40518  0.98708  1.0000
  H   H9        1.0  0.04587  0.25937  0.36382  1.0000
  H   H10       1.0  0.67077  0.73900  0.63568  1.0000
  H   H11       1.0  0.15978  0.76109  0.13570  1.0000
  H   H12       1.0  0.05512  0.24090  0.86396  1.0000
  H   H13       1.0  0.22927  0.29748  0.26215  1.0000
  H   H14       1.0  0.78938  0.70322  0.73686  1.0000
  H   H15       1.0  0.24158  0.79721  0.23699  1.0000
  H   H16       1.0  0.27688  0.20231  0.76235  1.0000
  H   H17       1.0  0.17718  0.19312  0.17056  1.0000
  H   H18       1.0  0.53860  0.80802  0.82869  1.0000
  H   H19       1.0  0.09608  0.69200  0.32873  1.0000
  H   H20       1.0  0.12049  0.30600  0.67065  1.0000
  H   H21       1.0  0.93681  0.06618  0.18411  1.0000
  H   H22       1.0  0.18439  0.93388  0.81571  1.0000
  H   H23       1.0  0.86866  0.56559  0.31561  1.0000
  H   H24       1.0  0.75336  0.43325  0.68404  1.0000
  H   H25       1.0  0.72902  0.96412  0.20183  1.0000
  H   H26       1.0  0.89281  0.03723  0.79819  1.0000
  H   H27       1.0  0.67982  0.46279  0.29810  1.0000
  H   H28       1.0  0.44373  0.53637  0.70181  1.0000
  H   H29       1.0  0.47697  0.85151  0.22789  1.0000
  H   H30       1.0  0.55564  0.15064  0.77243  1.0000
  H   H31       1.0  0.45534  0.34987  0.27237  1.0000
  H   H32       1.0  0.07897  0.64882  0.72782  1.0000
  H   H33       1.0  0.29113  0.85710  0.33774  1.0000
  H   H34       1.0  0.48754  0.14346  0.66295  1.0000
  H   H35       1.0  0.37966  0.35738  0.16290  1.0000
  H   H36       1.0  0.89845  0.64279  0.83760  1.0000
  H   H37       1.0  0.39587  0.97310  0.41392  1.0000
  H   H38       1.0  0.78564  0.02485  0.58677  1.0000
  H   H39       1.0  0.55978  0.47564  0.08674  1.0000
  H   H40       1.0  0.11899  0.52678  0.91381  1.0000
  H   H41       1.0  0.17741  0.29679  0.55957  1.0000
  H   H42       1.0  0.03548  0.70235  0.44091  1.0000
  H   H43       1.0  0.48838  0.79746  0.94082  1.0000
  H   H44       1.0  0.22411  0.20314  0.05946  1.0000
  H   H45       1.0  0.44389  0.28990  0.55241  1.0000
  H   H46       1.0  0.28769  0.70987  0.44753  1.0000
  H   H47       1.0  0.74807  0.79004  0.94741  1.0000
  H   H48       1.0  0.48376  0.20999  0.05223  1.0000
  C   C1        1.0  0.02547  0.21867  0.32285  1.0000
  C   C2        1.0  0.56771  0.78021  0.67669  1.0000
  C   C3        1.0  0.09787  0.71983  0.17668  1.0000
  C   C4        1.0  0.99411  0.28143  0.82297  1.0000
  C   C5        1.0  0.12856  0.23822  0.26606  1.0000
  C   C6        1.0  0.63281  0.76182  0.73325  1.0000
  C   C7        1.0  0.14409  0.73835  0.23329  1.0000
  C   C8        1.0  0.11690  0.26157  0.76620  1.0000
  C   C9        1.0  0.09817  0.18148  0.21576  1.0000
  C   C10       1.0  0.49398  0.81882  0.78365  1.0000
  C   C11       1.0  0.06261  0.68106  0.28366  1.0000
  C   C12       1.0  0.02978  0.31795  0.71585  1.0000
  C   C13       1.0  0.96235  0.10937  0.22349  1.0000
  C   C14       1.0  0.29350  0.89035  0.77623  1.0000
  C   C15       1.0  0.93423  0.60920  0.27616  1.0000
  C   C16       1.0  0.82196  0.39026  0.72349  1.0000
  C   C17       1.0  0.85974  0.09641  0.28169  1.0000
  C   C18       1.0  0.23722  0.90251  0.71824  1.0000
  C   C19       1.0  0.89016  0.59720  0.21815  1.0000
  C   C20       1.0  0.70638  0.40366  0.78168  1.0000
  C   C21       1.0  0.70527  0.02658  0.29401  1.0000
  C   C22       1.0  0.02551  0.97248  0.70617  1.0000
  C   C23       1.0  0.74823  0.52737  0.20609  1.0000
  C   C24       1.0  0.48213  0.47364  0.79399  1.0000
  C   C25       1.0  0.65598  0.96416  0.24876  1.0000
  C   C26       1.0  0.86775  0.03625  0.75141  1.0000
  C   C27       1.0  0.65390  0.46377  0.25132  1.0000
  C   C28       1.0  0.37053  0.53616  0.74872  1.0000
  C   C29       1.0  0.50945  0.90040  0.26419  1.0000
  C   C30       1.0  0.67364  0.10052  0.73614  1.0000
  C   C31       1.0  0.52354  0.39982  0.23608  1.0000
  C   C32       1.0  0.16021  0.59984  0.76412  1.0000
  C   C33       1.0  0.41121  0.90254  0.32384  1.0000
  C   C34       1.0  0.63852  0.09743  0.67670  1.0000
  C   C35       1.0  0.48503  0.40310  0.17667  1.0000
  C   C36       1.0  0.06402  0.59746  0.82374  1.0000
  C   C37       1.0  0.46723  0.96753  0.36651  1.0000
  C   C38       1.0  0.80279  0.03109  0.63404  1.0000
  C   C39       1.0  0.58332  0.46928  0.13400  1.0000
  C   C40       1.0  0.18490  0.53249  0.86642  1.0000
  C   C41       1.0  0.32461  0.31133  0.46966  1.0000
  C   C42       1.0  0.10531  0.68799  0.53058  1.0000
  C   C43       1.0  0.54381  0.81203  0.03046  1.0000
  C   C44       1.0  0.38557  0.18870  0.96952  1.0000
  C   C45       1.0  0.33013  0.25952  0.53182  1.0000
  C   C46       1.0  0.12227  0.73989  0.46840  1.0000
  C   C47       1.0  0.61270  0.76004  0.96832  1.0000
  C   C48       1.0  0.33951  0.24041  0.03170  1.0000
  C   C49       1.0  0.39398  0.11664  0.53474  1.0000
  C   C50       1.0  0.04555  0.88276  0.46553  1.0000
  C   C51       1.0  0.67885  0.61714  0.96549  1.0000
  C   C52       1.0  0.26057  0.38329  0.03467  1.0000
  N   N1        1.0  0.89454  0.14958  0.33025  1.0000
  N   N2        1.0  0.37488  0.84871  0.66956  1.0000
  N   N3        1.0  0.97385  0.65114  0.16952  1.0000
  N   N4        1.0  0.79419  0.35061  0.83030  1.0000
  N   N5        1.0  0.61162  0.02660  0.35198  1.0000
  N   N6        1.0  0.99103  0.97156  0.64840  1.0000
  N   N7        1.0  0.71260  0.52846  0.14833  1.0000
  N   N8        1.0  0.38839  0.47349  0.85194  1.0000
  N   N9        1.0  0.47878  0.27831  0.42283  1.0000
  N   N10       1.0  0.17948  0.72054  0.57711  1.0000
  N   N11       1.0  0.65047  0.77947  0.07701  1.0000
  N   N12       1.0  0.50678  0.22173  0.92271  1.0000
  N   N13       1.0  0.40984  0.34760  0.37493  1.0000
  N   N14       1.0  0.13124  0.65088  0.62507  1.0000
  N   N15       1.0  0.53258  0.84919  0.12496  1.0000
  N   N16       1.0  0.50715  0.15244  0.87481  1.0000
  N   N17       1.0  0.22118  0.42072  0.39172  1.0000
  N   N18       1.0  0.03225  0.57806  0.60860  1.0000
  N   N19       1.0  0.36086  0.92207  0.10846  1.0000
  N   N20       1.0  0.39158  0.07933  0.89157  1.0000
  N   N21       1.0  0.16310  0.39925  0.45115  1.0000
  N   N22       1.0  0.01259  0.60007  0.54934  1.0000
  N   N23       1.0  0.36324  0.90003  0.04920  1.0000
  N   N24       1.0  0.31198  0.10081  0.95100  1.0000
  Cl  Cl1       1.0  0.68718  0.61578  0.43536  1.0000
  Cl  Cl2       1.0  0.73591  0.38330  0.56530  1.0000
  Cl  Cl3       1.0  0.86946  0.11656  0.06531  1.0000
  Cl  Cl4       1.0  0.05303  0.88413  0.93534  1.0000
  O   O1        1.0  0.91699  0.17432  0.46694  1.0000
  O   O2        1.0  0.55948  0.82520  0.53265  1.0000
  O   O3        1.0  0.13499  0.67475  0.03264  1.0000
  O   O4        1.0  0.84110  0.32547  0.96700  1.0000
  O   O5        1.0  0.54071  0.05315  0.49493  1.0000
  O   O6        1.0  0.08867  0.94629  0.50498  1.0000
  O   O7        1.0  0.78542  0.55356  0.00494  1.0000
  O   O8        1.0  0.34378  0.44680  0.99485  1.0000
  O   O9        1.0  0.29948  0.06984  0.57820  1.0000
  O   O10       1.0  0.94797  0.92930  0.42235  1.0000
  O   O11       1.0  0.62789  0.57063  0.92228  1.0000
  O   O12       1.0  0.11956  0.43014  0.07817  1.0000
