data_image0
_chemical_formula_structural       Zn8H32C24N32O24
_chemical_formula_sum              "Zn8 H32 C24 N32 O24"
_cell_length_a       7.68766
_cell_length_b       12.832
_cell_length_c       12.7076
_cell_angle_alpha    90
_cell_angle_beta     90
_cell_angle_gamma    90

_space_group_name_H-M_alt    "P 1"
_space_group_IT_number       1

loop_
  _space_group_symop_operation_xyz
  'x, y, z'

loop_
  _atom_site_type_symbol
  _atom_site_label
  _atom_site_symmetry_multiplicity
  _atom_site_fract_x
  _atom_site_fract_y
  _atom_site_fract_z
  _atom_site_occupancy
  Zn  Zn1       1.0  0.12656  0.50321  0.71333  1.0000
  Zn  Zn2       1.0  0.12656  0.99679  0.78667  1.0000
  Zn  Zn3       1.0  0.62660  0.28604  0.00250  1.0000
  Zn  Zn4       1.0  0.62660  0.21396  0.49750  1.0000
  Zn  Zn5       1.0  0.87344  0.49679  0.28667  1.0000
  Zn  Zn6       1.0  0.87344  0.00321  0.21333  1.0000
  Zn  Zn7       1.0  0.37339  0.71396  0.99750  1.0000
  Zn  Zn8       1.0  0.37340  0.78604  0.50250  1.0000
  H   H1        1.0  0.85052  0.41794  0.60494  1.0000
  H   H2        1.0  0.85052  0.08206  0.89506  1.0000
  H   H3        1.0  0.35031  0.39471  0.91799  1.0000
  H   H4        1.0  0.35031  0.10529  0.58201  1.0000
  H   H5        1.0  0.14948  0.58206  0.39506  1.0000
  H   H6        1.0  0.14948  0.91794  0.10494  1.0000
  H   H7        1.0  0.64969  0.60529  0.08201  1.0000
  H   H8        1.0  0.64969  0.89471  0.41799  1.0000
  H   H9        1.0  0.01296  0.34060  0.60287  1.0000
  H   H10       1.0  0.01296  0.15940  0.89713  1.0000
  H   H11       1.0  0.51270  0.39796  0.83970  1.0000
  H   H12       1.0  0.51270  0.10203  0.66030  1.0000
  H   H13       1.0  0.98704  0.65940  0.39713  1.0000
  H   H14       1.0  0.98704  0.84060  0.10287  1.0000
  H   H15       1.0  0.48730  0.60204  0.16030  1.0000
  H   H16       1.0  0.48730  0.89796  0.33971  1.0000
  H   H17       1.0  0.80576  0.76459  0.58591  1.0000
  H   H18       1.0  0.80576  0.73541  0.91409  1.0000
  H   H19       1.0  0.30602  0.41446  0.26530  1.0000
  H   H20       1.0  0.30602  0.08554  0.23470  1.0000
  H   H21       1.0  0.19424  0.23541  0.41409  1.0000
  H   H22       1.0  0.19424  0.26459  0.08591  1.0000
  H   H23       1.0  0.69398  0.58554  0.73470  1.0000
  H   H24       1.0  0.69398  0.91446  0.76530  1.0000
  H   H25       1.0  0.96013  0.84130  0.65081  1.0000
  H   H26       1.0  0.96013  0.65870  0.84919  1.0000
  H   H27       1.0  0.46028  0.35084  0.34338  1.0000
  H   H28       1.0  0.46028  0.14916  0.15662  1.0000
  H   H29       1.0  0.03987  0.15870  0.34919  1.0000
  H   H30       1.0  0.03987  0.34130  0.15081  1.0000
  H   H31       1.0  0.53973  0.64916  0.65662  1.0000
  H   H32       1.0  0.53972  0.85084  0.84338  1.0000
  C   C1        1.0  0.98945  0.83740  0.48484  1.0000
  C   C2        1.0  0.98945  0.66260  0.01516  1.0000
  C   C3        1.0  0.48952  0.51523  0.33801  1.0000
  C   C4        1.0  0.48952  0.98477  0.16199  1.0000
  C   C5        1.0  0.01055  0.16260  0.51516  1.0000
  C   C6        1.0  0.01055  0.33740  0.98484  1.0000
  C   C7        1.0  0.51048  0.48477  0.66200  1.0000
  C   C8        1.0  0.51048  0.01523  0.83800  1.0000
  C   C9        1.0  0.94388  0.78537  0.58564  1.0000
  C   C10       1.0  0.94388  0.71463  0.91436  1.0000
  C   C11       1.0  0.44411  0.41491  0.28638  1.0000
  C   C12       1.0  0.44411  0.08509  0.21362  1.0000
  C   C13       1.0  0.05611  0.21463  0.41436  1.0000
  C   C14       1.0  0.05612  0.28537  0.08564  1.0000
  C   C15       1.0  0.55590  0.58509  0.71362  1.0000
  C   C16       1.0  0.55590  0.91491  0.78638  1.0000
  C   C17       1.0  0.05405  0.69179  0.61730  1.0000
  C   C18       1.0  0.05405  0.80821  0.88270  1.0000
  C   C19       1.0  0.55425  0.38270  0.19211  1.0000
  C   C20       1.0  0.55425  0.11730  0.30789  1.0000
  C   C21       1.0  0.94597  0.30822  0.38269  1.0000
  C   C22       1.0  0.94597  0.19178  0.11731  1.0000
  C   C23       1.0  0.44573  0.61730  0.80789  1.0000
  C   C24       1.0  0.44573  0.88270  0.69211  1.0000
  N   N1        1.0  0.87560  0.88624  0.42190  1.0000
  N   N2        1.0  0.87559  0.61376  0.07810  1.0000
  N   N3        1.0  0.37549  0.57846  0.38602  1.0000
  N   N4        1.0  0.37549  0.92154  0.11398  1.0000
  N   N5        1.0  0.12440  0.11376  0.57810  1.0000
  N   N6        1.0  0.12440  0.38624  0.92190  1.0000
  N   N7        1.0  0.62451  0.42154  0.61398  1.0000
  N   N8        1.0  0.62451  0.07846  0.88602  1.0000
  N   N9        1.0  0.97173  0.92329  0.34158  1.0000
  N   N10       1.0  0.97173  0.57671  0.15842  1.0000
  N   N11       1.0  0.47164  0.65837  0.42261  1.0000
  N   N12       1.0  0.47164  0.84163  0.07739  1.0000
  N   N13       1.0  0.02826  0.07670  0.65842  1.0000
  N   N14       1.0  0.02827  0.42330  0.84159  1.0000
  N   N15       1.0  0.52836  0.34163  0.57739  1.0000
  N   N16       1.0  0.52836  0.15837  0.92261  1.0000
  N   N17       1.0  0.13664  0.89894  0.35278  1.0000
  N   N18       1.0  0.13664  0.60106  0.14722  1.0000
  N   N19       1.0  0.63677  0.64661  0.39881  1.0000
  N   N20       1.0  0.63677  0.85338  0.10118  1.0000
  N   N21       1.0  0.86336  0.10106  0.64722  1.0000
  N   N22       1.0  0.86336  0.39894  0.85278  1.0000
  N   N23       1.0  0.36323  0.35339  0.60119  1.0000
  N   N24       1.0  0.36323  0.14661  0.89881  1.0000
  N   N25       1.0  0.15043  0.84511  0.44266  1.0000
  N   N26       1.0  0.15043  0.65490  0.05734  1.0000
  N   N27       1.0  0.65065  0.55678  0.34584  1.0000
  N   N28       1.0  0.65065  0.94322  0.15416  1.0000
  N   N29       1.0  0.84957  0.15489  0.55733  1.0000
  N   N30       1.0  0.84957  0.34510  0.94267  1.0000
  N   N31       1.0  0.34935  0.44322  0.65416  1.0000
  N   N32       1.0  0.34935  0.05678  0.84584  1.0000
  O   O1        1.0  0.21086  0.68210  0.58955  1.0000
  O   O2        1.0  0.21084  0.81790  0.91045  1.0000
  O   O3        1.0  0.71068  0.41082  0.18161  1.0000
  O   O4        1.0  0.71067  0.08918  0.31839  1.0000
  O   O5        1.0  0.78914  0.31790  0.41045  1.0000
  O   O6        1.0  0.78914  0.18210  0.08955  1.0000
  O   O7        1.0  0.28934  0.58919  0.81839  1.0000
  O   O8        1.0  0.28934  0.91081  0.68161  1.0000
  O   O9        1.0  0.98137  0.41395  0.60278  1.0000
  O   O10       1.0  0.98138  0.08605  0.89722  1.0000
  O   O11       1.0  0.48119  0.39617  0.91375  1.0000
  O   O12       1.0  0.48119  0.10383  0.58625  1.0000
  O   O13       1.0  0.01862  0.58606  0.39722  1.0000
  O   O14       1.0  0.01862  0.91394  0.10278  1.0000
  O   O15       1.0  0.51880  0.60383  0.08625  1.0000
  O   O16       1.0  0.51880  0.89617  0.41375  1.0000
  O   O17       1.0  0.97760  0.62572  0.67736  1.0000
  O   O18       1.0  0.97760  0.87429  0.82264  1.0000
  O   O19       1.0  0.47809  0.32196  0.12649  1.0000
  O   O20       1.0  0.47809  0.17803  0.37350  1.0000
  O   O21       1.0  0.02240  0.37428  0.32264  1.0000
  O   O22       1.0  0.02240  0.12572  0.17736  1.0000
  O   O23       1.0  0.52191  0.67804  0.87351  1.0000
  O   O24       1.0  0.52192  0.82196  0.62649  1.0000
