data_image0
_chemical_formula_structural       H12Pb2C12N8O6
_chemical_formula_sum              "H12 Pb2 C12 N8 O6"
_cell_length_a       7.01903
_cell_length_b       8.02664
_cell_length_c       8.65673
_cell_angle_alpha    87.1863
_cell_angle_beta     70.2212
_cell_angle_gamma    68.7465

_space_group_name_H-M_alt    "P 1"
_space_group_IT_number       1

loop_
  _space_group_symop_operation_xyz
  'x, y, z'

loop_
  _atom_site_type_symbol
  _atom_site_label
  _atom_site_symmetry_multiplicity
  _atom_site_fract_x
  _atom_site_fract_y
  _atom_site_fract_z
  _atom_site_occupancy
  H   H1        1.0  0.93932  0.05010  0.23524  1.0000
  H   H2        1.0  0.06065  0.94989  0.76476  1.0000
  H   H3        1.0  0.58489  0.93884  0.71656  1.0000
  H   H4        1.0  0.41517  0.06114  0.28346  1.0000
  H   H5        1.0  0.50883  0.25262  0.81803  1.0000
  H   H6        1.0  0.49121  0.74737  0.18197  1.0000
  H   H7        1.0  0.65533  0.45060  0.61597  1.0000
  H   H8        1.0  0.34465  0.54940  0.38401  1.0000
  H   H9        1.0  0.29709  0.96790  0.99355  1.0000
  H   H10       1.0  0.70288  0.03212  0.00647  1.0000
  H   H11       1.0  0.17385  0.13849  0.91748  1.0000
  H   H12       1.0  0.82617  0.86154  0.08251  1.0000
  Pb  Pb1       1.0  0.06614  0.40514  0.21987  1.0000
  Pb  Pb2       1.0  0.93386  0.59485  0.78012  1.0000
  C   C1        1.0  0.84042  0.09101  0.36470  1.0000
  C   C2        1.0  0.15957  0.90897  0.63529  1.0000
  C   C3        1.0  0.76636  0.97135  0.46762  1.0000
  C   C4        1.0  0.23365  0.02863  0.53239  1.0000
  C   C5        1.0  0.64671  0.02887  0.63379  1.0000
  C   C6        1.0  0.35333  0.97112  0.36622  1.0000
  C   C7        1.0  0.60426  0.20248  0.69014  1.0000
  C   C8        1.0  0.39577  0.79751  0.30986  1.0000
  C   C9        1.0  0.68419  0.31314  0.57892  1.0000
  C   C10       1.0  0.31580  0.68685  0.42107  1.0000
  C   C11       1.0  0.82651  0.78427  0.39981  1.0000
  C   C12       1.0  0.17349  0.21572  0.60020  1.0000
  N   N1        1.0  0.80214  0.25766  0.41925  1.0000
  N   N2        1.0  0.19785  0.74233  0.58073  1.0000
  N   N3        1.0  0.79004  0.45494  0.07966  1.0000
  N   N4        1.0  0.20994  0.54506  0.92032  1.0000
  N   N5        1.0  0.68271  0.36623  0.08792  1.0000
  N   N6        1.0  0.31723  0.63380  0.91210  1.0000
  N   N7        1.0  0.57333  0.28242  0.09512  1.0000
  N   N8        1.0  0.42658  0.71763  0.90493  1.0000
  O   O1        1.0  0.80468  0.66427  0.49764  1.0000
  O   O2        1.0  0.19532  0.33572  0.50236  1.0000
  O   O3        1.0  0.90602  0.75149  0.24272  1.0000
  O   O4        1.0  0.09398  0.24850  0.75728  1.0000
  O   O5        1.0  0.21541  0.09847  0.01572  1.0000
  O   O6        1.0  0.78466  0.90157  0.98425  1.0000
