data_image0
_chemical_formula_structural       Zn4H24C32N20O8
_chemical_formula_sum              "Zn4 H24 C32 N20 O8"
_cell_length_a       6.03083
_cell_length_b       10.9378
_cell_length_c       14.2485
_cell_angle_alpha    89.4365
_cell_angle_beta     90
_cell_angle_gamma    89.9999

_space_group_name_H-M_alt    "P 1"
_space_group_IT_number       1

loop_
  _space_group_symop_operation_xyz
  'x, y, z'

loop_
  _atom_site_type_symbol
  _atom_site_label
  _atom_site_symmetry_multiplicity
  _atom_site_fract_x
  _atom_site_fract_y
  _atom_site_fract_z
  _atom_site_occupancy
  Zn  Zn1       1.0  0.01979  0.54490  0.83128  1.0000
  Zn  Zn2       1.0  0.51981  0.95510  0.16872  1.0000
  Zn  Zn3       1.0  0.98020  0.45510  0.16872  1.0000
  Zn  Zn4       1.0  0.48019  0.04490  0.83128  1.0000
  H   H1        1.0  0.54312  0.34756  0.93580  1.0000
  H   H2        1.0  0.04313  0.15245  0.06420  1.0000
  H   H3        1.0  0.45687  0.65245  0.06420  1.0000
  H   H4        1.0  0.95687  0.84756  0.93581  1.0000
  H   H5        1.0  0.37296  0.23466  0.98804  1.0000
  H   H6        1.0  0.87296  0.26533  0.01195  1.0000
  H   H7        1.0  0.62702  0.76533  0.01195  1.0000
  H   H8        1.0  0.12703  0.73467  0.98805  1.0000
  H   H9        1.0  0.04026  0.64585  0.62343  1.0000
  H   H10       1.0  0.54027  0.85415  0.37658  1.0000
  H   H11       1.0  0.95975  0.35415  0.37657  1.0000
  H   H12       1.0  0.45975  0.14584  0.62343  1.0000
  H   H13       1.0  0.82767  0.62082  0.47667  1.0000
  H   H14       1.0  0.32767  0.87918  0.52333  1.0000
  H   H15       1.0  0.17234  0.37919  0.52332  1.0000
  H   H16       1.0  0.67234  0.12081  0.47668  1.0000
  H   H17       1.0  0.35199  0.40778  0.63767  1.0000
  H   H18       1.0  0.85201  0.09222  0.36233  1.0000
  H   H19       1.0  0.64800  0.59222  0.36232  1.0000
  H   H20       1.0  0.14801  0.90778  0.63768  1.0000
  H   H21       1.0  0.58364  0.44539  0.77707  1.0000
  H   H22       1.0  0.08365  0.05460  0.22293  1.0000
  H   H23       1.0  0.41636  0.55461  0.22293  1.0000
  H   H24       1.0  0.91636  0.94539  0.77707  1.0000
  C   C1        1.0  0.26119  0.29724  0.85558  1.0000
  C   C2        1.0  0.76120  0.20276  0.14442  1.0000
  C   C3        1.0  0.73879  0.70276  0.14442  1.0000
  C   C4        1.0  0.23880  0.79724  0.85558  1.0000
  C   C5        1.0  0.36919  0.32031  0.94761  1.0000
  C   C6        1.0  0.86920  0.17969  0.05238  1.0000
  C   C7        1.0  0.63079  0.67968  0.05239  1.0000
  C   C8        1.0  0.13080  0.82032  0.94761  1.0000
  C   C9        1.0  0.26343  0.42169  0.00519  1.0000
  C   C10       1.0  0.76343  0.07829  0.99482  1.0000
  C   C11       1.0  0.73654  0.57829  0.99482  1.0000
  C   C12       1.0  0.23657  0.92169  0.00519  1.0000
  C   C13       1.0  0.88505  0.59447  0.62315  1.0000
  C   C14       1.0  0.38506  0.90553  0.37686  1.0000
  C   C15       1.0  0.11495  0.40554  0.37685  1.0000
  C   C16       1.0  0.61495  0.09446  0.62315  1.0000
  C   C17       1.0  0.76417  0.57917  0.54105  1.0000
  C   C18       1.0  0.26418  0.92083  0.45895  1.0000
  C   C19       1.0  0.23583  0.42085  0.45895  1.0000
  C   C20       1.0  0.73583  0.07916  0.54106  1.0000
  C   C21       1.0  0.56751  0.50994  0.54266  1.0000
  C   C22       1.0  0.06752  0.99008  0.45733  1.0000
  C   C23       1.0  0.43248  0.49009  0.45732  1.0000
  C   C24       1.0  0.93250  0.00992  0.54268  1.0000
  C   C25       1.0  0.50375  0.46055  0.62970  1.0000
  C   C26       1.0  0.00376  0.03946  0.37030  1.0000
  C   C27       1.0  0.49624  0.53947  0.37029  1.0000
  C   C28       1.0  0.99625  0.96054  0.62971  1.0000
  C   C29       1.0  0.63281  0.48122  0.70856  1.0000
  C   C30       1.0  0.13281  0.01878  0.29144  1.0000
  C   C31       1.0  0.36720  0.51879  0.29143  1.0000
  C   C32       1.0  0.86719  0.98122  0.70857  1.0000
  N   N1        1.0  0.12365  0.37154  0.80759  1.0000
  N   N2        1.0  0.62366  0.12847  0.19241  1.0000
  N   N3        1.0  0.87634  0.62847  0.19240  1.0000
  N   N4        1.0  0.37634  0.87153  0.80760  1.0000
  N   N5        1.0  0.07117  0.31346  0.72632  1.0000
  N   N6        1.0  0.57119  0.18655  0.27368  1.0000
  N   N7        1.0  0.92883  0.68655  0.27367  1.0000
  N   N8        1.0  0.42883  0.81345  0.72633  1.0000
  N   N9        1.0  0.17306  0.20882  0.72501  1.0000
  N   N10       1.0  0.67308  0.29119  0.27499  1.0000
  N   N11       1.0  0.82694  0.79118  0.27499  1.0000
  N   N12       1.0  0.32694  0.70882  0.72501  1.0000
  N   N13       1.0  0.29298  0.19558  0.80497  1.0000
  N   N14       1.0  0.79298  0.30443  0.19502  1.0000
  N   N15       1.0  0.70702  0.80442  0.19502  1.0000
  N   N16       1.0  0.20701  0.69558  0.80498  1.0000
  N   N17       1.0  0.82145  0.54632  0.70610  1.0000
  N   N18       1.0  0.32144  0.95369  0.29390  1.0000
  N   N19       1.0  0.17856  0.45369  0.29389  1.0000
  N   N20       1.0  0.67855  0.04631  0.70611  1.0000
  O   O1        1.0  0.21957  0.52299  0.96679  1.0000
  O   O2        1.0  0.71960  0.97701  0.03321  1.0000
  O   O3        1.0  0.78037  0.47700  0.03321  1.0000
  O   O4        1.0  0.28040  0.02300  0.96679  1.0000
  O   O5        1.0  0.23304  0.39543  0.09211  1.0000
  O   O6        1.0  0.73305  0.10456  0.90788  1.0000
  O   O7        1.0  0.76695  0.60456  0.90789  1.0000
  O   O8        1.0  0.26696  0.89544  0.09211  1.0000
