data_image0
_chemical_formula_structural       Zn2H20C32N20
_chemical_formula_sum              "Zn2 H20 C32 N20"
_cell_length_a       7.56476
_cell_length_b       10.8969
_cell_length_c       10.8969
_cell_angle_alpha    60.5846
_cell_angle_beta     80.4024
_cell_angle_gamma    80.4025

_space_group_name_H-M_alt    "P 1"
_space_group_IT_number       1

loop_
  _space_group_symop_operation_xyz
  'x, y, z'

loop_
  _atom_site_type_symbol
  _atom_site_label
  _atom_site_symmetry_multiplicity
  _atom_site_fract_x
  _atom_site_fract_y
  _atom_site_fract_z
  _atom_site_occupancy
  Zn  Zn1       1.0  0.25000  0.40543  0.59457  1.0000
  Zn  Zn2       1.0  0.75000  0.59457  0.40543  1.0000
  H   H1        1.0  0.67412  0.57536  0.94063  1.0000
  H   H2        1.0  0.82588  0.05938  0.42464  1.0000
  H   H3        1.0  0.32588  0.42464  0.05938  1.0000
  H   H4        1.0  0.17412  0.94063  0.57536  1.0000
  H   H5        1.0  0.52812  0.19229  0.51177  1.0000
  H   H6        1.0  0.97188  0.48823  0.80771  1.0000
  H   H7        1.0  0.47188  0.80770  0.48823  1.0000
  H   H8        1.0  0.02813  0.51177  0.19229  1.0000
  H   H9        1.0  0.62442  0.92992  0.62929  1.0000
  H   H10       1.0  0.87558  0.37071  0.07008  1.0000
  H   H11       1.0  0.37558  0.07008  0.37071  1.0000
  H   H12       1.0  0.12442  0.62929  0.92992  1.0000
  H   H13       1.0  0.52085  0.78177  0.88540  1.0000
  H   H14       1.0  0.97915  0.11460  0.21823  1.0000
  H   H15       1.0  0.47915  0.21823  0.11460  1.0000
  H   H16       1.0  0.02085  0.88540  0.78177  1.0000
  H   H17       1.0  0.35103  0.77004  0.10897  1.0000
  H   H18       1.0  0.14897  0.89103  0.22996  1.0000
  H   H19       1.0  0.64897  0.22996  0.89103  1.0000
  H   H20       1.0  0.85103  0.10897  0.77004  1.0000
  C   C1        1.0  0.54959  0.51508  0.81629  1.0000
  C   C2        1.0  0.95041  0.18371  0.48492  1.0000
  C   C3        1.0  0.45041  0.48492  0.18371  1.0000
  C   C4        1.0  0.04959  0.81629  0.51508  1.0000
  C   C5        1.0  0.56025  0.52477  0.94206  1.0000
  C   C6        1.0  0.93975  0.05794  0.47524  1.0000
  C   C7        1.0  0.43975  0.47523  0.05794  1.0000
  C   C8        1.0  0.06025  0.94206  0.52477  1.0000
  C   C9        1.0  0.48206  0.12311  0.62186  1.0000
  C   C10       1.0  0.01793  0.37814  0.87688  1.0000
  C   C11       1.0  0.51793  0.87689  0.37814  1.0000
  C   C12       1.0  0.98207  0.62186  0.12311  1.0000
  C   C13       1.0  0.53638  0.97685  0.68840  1.0000
  C   C14       1.0  0.96362  0.31160  0.02315  1.0000
  C   C15       1.0  0.46361  0.02315  0.31160  1.0000
  C   C16       1.0  0.03639  0.68840  0.97685  1.0000
  C   C17       1.0  0.47911  0.89483  0.82968  1.0000
  C   C18       1.0  0.02090  0.17032  0.10517  1.0000
  C   C19       1.0  0.52090  0.10517  0.17032  1.0000
  C   C20       1.0  0.97911  0.82968  0.89483  1.0000
  C   C21       1.0  0.36576  0.95848  0.90379  1.0000
  C   C22       1.0  0.13424  0.09621  0.04152  1.0000
  C   C23       1.0  0.63424  0.04152  0.09621  1.0000
  C   C24       1.0  0.86577  0.90379  0.95848  1.0000
  C   C25       1.0  0.30505  0.88217  0.05115  1.0000
  C   C26       1.0  0.19496  0.94885  0.11783  1.0000
  C   C27       1.0  0.69495  0.11783  0.94885  1.0000
  C   C28       1.0  0.80505  0.05115  0.88217  1.0000
  C   C29       1.0  0.31192  0.10553  0.82586  1.0000
  C   C30       1.0  0.18807  0.17414  0.89447  1.0000
  C   C31       1.0  0.68808  0.89446  0.17414  1.0000
  C   C32       1.0  0.81193  0.82586  0.10554  1.0000
  N   N1        1.0  0.42588  0.44788  0.80192  1.0000
  N   N2        1.0  0.07413  0.19808  0.55212  1.0000
  N   N3        1.0  0.57413  0.55212  0.19808  1.0000
  N   N4        1.0  0.92588  0.80192  0.44788  1.0000
  N   N5        1.0  0.46372  0.46492  0.67151  1.0000
  N   N6        1.0  0.03628  0.32849  0.53508  1.0000
  N   N7        1.0  0.53628  0.53508  0.32849  1.0000
  N   N8        1.0  0.96372  0.67151  0.46492  1.0000
  N   N9        1.0  0.66377  0.57199  0.69731  1.0000
  N   N10       1.0  0.83623  0.30269  0.42801  1.0000
  N   N11       1.0  0.33623  0.42801  0.30269  1.0000
  N   N12       1.0  0.16377  0.69731  0.57199  1.0000
  N   N13       1.0  0.60667  0.53920  0.60872  1.0000
  N   N14       1.0  0.89333  0.39128  0.46080  1.0000
  N   N15       1.0  0.39333  0.46080  0.39128  1.0000
  N   N16       1.0  0.10667  0.60872  0.53920  1.0000
  N   N17       1.0  0.37281  0.18515  0.68865  1.0000
  N   N18       1.0  0.12719  0.31135  0.81485  1.0000
  N   N19       1.0  0.62719  0.81485  0.31135  1.0000
  N   N20       1.0  0.87282  0.68865  0.18515  1.0000
