data_image0
_chemical_formula_structural       Ag10H32C40N18O30
_chemical_formula_sum              "Ag10 H32 C40 N18 O30"
_cell_length_a       8.00395
_cell_length_b       11.5668
_cell_length_c       17.55
_cell_angle_alpha    103.067
_cell_angle_beta     89.983
_cell_angle_gamma    110.24

_space_group_name_H-M_alt    "P 1"
_space_group_IT_number       1

loop_
  _space_group_symop_operation_xyz
  'x, y, z'

loop_
  _atom_site_type_symbol
  _atom_site_label
  _atom_site_symmetry_multiplicity
  _atom_site_fract_x
  _atom_site_fract_y
  _atom_site_fract_z
  _atom_site_occupancy
  Ag  Ag1       1.0  0.62210  0.61243  0.83732  1.0000
  Ag  Ag2       1.0  0.00993  0.38764  0.66255  1.0000
  Ag  Ag3       1.0  0.37790  0.38757  0.16268  1.0000
  Ag  Ag4       1.0  0.99007  0.61236  0.33745  1.0000
  Ag  Ag5       1.0  0.05655  0.99998  0.74997  1.0000
  Ag  Ag6       1.0  0.94344  0.00002  0.25003  1.0000
  Ag  Ag7       1.0  0.38870  0.75493  0.82470  1.0000
  Ag  Ag8       1.0  0.63414  0.24512  0.67533  1.0000
  Ag  Ag9       1.0  0.61130  0.24507  0.17530  1.0000
  Ag  Ag10      1.0  0.36586  0.75488  0.32467  1.0000
  H   H1        1.0  0.69132  0.85156  0.11126  1.0000
  H   H2        1.0  0.83996  0.14853  0.38857  1.0000
  H   H3        1.0  0.30868  0.14844  0.88874  1.0000
  H   H4        1.0  0.16004  0.85146  0.61143  1.0000
  H   H5        1.0  0.69067  0.00936  0.87376  1.0000
  H   H6        1.0  0.68117  0.99062  0.62603  1.0000
  H   H7        1.0  0.30934  0.99064  0.12624  1.0000
  H   H8        1.0  0.31883  0.00938  0.37397  1.0000
  H   H9        1.0  0.89749  0.15156  0.99005  1.0000
  H   H10       1.0  0.74533  0.84830  0.50962  1.0000
  H   H11       1.0  0.10251  0.84844  0.00995  1.0000
  H   H12       1.0  0.25467  0.15170  0.49039  1.0000
  H   H13       1.0  0.90064  0.07138  0.11139  1.0000
  H   H14       1.0  0.82893  0.92855  0.38832  1.0000
  H   H15       1.0  0.09936  0.92862  0.88861  1.0000
  H   H16       1.0  0.17107  0.07145  0.61168  1.0000
  H   H17       1.0  0.35476  0.74532  0.10523  1.0000
  H   H18       1.0  0.60955  0.25487  0.39475  1.0000
  H   H19       1.0  0.64523  0.25468  0.89477  1.0000
  H   H20       1.0  0.39045  0.74513  0.60525  1.0000
  H   H21       1.0  0.31146  0.40400  0.87233  1.0000
  H   H22       1.0  0.90728  0.59600  0.62771  1.0000
  H   H23       1.0  0.68854  0.59601  0.12767  1.0000
  H   H24       1.0  0.09272  0.40400  0.37229  1.0000
  H   H25       1.0  0.13452  0.53041  0.09820  1.0000
  H   H26       1.0  0.60425  0.46984  0.40184  1.0000
  H   H27       1.0  0.86548  0.46959  0.90180  1.0000
  H   H28       1.0  0.39576  0.53016  0.59815  1.0000
  H   H29       1.0  0.10862  0.35392  0.97801  1.0000
  H   H30       1.0  0.75477  0.64625  0.52210  1.0000
  H   H31       1.0  0.89138  0.64608  0.02199  1.0000
  H   H32       1.0  0.24524  0.35375  0.47790  1.0000
  C   C1        1.0  0.57794  0.81751  0.99328  1.0000
  C   C2        1.0  0.76055  0.18257  0.50655  1.0000
  C   C3        1.0  0.42207  0.18249  0.00673  1.0000
  C   C4        1.0  0.23945  0.81743  0.49344  1.0000
  C   C5        1.0  0.44927  0.68873  0.99222  1.0000
  C   C6        1.0  0.76066  0.31139  0.50770  1.0000
  C   C7        1.0  0.55073  0.31128  0.00778  1.0000
  C   C8        1.0  0.23934  0.68861  0.49230  1.0000
  C   C9        1.0  0.69263  0.89081  0.06025  1.0000
  C   C10       1.0  0.80190  0.10926  0.43956  1.0000
  C   C11       1.0  0.30737  0.10920  0.93975  1.0000
  C   C12       1.0  0.19809  0.89074  0.56043  1.0000
  C   C13       1.0  0.69318  0.97893  0.92796  1.0000
  C   C14       1.0  0.71412  0.02108  0.57182  1.0000
  C   C15       1.0  0.30683  0.02107  0.07204  1.0000
  C   C16       1.0  0.28587  0.97892  0.42818  1.0000
  C   C17       1.0  0.80920  0.05729  0.99289  1.0000
  C   C18       1.0  0.75153  0.94262  0.50683  1.0000
  C   C19       1.0  0.19081  0.94271  0.00711  1.0000
  C   C20       1.0  0.24847  0.05737  0.49317  1.0000
  C   C21       1.0  0.80949  0.01235  0.06009  1.0000
  C   C22       1.0  0.79687  0.98760  0.43965  1.0000
  C   C23       1.0  0.19051  0.98765  0.93991  1.0000
  C   C24       1.0  0.20313  0.01240  0.56035  1.0000
  C   C25       1.0  0.34368  0.66764  0.05469  1.0000
  C   C26       1.0  0.67610  0.33252  0.44531  1.0000
  C   C27       1.0  0.65632  0.33236  0.94532  1.0000
  C   C28       1.0  0.32391  0.66748  0.55469  1.0000
  C   C29       1.0  0.31632  0.47648  0.92502  1.0000
  C   C30       1.0  0.83972  0.52357  0.57500  1.0000
  C   C31       1.0  0.68368  0.52353  0.07498  1.0000
  C   C32       1.0  0.16028  0.47643  0.42500  1.0000
  C   C33       1.0  0.21991  0.54658  0.05063  1.0000
  C   C34       1.0  0.67340  0.45362  0.44939  1.0000
  C   C35       1.0  0.78009  0.45342  0.94937  1.0000
  C   C36       1.0  0.32660  0.54638  0.55060  1.0000
  C   C37       1.0  0.20496  0.44955  0.98445  1.0000
  C   C38       1.0  0.75545  0.55060  0.51558  1.0000
  C   C39       1.0  0.79504  0.55045  0.01555  1.0000
  C   C40       1.0  0.24455  0.44940  0.48442  1.0000
  N   N1        1.0  0.57890  0.86177  0.92806  1.0000
  N   N2        1.0  0.71722  0.13830  0.57178  1.0000
  N   N3        1.0  0.42110  0.13823  0.07194  1.0000
  N   N4        1.0  0.28277  0.86170  0.42821  1.0000
  N   N5        1.0  0.43647  0.59324  0.92879  1.0000
  N   N6        1.0  0.84324  0.40682  0.57116  1.0000
  N   N7        1.0  0.56353  0.40677  0.07121  1.0000
  N   N8        1.0  0.15676  0.59318  0.42884  1.0000
  N   N9        1.0  0.99708  0.63037  0.79911  1.0000
  N   N10       1.0  0.36683  0.36964  0.70088  1.0000
  N   N11       1.0  0.00292  0.36963  0.20089  1.0000
  N   N12       1.0  0.63318  0.63036  0.29912  1.0000
  N   N13       1.0  0.42575  0.99989  0.75002  1.0000
  N   N14       1.0  0.57425  0.00011  0.24998  1.0000
  N   N15       1.0  0.73414  0.77617  0.71228  1.0000
  N   N16       1.0  0.95791  0.22380  0.78762  1.0000
  N   N17       1.0  0.26586  0.22384  0.28772  1.0000
  N   N18       1.0  0.04209  0.77620  0.21238  1.0000
  O   O1        1.0  0.29377  0.90209  0.75663  1.0000
  O   O2        1.0  0.39229  0.09797  0.74349  1.0000
  O   O3        1.0  0.70623  0.09791  0.24337  1.0000
  O   O4        1.0  0.60771  0.90203  0.25651  1.0000
  O   O5        1.0  0.83859  0.56877  0.76715  1.0000
  O   O6        1.0  0.26985  0.43123  0.73285  1.0000
  O   O7        1.0  0.16141  0.43123  0.23285  1.0000
  O   O8        1.0  0.73015  0.56877  0.26716  1.0000
  O   O9        1.0  0.02734  0.68828  0.86993  1.0000
  O   O10       1.0  0.33948  0.31190  0.63003  1.0000
  O   O11       1.0  0.97266  0.31172  0.13007  1.0000
  O   O12       1.0  0.66053  0.68810  0.36997  1.0000
  O   O13       1.0  0.12519  0.62947  0.75519  1.0000
  O   O14       1.0  0.49559  0.37037  0.74484  1.0000
  O   O15       1.0  0.87481  0.37053  0.24481  1.0000
  O   O16       1.0  0.50442  0.62963  0.25516  1.0000
  O   O17       1.0  0.58199  0.99960  0.74994  1.0000
  O   O18       1.0  0.41801  0.00040  0.25006  1.0000
  O   O19       1.0  0.58493  0.68662  0.70585  1.0000
  O   O20       1.0  0.89815  0.31330  0.79398  1.0000
  O   O21       1.0  0.41506  0.31338  0.29415  1.0000
  O   O22       1.0  0.10185  0.68670  0.20601  1.0000
  O   O23       1.0  0.82334  0.82528  0.77960  1.0000
  O   O24       1.0  0.99792  0.17452  0.72030  1.0000
  O   O25       1.0  0.17666  0.17472  0.22039  1.0000
  O   O26       1.0  0.00208  0.82548  0.27970  1.0000
  O   O27       1.0  0.79641  0.81780  0.65364  1.0000
  O   O28       1.0  0.97869  0.18239  0.84632  1.0000
  O   O29       1.0  0.20358  0.18220  0.34636  1.0000
  O   O30       1.0  0.02130  0.81762  0.15368  1.0000
