data_image0
_chemical_formula_structural       Ag4H12C8N16
_chemical_formula_sum              "Ag4 H12 C8 N16"
_cell_length_a       7.80701
_cell_length_b       7.5601
_cell_length_c       7.56004
_cell_angle_alpha    99.7047
_cell_angle_beta     97.3343
_cell_angle_gamma    97.3347

_space_group_name_H-M_alt    "P 1"
_space_group_IT_number       1

loop_
  _space_group_symop_operation_xyz
  'x, y, z'

loop_
  _atom_site_type_symbol
  _atom_site_label
  _atom_site_symmetry_multiplicity
  _atom_site_fract_x
  _atom_site_fract_y
  _atom_site_fract_z
  _atom_site_occupancy
  Ag  Ag1       1.0  0.86793  0.78343  0.00724  1.0000
  Ag  Ag2       1.0  0.63208  0.99277  0.21657  1.0000
  Ag  Ag3       1.0  0.13208  0.21657  0.99276  1.0000
  Ag  Ag4       1.0  0.36792  0.00723  0.78343  1.0000
  H   H1        1.0  0.40592  0.22644  0.41716  1.0000
  H   H2        1.0  0.09408  0.58284  0.77356  1.0000
  H   H3        1.0  0.59409  0.77355  0.58284  1.0000
  H   H4        1.0  0.90591  0.41716  0.22644  1.0000
  H   H5        1.0  0.91753  0.68970  0.38811  1.0000
  H   H6        1.0  0.58247  0.61188  0.31030  1.0000
  H   H7        1.0  0.08247  0.31030  0.61189  1.0000
  H   H8        1.0  0.41753  0.38812  0.68970  1.0000
  H   H9        1.0  0.03760  0.76034  0.59310  1.0000
  H   H10       1.0  0.46241  0.40690  0.23966  1.0000
  H   H11       1.0  0.96241  0.23966  0.40690  1.0000
  H   H12       1.0  0.53759  0.59310  0.76034  1.0000
  C   C1        1.0  0.12075  0.88152  0.39750  1.0000
  C   C2        1.0  0.37925  0.60250  0.11849  1.0000
  C   C3        1.0  0.87925  0.11848  0.60250  1.0000
  C   C4        1.0  0.62075  0.39750  0.88151  1.0000
  C   C5        1.0  0.29806  0.11471  0.38259  1.0000
  C   C6        1.0  0.20194  0.61741  0.88530  1.0000
  C   C7        1.0  0.70194  0.88529  0.61741  1.0000
  C   C8        1.0  0.79805  0.38259  0.11471  1.0000
  N   N1        1.0  0.06985  0.92758  0.23749  1.0000
  N   N2        1.0  0.43016  0.76251  0.07242  1.0000
  N   N3        1.0  0.93015  0.07242  0.76251  1.0000
  N   N4        1.0  0.56984  0.23749  0.92758  1.0000
  N   N5        1.0  0.18551  0.08002  0.22866  1.0000
  N   N6        1.0  0.31450  0.77134  0.91999  1.0000
  N   N7        1.0  0.81449  0.91998  0.77134  1.0000
  N   N8        1.0  0.68550  0.22866  0.08001  1.0000
  N   N9        1.0  0.26324  0.99501  0.49361  1.0000
  N   N10       1.0  0.23676  0.50639  0.00500  1.0000
  N   N11       1.0  0.73676  0.00499  0.50639  1.0000
  N   N12       1.0  0.76324  0.49361  0.99500  1.0000
  N   N13       1.0  0.04031  0.73408  0.45694  1.0000
  N   N14       1.0  0.45969  0.54306  0.26592  1.0000
  N   N15       1.0  0.95969  0.26592  0.54305  1.0000
  N   N16       1.0  0.54031  0.45694  0.73408  1.0000
