data_image0
_chemical_formula_structural       Ag4H4C8N16O8
_chemical_formula_sum              "Ag4 H4 C8 N16 O8"
_cell_length_a       3.64719
_cell_length_b       11.2807
_cell_length_c       11.4597
_cell_angle_alpha    90.0003
_cell_angle_beta     91.638
_cell_angle_gamma    90.0006

_space_group_name_H-M_alt    "P 1"
_space_group_IT_number       1

loop_
  _space_group_symop_operation_xyz
  'x, y, z'

loop_
  _atom_site_type_symbol
  _atom_site_label
  _atom_site_symmetry_multiplicity
  _atom_site_fract_x
  _atom_site_fract_y
  _atom_site_fract_z
  _atom_site_occupancy
  Ag  Ag1       1.0  0.34654  0.87983  0.37664  1.0000
  Ag  Ag2       1.0  0.65345  0.37984  0.12336  1.0000
  Ag  Ag3       1.0  0.65345  0.12017  0.62336  1.0000
  Ag  Ag4       1.0  0.34654  0.62016  0.87663  1.0000
  H   H1        1.0  0.59338  0.91301  0.83346  1.0000
  H   H2        1.0  0.40662  0.41301  0.66654  1.0000
  H   H3        1.0  0.40664  0.08699  0.16654  1.0000
  H   H4        1.0  0.59337  0.58700  0.33346  1.0000
  C   C1        1.0  0.46927  0.87606  0.75455  1.0000
  C   C2        1.0  0.53073  0.37606  0.74545  1.0000
  C   C3        1.0  0.53073  0.12394  0.24545  1.0000
  C   C4        1.0  0.46928  0.62394  0.25455  1.0000
  C   C5        1.0  0.20292  0.76372  0.63374  1.0000
  C   C6        1.0  0.79708  0.26373  0.86626  1.0000
  C   C7        1.0  0.79709  0.23627  0.36626  1.0000
  C   C8        1.0  0.20292  0.73627  0.13374  1.0000
  N   N1        1.0  0.44482  0.93527  0.65223  1.0000
  N   N2        1.0  0.55517  0.43528  0.84776  1.0000
  N   N3        1.0  0.55517  0.06473  0.34777  1.0000
  N   N4        1.0  0.44483  0.56473  0.15223  1.0000
  N   N5        1.0  0.32272  0.76686  0.74645  1.0000
  N   N6        1.0  0.67728  0.26686  0.75355  1.0000
  N   N7        1.0  0.67729  0.23314  0.25355  1.0000
  N   N8        1.0  0.32272  0.73314  0.24645  1.0000
  N   N9        1.0  0.27243  0.86283  0.57376  1.0000
  N   N10       1.0  0.72756  0.36284  0.92624  1.0000
  N   N11       1.0  0.72757  0.13717  0.42624  1.0000
  N   N12       1.0  0.27243  0.63717  0.07376  1.0000
  N   N13       1.0  0.00622  0.66557  0.58386  1.0000
  N   N14       1.0  0.99378  0.16558  0.91614  1.0000
  N   N15       1.0  0.99377  0.33442  0.41615  1.0000
  N   N16       1.0  0.00623  0.83442  0.08386  1.0000
  O   O1        1.0  0.96282  0.57640  0.64601  1.0000
  O   O2        1.0  0.03718  0.07641  0.85400  1.0000
  O   O3        1.0  0.03720  0.42360  0.35400  1.0000
  O   O4        1.0  0.96281  0.92359  0.14600  1.0000
  O   O5        1.0  0.88345  0.67616  0.48186  1.0000
  O   O6        1.0  0.11655  0.17618  0.01814  1.0000
  O   O7        1.0  0.11652  0.32383  0.51815  1.0000
  O   O8        1.0  0.88347  0.82383  0.98186  1.0000
