data_image0
_chemical_formula_structural       V4Cu4P4H40C52N8O20F4
_chemical_formula_sum              "V4 Cu4 P4 H40 C52 N8 O20 F4"
_cell_length_a       8.80488
_cell_length_b       10.3853
_cell_length_c       15.906
_cell_angle_alpha    100.582
_cell_angle_beta     90
_cell_angle_gamma    90

_space_group_name_H-M_alt    "P 1"
_space_group_IT_number       1

loop_
  _space_group_symop_operation_xyz
  'x, y, z'

loop_
  _atom_site_type_symbol
  _atom_site_label
  _atom_site_symmetry_multiplicity
  _atom_site_fract_x
  _atom_site_fract_y
  _atom_site_fract_z
  _atom_site_occupancy
  V   V1        1.0  0.45608  0.85152  0.77704  1.0000
  V   V2        1.0  0.95610  0.64848  0.72298  1.0000
  V   V3        1.0  0.54390  0.14849  0.22298  1.0000
  V   V4        1.0  0.04393  0.35149  0.27705  1.0000
  Cu  Cu1       1.0  0.25510  0.55161  0.83976  1.0000
  Cu  Cu2       1.0  0.75507  0.94841  0.66023  1.0000
  Cu  Cu3       1.0  0.74496  0.44844  0.16025  1.0000
  Cu  Cu4       1.0  0.24492  0.05159  0.33975  1.0000
  P   P1        1.0  0.28329  0.59668  0.66131  1.0000
  P   P2        1.0  0.78330  0.90333  0.83868  1.0000
  P   P3        1.0  0.71670  0.40335  0.33871  1.0000
  P   P4        1.0  0.21670  0.09664  0.16129  1.0000
  H   H1        1.0  0.60378  0.54179  0.64801  1.0000
  H   H2        1.0  0.10377  0.95823  0.85199  1.0000
  H   H3        1.0  0.39621  0.45822  0.35202  1.0000
  H   H4        1.0  0.89623  0.04176  0.14799  1.0000
  H   H5        1.0  0.22498  0.53198  0.47309  1.0000
  H   H6        1.0  0.72499  0.96800  0.02691  1.0000
  H   H7        1.0  0.77500  0.46803  0.52693  1.0000
  H   H8        1.0  0.27501  0.03199  0.97308  1.0000
  H   H9        1.0  0.05737  0.74344  0.95590  1.0000
  H   H10       1.0  0.55739  0.75655  0.54409  1.0000
  H   H11       1.0  0.94269  0.25658  0.04409  1.0000
  H   H12       1.0  0.44266  0.24342  0.45591  1.0000
  H   H13       1.0  0.97972  0.77098  0.11015  1.0000
  H   H14       1.0  0.47972  0.72902  0.38984  1.0000
  H   H15       1.0  0.02029  0.22902  0.88983  1.0000
  H   H16       1.0  0.52029  0.27096  0.61016  1.0000
  H   H17       1.0  0.07993  0.60614  0.19739  1.0000
  H   H18       1.0  0.57992  0.89386  0.30260  1.0000
  H   H19       1.0  0.92006  0.39384  0.80259  1.0000
  H   H20       1.0  0.42006  0.10614  0.69740  1.0000
  H   H21       1.0  0.25127  0.43110  0.12890  1.0000
  H   H22       1.0  0.75127  0.06890  0.37110  1.0000
  H   H23       1.0  0.74872  0.56888  0.87109  1.0000
  H   H24       1.0  0.24871  0.93111  0.62890  1.0000
  H   H25       1.0  0.39740  0.28245  0.05669  1.0000
  H   H26       1.0  0.89741  0.21757  0.44331  1.0000
  H   H27       1.0  0.60262  0.71758  0.94331  1.0000
  H   H28       1.0  0.10261  0.78242  0.55669  1.0000
  H   H29       1.0  0.56955  0.12992  0.96353  1.0000
  H   H30       1.0  0.06956  0.37010  0.53647  1.0000
  H   H31       1.0  0.43045  0.87011  0.03647  1.0000
  H   H32       1.0  0.93045  0.62989  0.46352  1.0000
  H   H33       1.0  0.62802  0.16756  0.81622  1.0000
  H   H34       1.0  0.12802  0.33245  0.68378  1.0000
  H   H35       1.0  0.37196  0.83244  0.18377  1.0000
  H   H36       1.0  0.87196  0.66756  0.31622  1.0000
  H   H37       1.0  0.49618  0.35713  0.76467  1.0000
  H   H38       1.0  0.99616  0.14288  0.73533  1.0000
  H   H39       1.0  0.50380  0.64286  0.23532  1.0000
  H   H40       1.0  0.00382  0.85714  0.26468  1.0000
  C   C1        1.0  0.40175  0.54203  0.56917  1.0000
  C   C2        1.0  0.90175  0.95799  0.93083  1.0000
  C   C3        1.0  0.59824  0.45799  0.43085  1.0000
  C   C4        1.0  0.09825  0.04200  0.06916  1.0000
  C   C5        1.0  0.55721  0.52339  0.58338  1.0000
  C   C6        1.0  0.05721  0.97663  0.91663  1.0000
  C   C7        1.0  0.44279  0.47662  0.41665  1.0000
  C   C8        1.0  0.94280  0.02335  0.08336  1.0000
  C   C9        1.0  0.34519  0.51838  0.48529  1.0000
  C   C10       1.0  0.84520  0.98160  0.01472  1.0000
  C   C11       1.0  0.65480  0.48163  0.51473  1.0000
  C   C12       1.0  0.15480  0.01838  0.98528  1.0000
  C   C13       1.0  0.09884  0.67865  0.99743  1.0000
  C   C14       1.0  0.59885  0.82135  0.50256  1.0000
  C   C15       1.0  0.90119  0.32137  0.00257  1.0000
  C   C16       1.0  0.40118  0.17863  0.49743  1.0000
  C   C17       1.0  0.05580  0.69162  0.08293  1.0000
  C   C18       1.0  0.55580  0.80837  0.41707  1.0000
  C   C19       1.0  0.94422  0.30837  0.91707  1.0000
  C   C20       1.0  0.44422  0.19161  0.58293  1.0000
  C   C21       1.0  0.11081  0.60178  0.13060  1.0000
  C   C22       1.0  0.61081  0.89822  0.36939  1.0000
  C   C23       1.0  0.88919  0.39821  0.86939  1.0000
  C   C24       1.0  0.38919  0.10178  0.63061  1.0000
  C   C25       1.0  0.20909  0.50278  0.09248  1.0000
  C   C26       1.0  0.70910  0.99722  0.40751  1.0000
  C   C27       1.0  0.79089  0.49722  0.90751  1.0000
  C   C28       1.0  0.29090  0.00277  0.59248  1.0000
  C   C29       1.0  0.24948  0.49625  0.00706  1.0000
  C   C30       1.0  0.74949  0.00375  0.49294  1.0000
  C   C31       1.0  0.75053  0.50375  0.99294  1.0000
  C   C32       1.0  0.25052  0.99624  0.50706  1.0000
  C   C33       1.0  0.35302  0.39851  0.95902  1.0000
  C   C34       1.0  0.85302  0.10149  0.54097  1.0000
  C   C35       1.0  0.64700  0.60148  0.04098  1.0000
  C   C36       1.0  0.14699  0.89851  0.45902  1.0000
  C   C37       1.0  0.41958  0.29628  0.99168  1.0000
  C   C38       1.0  0.91959  0.20372  0.50832  1.0000
  C   C39       1.0  0.58043  0.70372  0.00832  1.0000
  C   C40       1.0  0.08042  0.79627  0.49168  1.0000
  C   C41       1.0  0.51814  0.21155  0.93982  1.0000
  C   C42       1.0  0.01814  0.28845  0.56018  1.0000
  C   C43       1.0  0.48187  0.78845  0.06018  1.0000
  C   C44       1.0  0.98186  0.71155  0.43982  1.0000
  C   C45       1.0  0.54949  0.23151  0.85727  1.0000
  C   C46       1.0  0.04949  0.26849  0.64273  1.0000
  C   C47       1.0  0.45049  0.76848  0.14273  1.0000
  C   C48       1.0  0.95049  0.73151  0.35727  1.0000
  C   C49       1.0  0.47850  0.33505  0.82835  1.0000
  C   C50       1.0  0.97848  0.16496  0.67165  1.0000
  C   C51       1.0  0.52150  0.66495  0.17164  1.0000
  C   C52       1.0  0.02150  0.83505  0.32835  1.0000
  N   N1        1.0  0.19293  0.58333  0.96113  1.0000
  N   N2        1.0  0.69294  0.91667  0.53886  1.0000
  N   N3        1.0  0.80710  0.41669  0.03886  1.0000
  N   N4        1.0  0.30708  0.08332  0.46113  1.0000
  N   N5        1.0  0.38176  0.41506  0.87781  1.0000
  N   N6        1.0  0.88174  0.08496  0.62219  1.0000
  N   N7        1.0  0.61825  0.58496  0.12218  1.0000
  N   N8        1.0  0.11825  0.91504  0.37781  1.0000
  O   O1        1.0  0.32077  0.74177  0.69646  1.0000
  O   O2        1.0  0.82081  0.75825  0.80355  1.0000
  O   O3        1.0  0.67915  0.25825  0.30354  1.0000
  O   O4        1.0  0.17918  0.24175  0.19645  1.0000
  O   O5        1.0  0.32587  0.50316  0.72271  1.0000
  O   O6        1.0  0.82588  0.99684  0.77729  1.0000
  O   O7        1.0  0.67417  0.49693  0.27731  1.0000
  O   O8        1.0  0.17413  0.00310  0.22272  1.0000
  O   O9        1.0  0.11560  0.58687  0.63228  1.0000
  O   O10       1.0  0.61561  0.91315  0.86772  1.0000
  O   O11       1.0  0.88444  0.41314  0.36775  1.0000
  O   O12       1.0  0.38442  0.08683  0.13227  1.0000
  O   O13       1.0  0.35237  0.98241  0.79562  1.0000
  O   O14       1.0  0.85235  0.51761  0.70438  1.0000
  O   O15       1.0  0.64764  0.01762  0.20440  1.0000
  O   O16       1.0  0.14763  0.48239  0.29561  1.0000
  O   O17       1.0  0.08289  0.63858  0.80191  1.0000
  O   O18       1.0  0.58291  0.86141  0.69808  1.0000
  O   O19       1.0  0.91705  0.36138  0.19808  1.0000
  O   O20       1.0  0.41708  0.13862  0.30192  1.0000
  F   F1        1.0  0.41686  0.73100  0.84905  1.0000
  F   F2        1.0  0.91685  0.76897  0.65094  1.0000
  F   F3        1.0  0.58308  0.26902  0.15096  1.0000
  F   F4        1.0  0.08310  0.23095  0.34904  1.0000
