data_image0
_chemical_formula_structural       Cu2P4H32C36N4O20
_chemical_formula_sum              "Cu2 P4 H32 C36 N4 O20"
_cell_length_a       6.50815
_cell_length_b       10.3714
_cell_length_c       15.5795
_cell_angle_alpha    107.584
_cell_angle_beta     90.002
_cell_angle_gamma    90.0012

_space_group_name_H-M_alt    "P 1"
_space_group_IT_number       1

loop_
  _space_group_symop_operation_xyz
  'x, y, z'

loop_
  _atom_site_type_symbol
  _atom_site_label
  _atom_site_symmetry_multiplicity
  _atom_site_fract_x
  _atom_site_fract_y
  _atom_site_fract_z
  _atom_site_occupancy
  Cu  Cu1       1.0  0.50000  0.00000  0.00000  1.0000
  Cu  Cu2       1.0  1.00000  0.00000  0.50000  1.0000
  P   P1        1.0  0.32360  0.36233  0.14347  1.0000
  P   P2        1.0  0.82362  0.63770  0.35655  1.0000
  P   P3        1.0  0.67640  0.63767  0.85653  1.0000
  P   P4        1.0  0.17638  0.36230  0.64346  1.0000
  H   H1        1.0  0.13810  0.42066  0.99130  1.0000
  H   H2        1.0  0.63806  0.57931  0.50867  1.0000
  H   H3        1.0  0.86192  0.57934  0.00870  1.0000
  H   H4        1.0  0.36193  0.42069  0.49133  1.0000
  H   H5        1.0  0.73456  0.47004  0.11907  1.0000
  H   H6        1.0  0.23454  0.52998  0.38095  1.0000
  H   H7        1.0  0.26546  0.52995  0.88093  1.0000
  H   H8        1.0  0.76545  0.47001  0.61905  1.0000
  H   H9        1.0  0.22848  0.02102  0.84446  1.0000
  H   H10       1.0  0.72850  0.97898  0.65554  1.0000
  H   H11       1.0  0.77153  0.97897  0.15555  1.0000
  H   H12       1.0  0.27149  0.02102  0.34446  1.0000
  H   H13       1.0  0.27650  0.13654  0.72420  1.0000
  H   H14       1.0  0.77650  0.86342  0.77578  1.0000
  H   H15       1.0  0.72351  0.86345  0.27579  1.0000
  H   H16       1.0  0.22349  0.13658  0.22422  1.0000
  H   H17       1.0  0.60158  0.26382  0.72268  1.0000
  H   H18       1.0  0.10158  0.73613  0.77728  1.0000
  H   H19       1.0  0.39843  0.73617  0.27731  1.0000
  H   H20       1.0  0.89841  0.26387  0.22272  1.0000
  H   H21       1.0  0.87094  0.27093  0.84088  1.0000
  H   H22       1.0  0.37094  0.72907  0.65911  1.0000
  H   H23       1.0  0.12907  0.72907  0.15912  1.0000
  H   H24       1.0  0.62904  0.27093  0.34088  1.0000
  H   H25       1.0  0.15528  0.19904  0.04558  1.0000
  H   H26       1.0  0.65528  0.80100  0.45444  1.0000
  H   H27       1.0  0.84472  0.80097  0.95443  1.0000
  H   H28       1.0  0.34472  0.19901  0.54556  1.0000
  H   H29       1.0  0.55598  0.44258  0.25398  1.0000
  H   H30       1.0  0.05597  0.55747  0.24604  1.0000
  H   H31       1.0  0.44402  0.55743  0.74602  1.0000
  H   H32       1.0  0.94403  0.44253  0.75396  1.0000
  C   C1        1.0  0.29633  0.45633  0.99545  1.0000
  C   C2        1.0  0.79630  0.54364  0.50453  1.0000
  C   C3        1.0  0.70368  0.54366  0.00455  1.0000
  C   C4        1.0  0.20369  0.45635  0.49547  1.0000
  C   C5        1.0  0.42672  0.43905  0.06304  1.0000
  C   C6        1.0  0.92672  0.56094  0.43696  1.0000
  C   C7        1.0  0.57329  0.56094  0.93696  1.0000
  C   C8        1.0  0.07327  0.43906  0.56304  1.0000
  C   C9        1.0  0.63136  0.48301  0.06717  1.0000
  C   C10       1.0  0.13136  0.51700  0.43284  1.0000
  C   C11       1.0  0.36865  0.51699  0.93283  1.0000
  C   C12       1.0  0.86863  0.48300  0.56716  1.0000
  C   C13       1.0  0.36711  0.07715  0.83995  1.0000
  C   C14       1.0  0.86713  0.92286  0.66005  1.0000
  C   C15       1.0  0.63290  0.92284  0.16005  1.0000
  C   C16       1.0  0.13286  0.07715  0.33995  1.0000
  C   C17       1.0  0.39556  0.14151  0.77414  1.0000
  C   C18       1.0  0.89557  0.85848  0.72585  1.0000
  C   C19       1.0  0.60444  0.85848  0.22586  1.0000
  C   C20       1.0  0.10443  0.14153  0.27416  1.0000
  C   C21       1.0  0.57715  0.21269  0.77346  1.0000
  C   C22       1.0  0.07715  0.78729  0.72651  1.0000
  C   C23       1.0  0.42286  0.78730  0.22653  1.0000
  C   C24       1.0  0.92284  0.21272  0.27349  1.0000
  C   C25       1.0  0.72635  0.21737  0.83877  1.0000
  C   C26       1.0  0.22635  0.78263  0.66122  1.0000
  C   C27       1.0  0.27365  0.78263  0.16123  1.0000
  C   C28       1.0  0.77364  0.21738  0.33878  1.0000
  C   C29       1.0  0.68753  0.15075  0.90218  1.0000
  C   C30       1.0  0.18757  0.84927  0.59781  1.0000
  C   C31       1.0  0.31247  0.84925  0.09782  1.0000
  C   C32       1.0  0.81242  0.15073  0.40219  1.0000
  C   C33       1.0  0.83410  0.14739  0.97571  1.0000
  C   C34       1.0  0.33414  0.85263  0.52430  1.0000
  C   C35       1.0  0.16589  0.85261  0.02429  1.0000
  C   C36       1.0  0.66585  0.14738  0.47570  1.0000
  N   N1        1.0  0.51107  0.08223  0.90228  1.0000
  N   N2        1.0  0.01110  0.91778  0.59772  1.0000
  N   N3        1.0  0.48893  0.91776  0.09772  1.0000
  N   N4        1.0  0.98888  0.08223  0.40228  1.0000
  O   O1        1.0  0.27749  0.20917  0.09235  1.0000
  O   O2        1.0  0.77753  0.79086  0.40769  1.0000
  O   O3        1.0  0.72251  0.79083  0.90765  1.0000
  O   O4        1.0  0.22247  0.20915  0.59232  1.0000
  O   O5        1.0  0.49753  0.35190  0.20998  1.0000
  O   O6        1.0  0.99754  0.64815  0.29004  1.0000
  O   O7        1.0  0.50247  0.64811  0.79003  1.0000
  O   O8        1.0  0.00247  0.35185  0.70996  1.0000
  O   O9        1.0  0.13065  0.43575  0.18462  1.0000
  O   O10       1.0  0.63064  0.56431  0.31539  1.0000
  O   O11       1.0  0.86936  0.56426  0.81538  1.0000
  O   O12       1.0  0.36936  0.43569  0.68461  1.0000
  O   O13       1.0  0.77153  0.08884  0.03257  1.0000
  O   O14       1.0  0.27157  0.91117  0.46743  1.0000
  O   O15       1.0  0.22848  0.91116  0.96743  1.0000
  O   O16       1.0  0.72843  0.08883  0.53257  1.0000
  O   O17       1.0  0.00809  0.20124  0.97713  1.0000
  O   O18       1.0  0.50812  0.79880  0.52289  1.0000
  O   O19       1.0  0.99192  0.79877  0.02288  1.0000
  O   O20       1.0  0.49187  0.20120  0.47711  1.0000
