data_image0
_chemical_formula_structural       Sm4Cu4H32C56N8O32
_chemical_formula_sum              "Sm4 Cu4 H32 C56 N8 O32"
_cell_length_a       9.2139
_cell_length_b       9.57365
_cell_length_c       21.585
_cell_angle_alpha    90
_cell_angle_beta     90
_cell_angle_gamma    115.879

_space_group_name_H-M_alt    "P 1"
_space_group_IT_number       1

loop_
  _space_group_symop_operation_xyz
  'x, y, z'

loop_
  _atom_site_type_symbol
  _atom_site_label
  _atom_site_symmetry_multiplicity
  _atom_site_fract_x
  _atom_site_fract_y
  _atom_site_fract_z
  _atom_site_occupancy
  Sm  Sm1       1.0  0.37777  0.14426  0.00911  1.0000
  Sm  Sm2       1.0  0.12223  0.85573  0.50911  1.0000
  Sm  Sm3       1.0  0.62223  0.85573  0.99089  1.0000
  Sm  Sm4       1.0  0.87777  0.14427  0.49089  1.0000
  Cu  Cu1       1.0  0.04410  0.19318  0.14543  1.0000
  Cu  Cu2       1.0  0.45590  0.80683  0.64543  1.0000
  Cu  Cu3       1.0  0.95589  0.80682  0.85457  1.0000
  Cu  Cu4       1.0  0.54410  0.19318  0.35457  1.0000
  H   H1        1.0  0.39318  0.19877  0.83878  1.0000
  H   H2        1.0  0.10682  0.80123  0.33878  1.0000
  H   H3        1.0  0.60682  0.80123  0.16122  1.0000
  H   H4        1.0  0.89319  0.19877  0.66122  1.0000
  H   H5        1.0  0.92905  0.71496  0.06836  1.0000
  H   H6        1.0  0.57095  0.28504  0.56836  1.0000
  H   H7        1.0  0.07095  0.28504  0.93164  1.0000
  H   H8        1.0  0.42906  0.71496  0.43164  1.0000
  H   H9        1.0  0.71964  0.49410  0.12824  1.0000
  H   H10       1.0  0.78036  0.50590  0.62824  1.0000
  H   H11       1.0  0.28036  0.50590  0.87176  1.0000
  H   H12       1.0  0.21964  0.49410  0.37176  1.0000
  H   H13       1.0  0.22361  0.46731  0.07126  1.0000
  H   H14       1.0  0.27639  0.53270  0.57126  1.0000
  H   H15       1.0  0.77638  0.53268  0.92874  1.0000
  H   H16       1.0  0.72362  0.46731  0.42874  1.0000
  H   H17       1.0  0.34446  0.24392  0.72634  1.0000
  H   H18       1.0  0.15554  0.75608  0.22634  1.0000
  H   H19       1.0  0.65554  0.75608  0.27366  1.0000
  H   H20       1.0  0.84446  0.24393  0.77366  1.0000
  H   H21       1.0  0.78184  0.27694  0.16197  1.0000
  H   H22       1.0  0.71816  0.72307  0.66197  1.0000
  H   H23       1.0  0.21815  0.72307  0.83803  1.0000
  H   H24       1.0  0.28185  0.27694  0.33803  1.0000
  H   H25       1.0  0.50471  0.83071  0.77574  1.0000
  H   H26       1.0  0.99529  0.16929  0.27574  1.0000
  H   H27       1.0  0.49529  0.16929  0.22426  1.0000
  H   H28       1.0  0.00471  0.83071  0.72426  1.0000
  H   H29       1.0  0.37008  0.07109  0.64479  1.0000
  H   H30       1.0  0.12992  0.92892  0.14479  1.0000
  H   H31       1.0  0.62993  0.92892  0.35521  1.0000
  H   H32       1.0  0.87007  0.07108  0.85521  1.0000
  C   C1        1.0  0.45343  0.01133  0.81448  1.0000
  C   C2        1.0  0.04658  0.98867  0.31448  1.0000
  C   C3        1.0  0.54658  0.98867  0.18551  1.0000
  C   C4        1.0  0.95342  0.01132  0.68552  1.0000
  C   C5        1.0  0.49047  0.97690  0.87880  1.0000
  C   C6        1.0  0.00954  0.02311  0.37880  1.0000
  C   C7        1.0  0.50953  0.02310  0.12120  1.0000
  C   C8        1.0  0.99047  0.97690  0.62120  1.0000
  C   C9        1.0  0.40636  0.12871  0.80121  1.0000
  C   C10       1.0  0.09364  0.87129  0.30121  1.0000
  C   C11       1.0  0.59364  0.87129  0.19879  1.0000
  C   C12       1.0  0.90636  0.12871  0.69879  1.0000
  C   C13       1.0  0.22381  0.73919  0.03050  1.0000
  C   C14       1.0  0.27619  0.26081  0.53050  1.0000
  C   C15       1.0  0.77618  0.26080  0.96950  1.0000
  C   C16       1.0  0.72382  0.73919  0.46950  1.0000
  C   C17       1.0  0.09324  0.60842  0.06576  1.0000
  C   C18       1.0  0.40676  0.39158  0.56576  1.0000
  C   C19       1.0  0.90675  0.39158  0.93424  1.0000
  C   C20       1.0  0.59325  0.60842  0.43424  1.0000
  C   C21       1.0  0.95029  0.61633  0.08254  1.0000
  C   C22       1.0  0.54970  0.38366  0.58254  1.0000
  C   C23       1.0  0.04970  0.38366  0.91746  1.0000
  C   C24       1.0  0.45030  0.61634  0.41746  1.0000
  C   C25       1.0  0.83507  0.49515  0.11658  1.0000
  C   C26       1.0  0.66493  0.50484  0.61658  1.0000
  C   C27       1.0  0.16492  0.50484  0.88342  1.0000
  C   C28       1.0  0.33508  0.49516  0.38342  1.0000
  C   C29       1.0  0.11523  0.47907  0.08402  1.0000
  C   C30       1.0  0.38477  0.52093  0.58402  1.0000
  C   C31       1.0  0.88476  0.52093  0.91598  1.0000
  C   C32       1.0  0.61524  0.47907  0.41599  1.0000
  C   C33       1.0  0.37886  0.15255  0.73937  1.0000
  C   C34       1.0  0.12114  0.84745  0.23937  1.0000
  C   C35       1.0  0.62114  0.84745  0.26063  1.0000
  C   C36       1.0  0.87886  0.15255  0.76063  1.0000
  C   C37       1.0  0.86759  0.37239  0.13440  1.0000
  C   C38       1.0  0.63241  0.62761  0.63440  1.0000
  C   C39       1.0  0.13240  0.62760  0.86560  1.0000
  C   C40       1.0  0.36760  0.37240  0.36560  1.0000
  C   C41       1.0  0.46768  0.92201  0.76594  1.0000
  C   C42       1.0  0.03232  0.07799  0.26594  1.0000
  C   C43       1.0  0.53232  0.07799  0.23406  1.0000
  C   C44       1.0  0.96767  0.92201  0.73406  1.0000
  C   C45       1.0  0.39394  0.05764  0.69334  1.0000
  C   C46       1.0  0.10606  0.94236  0.19334  1.0000
  C   C47       1.0  0.60607  0.94237  0.30666  1.0000
  C   C48       1.0  0.89393  0.05764  0.80666  1.0000
  C   C49       1.0  0.51081  0.50768  0.03586  1.0000
  C   C50       1.0  0.98919  0.49232  0.53586  1.0000
  C   C51       1.0  0.48919  0.49232  0.96414  1.0000
  C   C52       1.0  0.01081  0.50768  0.46414  1.0000
  C   C53       1.0  0.99488  0.02157  0.03403  1.0000
  C   C54       1.0  0.50512  0.97843  0.53403  1.0000
  C   C55       1.0  0.00512  0.97843  0.96597  1.0000
  C   C56       1.0  0.49489  0.02157  0.46597  1.0000
  N   N1        1.0  0.00564  0.36316  0.11871  1.0000
  N   N2        1.0  0.49436  0.63684  0.61871  1.0000
  N   N3        1.0  0.99434  0.63683  0.88129  1.0000
  N   N4        1.0  0.50565  0.36317  0.38129  1.0000
  N   N5        1.0  0.43663  0.94204  0.70632  1.0000
  N   N6        1.0  0.06337  0.05796  0.20632  1.0000
  N   N7        1.0  0.56337  0.05796  0.29368  1.0000
  N   N8        1.0  0.93662  0.94204  0.79368  1.0000
  O   O1        1.0  0.12586  0.11987  0.05864  1.0000
  O   O2        1.0  0.37414  0.88013  0.55864  1.0000
  O   O3        1.0  0.87414  0.88013  0.94136  1.0000
  O   O4        1.0  0.62586  0.11987  0.44136  1.0000
  O   O5        1.0  0.21556  0.86817  0.03133  1.0000
  O   O6        1.0  0.28444  0.13182  0.53133  1.0000
  O   O7        1.0  0.78445  0.13182  0.96867  1.0000
  O   O8        1.0  0.71556  0.86818  0.46867  1.0000
  O   O9        1.0  0.45126  0.03682  0.92436  1.0000
  O   O10       1.0  0.04874  0.96318  0.42436  1.0000
  O   O11       1.0  0.54873  0.96318  0.07564  1.0000
  O   O12       1.0  0.95126  0.03682  0.57564  1.0000
  O   O13       1.0  0.44695  0.38380  0.06696  1.0000
  O   O14       1.0  0.05305  0.61620  0.56696  1.0000
  O   O15       1.0  0.55305  0.61620  0.93304  1.0000
  O   O16       1.0  0.94695  0.38380  0.43304  1.0000
  O   O17       1.0  0.33191  0.71187  0.00422  1.0000
  O   O18       1.0  0.16809  0.28814  0.50422  1.0000
  O   O19       1.0  0.66809  0.28813  0.99578  1.0000
  O   O20       1.0  0.83192  0.71187  0.49578  1.0000
  O   O21       1.0  0.55956  0.88835  0.88405  1.0000
  O   O22       1.0  0.94045  0.11165  0.38405  1.0000
  O   O23       1.0  0.44044  0.11165  0.11595  1.0000
  O   O24       1.0  0.05956  0.88835  0.61595  1.0000
  O   O25       1.0  0.59068  0.64325  0.05764  1.0000
  O   O26       1.0  0.90930  0.35675  0.55764  1.0000
  O   O27       1.0  0.40932  0.35675  0.94236  1.0000
  O   O28       1.0  0.09070  0.64325  0.44236  1.0000
  O   O29       1.0  0.86040  0.95914  0.06091  1.0000
  O   O30       1.0  0.63960  0.04086  0.56091  1.0000
  O   O31       1.0  0.13960  0.04086  0.93909  1.0000
  O   O32       1.0  0.36040  0.95914  0.43909  1.0000
