data_image0
_chemical_formula_structural       Dy4Cu4H32C56N8O32
_chemical_formula_sum              "Dy4 Cu4 H32 C56 N8 O32"
_cell_length_a       9.14179
_cell_length_b       9.51903
_cell_length_c       21.51
_cell_angle_alpha    90
_cell_angle_beta     90
_cell_angle_gamma    116.302

_space_group_name_H-M_alt    "P 1"
_space_group_IT_number       1

loop_
  _space_group_symop_operation_xyz
  'x, y, z'

loop_
  _atom_site_type_symbol
  _atom_site_label
  _atom_site_symmetry_multiplicity
  _atom_site_fract_x
  _atom_site_fract_y
  _atom_site_fract_z
  _atom_site_occupancy
  Dy  Dy1       1.0  0.87642  0.64689  0.00864  1.0000
  Dy  Dy2       1.0  0.62358  0.35311  0.50863  1.0000
  Dy  Dy3       1.0  0.12359  0.35311  0.99137  1.0000
  Dy  Dy4       1.0  0.37641  0.64688  0.49137  1.0000
  Cu  Cu1       1.0  0.54488  0.69602  0.14665  1.0000
  Cu  Cu2       1.0  0.95513  0.30399  0.64665  1.0000
  Cu  Cu3       1.0  0.45512  0.30399  0.85336  1.0000
  Cu  Cu4       1.0  0.04488  0.69601  0.35335  1.0000
  H   H1        1.0  0.27370  0.03037  0.93002  1.0000
  H   H2        1.0  0.22629  0.96963  0.43002  1.0000
  H   H3        1.0  0.72630  0.96964  0.06998  1.0000
  H   H4        1.0  0.77372  0.03037  0.56997  1.0000
  H   H5        1.0  0.56803  0.77990  0.93240  1.0000
  H   H6        1.0  0.93195  0.22011  0.43240  1.0000
  H   H7        1.0  0.43196  0.22012  0.06760  1.0000
  H   H8        1.0  0.06804  0.77988  0.56760  1.0000
  H   H9        1.0  0.99571  0.66953  0.22172  1.0000
  H   H10       1.0  0.50429  0.33047  0.72172  1.0000
  H   H11       1.0  0.00431  0.33048  0.77828  1.0000
  H   H12       1.0  0.49570  0.66953  0.27828  1.0000
  H   H13       1.0  0.15324  0.25387  0.27514  1.0000
  H   H14       1.0  0.34677  0.74613  0.77514  1.0000
  H   H15       1.0  0.84677  0.74613  0.72487  1.0000
  H   H16       1.0  0.65324  0.25388  0.22486  1.0000
  H   H17       1.0  0.10569  0.29616  0.16168  1.0000
  H   H18       1.0  0.39430  0.70382  0.66168  1.0000
  H   H19       1.0  0.89431  0.70383  0.83833  1.0000
  H   H20       1.0  0.60569  0.29616  0.33832  1.0000
  H   H21       1.0  0.77961  0.00138  0.87138  1.0000
  H   H22       1.0  0.72038  0.99861  0.37137  1.0000
  H   H23       1.0  0.22038  0.99863  0.12862  1.0000
  H   H24       1.0  0.27962  0.00137  0.62863  1.0000
  H   H25       1.0  0.71737  0.21931  0.83685  1.0000
  H   H26       1.0  0.78262  0.78069  0.33685  1.0000
  H   H27       1.0  0.28262  0.78070  0.16314  1.0000
  H   H28       1.0  0.21739  0.21931  0.66314  1.0000
  H   H29       1.0  0.13026  0.43285  0.35539  1.0000
  H   H30       1.0  0.36975  0.56716  0.85540  1.0000
  H   H31       1.0  0.86975  0.56715  0.64461  1.0000
  H   H32       1.0  0.63026  0.43286  0.14461  1.0000
  C   C1        1.0  0.98952  0.99258  0.96410  1.0000
  C   C2        1.0  0.51046  0.00741  0.46410  1.0000
  C   C3        1.0  0.01048  0.00743  0.03590  1.0000
  C   C4        1.0  0.48951  0.99256  0.53590  1.0000
  C   C5        1.0  0.27111  0.75624  0.97126  1.0000
  C   C6        1.0  0.22888  0.24376  0.47126  1.0000
  C   C7        1.0  0.72889  0.24377  0.02874  1.0000
  C   C8        1.0  0.77111  0.75624  0.52874  1.0000
  C   C9        1.0  0.01344  0.51824  0.11891  1.0000
  C   C10       1.0  0.48656  0.48176  0.61891  1.0000
  C   C11       1.0  0.98657  0.48177  0.88109  1.0000
  C   C12       1.0  0.51343  0.51823  0.38109  1.0000
  C   C13       1.0  0.40343  0.88743  0.93533  1.0000
  C   C14       1.0  0.09656  0.11257  0.43533  1.0000
  C   C15       1.0  0.59657  0.11258  0.06467  1.0000
  C   C16       1.0  0.90344  0.88743  0.56467  1.0000
  C   C17       1.0  0.38213  0.01771  0.91683  1.0000
  C   C18       1.0  0.11785  0.98227  0.41683  1.0000
  C   C19       1.0  0.61786  0.98229  0.08316  1.0000
  C   C20       1.0  0.88215  0.01773  0.58316  1.0000
  C   C21       1.0  0.54716  0.87921  0.91813  1.0000
  C   C22       1.0  0.95283  0.12078  0.41813  1.0000
  C   C23       1.0  0.45284  0.12080  0.08187  1.0000
  C   C24       1.0  0.04717  0.87920  0.58187  1.0000
  C   C25       1.0  0.03253  0.57792  0.23236  1.0000
  C   C26       1.0  0.46747  0.42208  0.73236  1.0000
  C   C27       1.0  0.96748  0.42208  0.76764  1.0000
  C   C28       1.0  0.53252  0.57792  0.26764  1.0000
  C   C29       1.0  0.11953  0.34568  0.26120  1.0000
  C   C30       1.0  0.38047  0.65432  0.76120  1.0000
  C   C31       1.0  0.88047  0.65432  0.73880  1.0000
  C   C32       1.0  0.61953  0.34568  0.23880  1.0000
  C   C33       1.0  0.09263  0.36780  0.19892  1.0000
  C   C34       1.0  0.40736  0.63220  0.69892  1.0000
  C   C35       1.0  0.90737  0.63220  0.80109  1.0000
  C   C36       1.0  0.59263  0.36780  0.30108  1.0000
  C   C37       1.0  0.66353  0.00054  0.88334  1.0000
  C   C38       1.0  0.83646  0.99945  0.38334  1.0000
  C   C39       1.0  0.33646  0.99946  0.11666  1.0000
  C   C40       1.0  0.16354  0.00054  0.61666  1.0000
  C   C41       1.0  0.63115  0.12380  0.86510  1.0000
  C   C42       1.0  0.86883  0.87620  0.36509  1.0000
  C   C43       1.0  0.36884  0.87621  0.13490  1.0000
  C   C44       1.0  0.13117  0.12380  0.63490  1.0000
  C   C45       1.0  0.04688  0.48625  0.18443  1.0000
  C   C46       1.0  0.45312  0.51375  0.68443  1.0000
  C   C47       1.0  0.95313  0.51375  0.81557  1.0000
  C   C48       1.0  0.54687  0.48625  0.31557  1.0000
  C   C49       1.0  0.10553  0.44361  0.30653  1.0000
  C   C50       1.0  0.39447  0.55640  0.80653  1.0000
  C   C51       1.0  0.89448  0.55639  0.69347  1.0000
  C   C52       1.0  0.60553  0.44361  0.19347  1.0000
  C   C53       1.0  0.49558  0.52102  0.03425  1.0000
  C   C54       1.0  0.00443  0.47899  0.53425  1.0000
  C   C55       1.0  0.50444  0.47899  0.96576  1.0000
  C   C56       1.0  0.99557  0.52102  0.46575  1.0000
  N   N1        1.0  0.49259  0.13364  0.88127  1.0000
  N   N2        1.0  0.00739  0.86636  0.38128  1.0000
  N   N3        1.0  0.50740  0.86638  0.11872  1.0000
  N   N4        1.0  0.99262  0.13364  0.61872  1.0000
  N   N5        1.0  0.06350  0.55965  0.29248  1.0000
  N   N6        1.0  0.43650  0.44035  0.79248  1.0000
  N   N7        1.0  0.93651  0.44036  0.70752  1.0000
  N   N8        1.0  0.56350  0.55965  0.20752  1.0000
  O   O1        1.0  0.16321  0.78482  0.99774  1.0000
  O   O2        1.0  0.33678  0.21519  0.49773  1.0000
  O   O3        1.0  0.83679  0.21518  0.00227  1.0000
  O   O4        1.0  0.66321  0.78483  0.50227  1.0000
  O   O5        1.0  0.62908  0.61941  0.05891  1.0000
  O   O6        1.0  0.87092  0.38059  0.55891  1.0000
  O   O7        1.0  0.37093  0.38059  0.94109  1.0000
  O   O8        1.0  0.12908  0.61942  0.44109  1.0000
  O   O9        1.0  0.91096  0.85534  0.94220  1.0000
  O   O10       1.0  0.58903  0.14465  0.44220  1.0000
  O   O11       1.0  0.08905  0.14467  0.05780  1.0000
  O   O12       1.0  0.41095  0.85532  0.55781  1.0000
  O   O13       1.0  0.94711  0.60916  0.11115  1.0000
  O   O14       1.0  0.55290  0.39085  0.61115  1.0000
  O   O15       1.0  0.05291  0.39084  0.88885  1.0000
  O   O16       1.0  0.44710  0.60915  0.38885  1.0000
  O   O17       1.0  0.05320  0.45259  0.07542  1.0000
  O   O18       1.0  0.44680  0.54740  0.57542  1.0000
  O   O19       1.0  0.94681  0.54741  0.92458  1.0000
  O   O20       1.0  0.55319  0.45259  0.42458  1.0000
  O   O21       1.0  0.27807  0.62599  0.97065  1.0000
  O   O22       1.0  0.22191  0.37401  0.47064  1.0000
  O   O23       1.0  0.72194  0.37402  0.02935  1.0000
  O   O24       1.0  0.77807  0.62599  0.52935  1.0000
  O   O25       1.0  0.05273  0.11834  0.93324  1.0000
  O   O26       1.0  0.44727  0.88165  0.43324  1.0000
  O   O27       1.0  0.94728  0.88166  0.06677  1.0000
  O   O28       1.0  0.55271  0.11833  0.56676  1.0000
  O   O29       1.0  0.35960  0.45753  0.06116  1.0000
  O   O30       1.0  0.14041  0.54247  0.56116  1.0000
  O   O31       1.0  0.64041  0.54247  0.93884  1.0000
  O   O32       1.0  0.85960  0.45754  0.43884  1.0000
