data_image0
_chemical_formula_structural       Zn2H22C20N2O14
_chemical_formula_sum              "Zn2 H22 C20 N2 O14"
_cell_length_a       6.27014
_cell_length_b       9.93833
_cell_length_c       10.4454
_cell_angle_alpha    90.0007
_cell_angle_beta     110.969
_cell_angle_gamma    89.9993

_space_group_name_H-M_alt    "P 1"
_space_group_IT_number       1

loop_
  _space_group_symop_operation_xyz
  'x, y, z'

loop_
  _atom_site_type_symbol
  _atom_site_label
  _atom_site_symmetry_multiplicity
  _atom_site_fract_x
  _atom_site_fract_y
  _atom_site_fract_z
  _atom_site_occupancy
  Zn  Zn1       1.0  0.77968  0.73493  0.64073  1.0000
  Zn  Zn2       1.0  0.22030  0.23493  0.35927  1.0000
  H   H1        1.0  0.03524  0.18411  0.00274  1.0000
  H   H2        1.0  0.96474  0.68413  0.99726  1.0000
  H   H3        1.0  0.55849  0.03271  0.73064  1.0000
  H   H4        1.0  0.44150  0.53273  0.26935  1.0000
  H   H5        1.0  0.12870  0.26462  0.71374  1.0000
  H   H6        1.0  0.87132  0.76463  0.28629  1.0000
  H   H7        1.0  0.22964  0.30389  0.89254  1.0000
  H   H8        1.0  0.77035  0.80390  0.10749  1.0000
  H   H9        1.0  0.04661  0.41776  0.76878  1.0000
  H   H10       1.0  0.95339  0.91776  0.23125  1.0000
  H   H11       1.0  0.80476  0.17858  0.14465  1.0000
  H   H12       1.0  0.19524  0.67862  0.85536  1.0000
  H   H13       1.0  0.17557  0.95434  0.99185  1.0000
  H   H14       1.0  0.82443  0.45435  0.00813  1.0000
  H   H15       1.0  0.43211  0.81532  0.43894  1.0000
  H   H16       1.0  0.56791  0.31530  0.56106  1.0000
  H   H17       1.0  0.40930  0.86880  0.57725  1.0000
  H   H18       1.0  0.59069  0.36880  0.42274  1.0000
  H   H19       1.0  0.88234  0.54652  0.48602  1.0000
  H   H20       1.0  0.11766  0.04652  0.51397  1.0000
  H   H21       1.0  0.10848  0.61745  0.59328  1.0000
  H   H22       1.0  0.89152  0.11743  0.40671  1.0000
  C   C1        1.0  0.17091  0.91562  0.73512  1.0000
  C   C2        1.0  0.82909  0.41561  0.26487  1.0000
  C   C3        1.0  0.35259  0.98360  0.85142  1.0000
  C   C4        1.0  0.64740  0.48361  0.14857  1.0000
  C   C5        1.0  0.54085  0.04080  0.82997  1.0000
  C   C6        1.0  0.45915  0.54081  0.17003  1.0000
  C   C7        1.0  0.70323  0.11153  0.93632  1.0000
  C   C8        1.0  0.29676  0.61154  0.06368  1.0000
  C   C9        1.0  0.87161  0.24564  0.80122  1.0000
  C   C10       1.0  0.12839  0.74565  0.19879  1.0000
  C   C11       1.0  0.08364  0.31145  0.79599  1.0000
  C   C12       1.0  0.91636  0.81146  0.20404  1.0000
  C   C13       1.0  0.67981  0.12124  0.06389  1.0000
  C   C14       1.0  0.32019  0.62127  0.93610  1.0000
  C   C15       1.0  0.48972  0.06646  0.08471  1.0000
  C   C16       1.0  0.51028  0.56648  0.91530  1.0000
  C   C17       1.0  0.32614  0.99663  0.97845  1.0000
  C   C18       1.0  0.67384  0.49665  0.02153  1.0000
  C   C19       1.0  0.45423  0.10058  0.21540  1.0000
  C   C20       1.0  0.54578  0.60060  0.78460  1.0000
  N   N1        1.0  0.88888  0.17783  0.91768  1.0000
  N   N2        1.0  0.11113  0.67786  0.08234  1.0000
  O   O1        1.0  0.00623  0.86328  0.76338  1.0000
  O   O2        1.0  0.99377  0.36328  0.23662  1.0000
  O   O3        1.0  0.18485  0.91252  0.61671  1.0000
  O   O4        1.0  0.81515  0.41252  0.38328  1.0000
  O   O5        1.0  0.68441  0.25180  0.70408  1.0000
  O   O6        1.0  0.31560  0.75183  0.29591  1.0000
  O   O7        1.0  0.24465  0.13064  0.20052  1.0000
  O   O8        1.0  0.75534  0.63063  0.79947  1.0000
  O   O9        1.0  0.52501  0.85049  0.53366  1.0000
  O   O10       1.0  0.47500  0.35048  0.46634  1.0000
  O   O11       1.0  0.61664  0.10808  0.32776  1.0000
  O   O12       1.0  0.38336  0.60810  0.67223  1.0000
  O   O13       1.0  0.93993  0.62927  0.54195  1.0000
  O   O14       1.0  0.06007  0.12926  0.45804  1.0000
