data_image0
_chemical_formula_structural       La4H32C40N8Cl12
_chemical_formula_sum              "La4 H32 C40 N8 Cl12"
_cell_length_a       7.08763
_cell_length_b       7.42686
_cell_length_c       23.8618
_cell_angle_alpha    90
_cell_angle_beta     90
_cell_angle_gamma    90

_space_group_name_H-M_alt    "P 1"
_space_group_IT_number       1

loop_
  _space_group_symop_operation_xyz
  'x, y, z'

loop_
  _atom_site_type_symbol
  _atom_site_label
  _atom_site_symmetry_multiplicity
  _atom_site_fract_x
  _atom_site_fract_y
  _atom_site_fract_z
  _atom_site_occupancy
  La  La1       1.0  0.75000  0.29818  0.50000  1.0000
  La  La2       1.0  0.75000  0.70182  0.00000  1.0000
  La  La3       1.0  0.25000  0.70182  0.50000  1.0000
  La  La4       1.0  0.25000  0.29818  0.00000  1.0000
  H   H1        1.0  0.76312  0.42448  0.35495  1.0000
  H   H2        1.0  0.76312  0.57552  0.14505  1.0000
  H   H3        1.0  0.73688  0.57552  0.85495  1.0000
  H   H4        1.0  0.73688  0.42448  0.64505  1.0000
  H   H5        1.0  0.23688  0.57552  0.64505  1.0000
  H   H6        1.0  0.23688  0.42448  0.85495  1.0000
  H   H7        1.0  0.26312  0.42448  0.14505  1.0000
  H   H8        1.0  0.26312  0.57552  0.35495  1.0000
  H   H9        1.0  0.77062  0.31860  0.25676  1.0000
  H   H10       1.0  0.77062  0.68140  0.24325  1.0000
  H   H11       1.0  0.72938  0.68140  0.75675  1.0000
  H   H12       1.0  0.72938  0.31860  0.74325  1.0000
  H   H13       1.0  0.22938  0.68140  0.74325  1.0000
  H   H14       1.0  0.22938  0.31860  0.75675  1.0000
  H   H15       1.0  0.27062  0.31860  0.24325  1.0000
  H   H16       1.0  0.27062  0.68140  0.25675  1.0000
  H   H17       1.0  0.71996  0.90404  0.41575  1.0000
  H   H18       1.0  0.71996  0.09595  0.08425  1.0000
  H   H19       1.0  0.78004  0.09595  0.91575  1.0000
  H   H20       1.0  0.78004  0.90405  0.58425  1.0000
  H   H21       1.0  0.28004  0.09595  0.58425  1.0000
  H   H22       1.0  0.28004  0.90405  0.91575  1.0000
  H   H23       1.0  0.21996  0.90404  0.08425  1.0000
  H   H24       1.0  0.21996  0.09595  0.41575  1.0000
  H   H25       1.0  0.71878  0.77569  0.32150  1.0000
  H   H26       1.0  0.71878  0.22431  0.17850  1.0000
  H   H27       1.0  0.78122  0.22431  0.82150  1.0000
  H   H28       1.0  0.78122  0.77569  0.67850  1.0000
  H   H29       1.0  0.28123  0.22431  0.67850  1.0000
  H   H30       1.0  0.28122  0.77569  0.82150  1.0000
  H   H31       1.0  0.21878  0.77569  0.17850  1.0000
  H   H32       1.0  0.21878  0.22431  0.32150  1.0000
  C   C1        1.0  0.75399  0.28119  0.34541  1.0000
  C   C2        1.0  0.75399  0.71881  0.15459  1.0000
  C   C3        1.0  0.74601  0.71881  0.84541  1.0000
  C   C4        1.0  0.74601  0.28119  0.65459  1.0000
  C   C5        1.0  0.24601  0.71881  0.65459  1.0000
  C   C6        1.0  0.24601  0.28119  0.84541  1.0000
  C   C7        1.0  0.25399  0.28119  0.15459  1.0000
  C   C8        1.0  0.25399  0.71880  0.34540  1.0000
  C   C9        1.0  0.75699  0.22037  0.29038  1.0000
  C   C10       1.0  0.75699  0.77963  0.20962  1.0000
  C   C11       1.0  0.74301  0.77963  0.79038  1.0000
  C   C12       1.0  0.74301  0.22037  0.70962  1.0000
  C   C13       1.0  0.24301  0.77963  0.70962  1.0000
  C   C14       1.0  0.24301  0.22037  0.79038  1.0000
  C   C15       1.0  0.25699  0.22037  0.20962  1.0000
  C   C16       1.0  0.25699  0.77963  0.29038  1.0000
  C   C17       1.0  0.74461  0.03506  0.27899  1.0000
  C   C18       1.0  0.74461  0.96494  0.22101  1.0000
  C   C19       1.0  0.75539  0.96495  0.77899  1.0000
  C   C20       1.0  0.75539  0.03506  0.72101  1.0000
  C   C21       1.0  0.25539  0.96495  0.72101  1.0000
  C   C22       1.0  0.25539  0.03506  0.77899  1.0000
  C   C23       1.0  0.24461  0.03506  0.22101  1.0000
  C   C24       1.0  0.24462  0.96494  0.27899  1.0000
  C   C25       1.0  0.73063  0.99264  0.37952  1.0000
  C   C26       1.0  0.73063  0.00736  0.12048  1.0000
  C   C27       1.0  0.76937  0.00736  0.87952  1.0000
  C   C28       1.0  0.76937  0.99264  0.62048  1.0000
  C   C29       1.0  0.26937  0.00736  0.62048  1.0000
  C   C30       1.0  0.26937  0.99264  0.87952  1.0000
  C   C31       1.0  0.23063  0.99264  0.12048  1.0000
  C   C32       1.0  0.23063  0.00736  0.37952  1.0000
  C   C33       1.0  0.73147  0.92103  0.32566  1.0000
  C   C34       1.0  0.73147  0.07897  0.17434  1.0000
  C   C35       1.0  0.76853  0.07897  0.82566  1.0000
  C   C36       1.0  0.76853  0.92103  0.67434  1.0000
  C   C37       1.0  0.26853  0.07897  0.67434  1.0000
  C   C38       1.0  0.26853  0.92103  0.82566  1.0000
  C   C39       1.0  0.23147  0.92103  0.17434  1.0000
  C   C40       1.0  0.23147  0.07896  0.32566  1.0000
  N   N1        1.0  0.74009  0.17050  0.38991  1.0000
  N   N2        1.0  0.74009  0.82950  0.11009  1.0000
  N   N3        1.0  0.75991  0.82950  0.88991  1.0000
  N   N4        1.0  0.75991  0.17050  0.61009  1.0000
  N   N5        1.0  0.25991  0.82950  0.61009  1.0000
  N   N6        1.0  0.25991  0.17050  0.88991  1.0000
  N   N7        1.0  0.24009  0.17050  0.11009  1.0000
  N   N8        1.0  0.24009  0.82949  0.38991  1.0000
  Cl  Cl1       1.0  0.00000  0.00000  0.50000  1.0000
  Cl  Cl2       1.0  0.00000  0.00000  0.00000  1.0000
  Cl  Cl3       1.0  0.50000  0.00000  0.00000  1.0000
  Cl  Cl4       1.0  0.50000  0.00000  0.50000  1.0000
  Cl  Cl5       1.0  0.92799  0.57020  0.56413  1.0000
  Cl  Cl6       1.0  0.92799  0.42980  0.93587  1.0000
  Cl  Cl7       1.0  0.57201  0.42980  0.06413  1.0000
  Cl  Cl8       1.0  0.57201  0.57020  0.43587  1.0000
  Cl  Cl9       1.0  0.07201  0.42980  0.43587  1.0000
  Cl  Cl10      1.0  0.07201  0.57020  0.06413  1.0000
  Cl  Cl11      1.0  0.42799  0.57020  0.93587  1.0000
  Cl  Cl12      1.0  0.42799  0.42980  0.56413  1.0000
