data_image0
_chemical_formula_structural       Sm6H48C60N12Cl18
_chemical_formula_sum              "Sm6 H48 C60 N12 Cl18"
_cell_length_a       11.7254
_cell_length_b       11.776
_cell_length_c       15.9081
_cell_angle_alpha    90
_cell_angle_beta     90
_cell_angle_gamma    118.048

_space_group_name_H-M_alt    "P 1"
_space_group_IT_number       1

loop_
  _space_group_symop_operation_xyz
  'x, y, z'

loop_
  _atom_site_type_symbol
  _atom_site_label
  _atom_site_symmetry_multiplicity
  _atom_site_fract_x
  _atom_site_fract_y
  _atom_site_fract_z
  _atom_site_occupancy
  Sm  Sm1       1.0  0.93696  0.06299  0.11781  1.0000
  Sm  Sm2       1.0  0.06304  0.93701  0.61781  1.0000
  Sm  Sm3       1.0  0.06304  0.93701  0.88219  1.0000
  Sm  Sm4       1.0  0.93696  0.06299  0.38219  1.0000
  Sm  Sm5       1.0  0.75176  0.24852  0.25000  1.0000
  Sm  Sm6       1.0  0.24824  0.75148  0.75000  1.0000
  H   H1        1.0  0.64523  0.92823  0.02209  1.0000
  H   H2        1.0  0.35477  0.07177  0.52209  1.0000
  H   H3        1.0  0.92934  0.64579  0.97815  1.0000
  H   H4        1.0  0.07066  0.35421  0.47815  1.0000
  H   H5        1.0  0.35477  0.07177  0.97791  1.0000
  H   H6        1.0  0.64523  0.92823  0.47791  1.0000
  H   H7        1.0  0.07066  0.35421  0.02185  1.0000
  H   H8        1.0  0.92934  0.64579  0.52185  1.0000
  H   H9        1.0  0.43455  0.73088  0.02058  1.0000
  H   H10       1.0  0.56545  0.26912  0.52058  1.0000
  H   H11       1.0  0.73159  0.43540  0.97939  1.0000
  H   H12       1.0  0.26841  0.56460  0.47939  1.0000
  H   H13       1.0  0.56545  0.26912  0.97942  1.0000
  H   H14       1.0  0.43455  0.73088  0.47942  1.0000
  H   H15       1.0  0.26841  0.56460  0.02061  1.0000
  H   H16       1.0  0.73159  0.43540  0.52061  1.0000
  H   H17       1.0  0.61838  0.54402  0.16005  1.0000
  H   H18       1.0  0.38162  0.45598  0.66005  1.0000
  H   H19       1.0  0.54318  0.61761  0.83985  1.0000
  H   H20       1.0  0.45682  0.38239  0.33985  1.0000
  H   H21       1.0  0.38162  0.45598  0.83995  1.0000
  H   H22       1.0  0.61838  0.54402  0.33995  1.0000
  H   H23       1.0  0.45682  0.38239  0.16015  1.0000
  H   H24       1.0  0.54318  0.61761  0.66015  1.0000
  H   H25       1.0  0.81980  0.74863  0.15410  1.0000
  H   H26       1.0  0.18020  0.25137  0.65410  1.0000
  H   H27       1.0  0.74798  0.81857  0.84612  1.0000
  H   H28       1.0  0.25202  0.18143  0.34612  1.0000
  H   H29       1.0  0.18020  0.25137  0.84590  1.0000
  H   H30       1.0  0.81980  0.74863  0.34590  1.0000
  H   H31       1.0  0.25202  0.18143  0.15388  1.0000
  H   H32       1.0  0.74798  0.81857  0.65388  1.0000
  H   H33       1.0  0.50566  0.06619  0.37991  1.0000
  H   H34       1.0  0.49434  0.93381  0.87991  1.0000
  H   H35       1.0  0.06613  0.50563  0.62010  1.0000
  H   H36       1.0  0.93388  0.49437  0.12010  1.0000
  H   H37       1.0  0.49434  0.93381  0.62009  1.0000
  H   H38       1.0  0.50566  0.06619  0.12009  1.0000
  H   H39       1.0  0.93387  0.49437  0.37990  1.0000
  H   H40       1.0  0.06613  0.50563  0.87990  1.0000
  H   H41       1.0  0.29312  0.87102  0.38646  1.0000
  H   H42       1.0  0.70688  0.12898  0.88646  1.0000
  H   H43       1.0  0.87111  0.29318  0.61355  1.0000
  H   H44       1.0  0.12889  0.70682  0.11355  1.0000
  H   H45       1.0  0.70688  0.12898  0.61354  1.0000
  H   H46       1.0  0.29312  0.87102  0.11354  1.0000
  H   H47       1.0  0.12889  0.70682  0.38645  1.0000
  H   H48       1.0  0.87111  0.29318  0.88645  1.0000
  C   C1        1.0  0.63386  0.84051  0.05258  1.0000
  C   C2        1.0  0.36614  0.15949  0.55258  1.0000
  C   C3        1.0  0.84117  0.63414  0.94765  1.0000
  C   C4        1.0  0.15883  0.36586  0.44765  1.0000
  C   C5        1.0  0.36614  0.15949  0.94742  1.0000
  C   C6        1.0  0.63386  0.84051  0.44742  1.0000
  C   C7        1.0  0.15883  0.36586  0.05235  1.0000
  C   C8        1.0  0.84117  0.63414  0.55235  1.0000
  C   C9        1.0  0.51543  0.72965  0.05338  1.0000
  C   C10       1.0  0.48457  0.27035  0.55338  1.0000
  C   C11       1.0  0.73022  0.51594  0.94669  1.0000
  C   C12       1.0  0.26978  0.48406  0.44669  1.0000
  C   C13       1.0  0.48457  0.27035  0.94662  1.0000
  C   C14       1.0  0.51542  0.72965  0.44662  1.0000
  C   C15       1.0  0.26978  0.48406  0.05331  1.0000
  C   C16       1.0  0.73022  0.51594  0.55331  1.0000
  C   C17       1.0  0.50437  0.61805  0.09285  1.0000
  C   C18       1.0  0.49563  0.38195  0.59285  1.0000
  C   C19       1.0  0.61804  0.50437  0.90714  1.0000
  C   C20       1.0  0.38196  0.49563  0.40714  1.0000
  C   C21       1.0  0.49563  0.38195  0.90715  1.0000
  C   C22       1.0  0.50437  0.61805  0.40715  1.0000
  C   C23       1.0  0.38196  0.49563  0.09286  1.0000
  C   C24       1.0  0.61804  0.50437  0.59286  1.0000
  C   C25       1.0  0.61670  0.62646  0.13021  1.0000
  C   C26       1.0  0.38330  0.37354  0.63021  1.0000
  C   C27       1.0  0.62596  0.61609  0.86980  1.0000
  C   C28       1.0  0.37404  0.38392  0.36980  1.0000
  C   C29       1.0  0.38330  0.37354  0.86979  1.0000
  C   C30       1.0  0.61670  0.62646  0.36979  1.0000
  C   C31       1.0  0.37404  0.38392  0.13020  1.0000
  C   C32       1.0  0.62596  0.61608  0.63020  1.0000
  C   C33       1.0  0.73137  0.74095  0.12628  1.0000
  C   C34       1.0  0.26863  0.25905  0.62628  1.0000
  C   C35       1.0  0.74058  0.73060  0.87391  1.0000
  C   C36       1.0  0.25942  0.26940  0.37391  1.0000
  C   C37       1.0  0.26863  0.25905  0.87372  1.0000
  C   C38       1.0  0.73137  0.74095  0.37372  1.0000
  C   C39       1.0  0.25942  0.26940  0.12609  1.0000
  C   C40       1.0  0.74058  0.73060  0.62609  1.0000
  C   C41       1.0  0.45502  0.01836  0.32244  1.0000
  C   C42       1.0  0.54498  0.98164  0.82244  1.0000
  C   C43       1.0  0.01825  0.45506  0.67757  1.0000
  C   C44       1.0  0.98175  0.54494  0.17757  1.0000
  C   C45       1.0  0.54498  0.98164  0.67756  1.0000
  C   C46       1.0  0.45502  0.01836  0.17756  1.0000
  C   C47       1.0  0.98174  0.54494  0.32243  1.0000
  C   C48       1.0  0.01825  0.45506  0.82243  1.0000
  C   C49       1.0  0.33584  0.90845  0.32525  1.0000
  C   C50       1.0  0.66416  0.09154  0.82525  1.0000
  C   C51       1.0  0.90850  0.33588  0.67475  1.0000
  C   C52       1.0  0.09150  0.66412  0.17475  1.0000
  C   C53       1.0  0.66416  0.09154  0.67475  1.0000
  C   C54       1.0  0.33584  0.90846  0.17475  1.0000
  C   C55       1.0  0.09150  0.66412  0.32525  1.0000
  C   C56       1.0  0.90850  0.33588  0.82525  1.0000
  C   C57       1.0  0.27361  0.84871  0.25000  1.0000
  C   C58       1.0  0.72639  0.15129  0.75000  1.0000
  C   C59       1.0  0.84877  0.27366  0.75000  1.0000
  C   C60       1.0  0.15123  0.72634  0.25000  1.0000
  N   N1        1.0  0.74096  0.84741  0.08848  1.0000
  N   N2        1.0  0.25904  0.15260  0.58848  1.0000
  N   N3        1.0  0.84760  0.74066  0.91184  1.0000
  N   N4        1.0  0.15240  0.25934  0.41184  1.0000
  N   N5        1.0  0.25904  0.15260  0.91152  1.0000
  N   N6        1.0  0.74096  0.84741  0.41152  1.0000
  N   N7        1.0  0.15240  0.25934  0.08816  1.0000
  N   N8        1.0  0.84760  0.74066  0.58816  1.0000
  N   N9        1.0  0.51552  0.07240  0.25000  1.0000
  N   N10       1.0  0.48448  0.92760  0.75000  1.0000
  N   N11       1.0  0.07217  0.51558  0.75000  1.0000
  N   N12       1.0  0.92783  0.48441  0.25000  1.0000
  Cl  Cl1       1.0  0.00565  0.25940  0.25000  1.0000
  Cl  Cl2       1.0  0.99435  0.74060  0.75000  1.0000
  Cl  Cl3       1.0  0.25962  0.00535  0.75000  1.0000
  Cl  Cl4       1.0  0.74038  0.99465  0.25000  1.0000
  Cl  Cl5       1.0  0.02547  0.97505  0.25000  1.0000
  Cl  Cl6       1.0  0.97453  0.02495  0.75000  1.0000
  Cl  Cl7       1.0  0.80416  0.19546  0.07935  1.0000
  Cl  Cl8       1.0  0.19584  0.80454  0.57935  1.0000
  Cl  Cl9       1.0  0.19584  0.80454  0.92065  1.0000
  Cl  Cl10      1.0  0.80416  0.19546  0.42065  1.0000
  Cl  Cl11      1.0  0.93103  0.06849  0.94360  1.0000
  Cl  Cl12      1.0  0.06897  0.93151  0.44360  1.0000
  Cl  Cl13      1.0  0.06897  0.93151  0.05640  1.0000
  Cl  Cl14      1.0  0.93103  0.06849  0.55640  1.0000
  Cl  Cl15      1.0  0.65054  0.34944  0.35957  1.0000
  Cl  Cl16      1.0  0.34946  0.65056  0.85957  1.0000
  Cl  Cl17      1.0  0.34946  0.65056  0.64043  1.0000
  Cl  Cl18      1.0  0.65054  0.34944  0.14043  1.0000
