data_image0
_chemical_formula_structural       Pr6H48C60N12Cl18
_chemical_formula_sum              "Pr6 H48 C60 N12 Cl18"
_cell_length_a       11.8031
_cell_length_b       11.8516
_cell_length_c       16.062
_cell_angle_alpha    90
_cell_angle_beta     90
_cell_angle_gamma    117.773

_space_group_name_H-M_alt    "P 1"
_space_group_IT_number       1

loop_
  _space_group_symop_operation_xyz
  'x, y, z'

loop_
  _atom_site_type_symbol
  _atom_site_label
  _atom_site_symmetry_multiplicity
  _atom_site_fract_x
  _atom_site_fract_y
  _atom_site_fract_z
  _atom_site_occupancy
  Pr  Pr1       1.0  0.93606  0.06391  0.11754  1.0000
  Pr  Pr2       1.0  0.06394  0.93609  0.61754  1.0000
  Pr  Pr3       1.0  0.06394  0.93609  0.88246  1.0000
  Pr  Pr4       1.0  0.93606  0.06391  0.38246  1.0000
  Pr  Pr5       1.0  0.74927  0.25103  0.25000  1.0000
  Pr  Pr6       1.0  0.25073  0.74897  0.75000  1.0000
  H   H1        1.0  0.64331  0.92474  0.01802  1.0000
  H   H2        1.0  0.35669  0.07526  0.51802  1.0000
  H   H3        1.0  0.92592  0.64397  0.98224  1.0000
  H   H4        1.0  0.07408  0.35602  0.48224  1.0000
  H   H5        1.0  0.35669  0.07526  0.98198  1.0000
  H   H6        1.0  0.64331  0.92474  0.48198  1.0000
  H   H7        1.0  0.07408  0.35602  0.01776  1.0000
  H   H8        1.0  0.92592  0.64397  0.51776  1.0000
  H   H9        1.0  0.43480  0.72960  0.01606  1.0000
  H   H10       1.0  0.56520  0.27040  0.51606  1.0000
  H   H11       1.0  0.73054  0.43569  0.98399  1.0000
  H   H12       1.0  0.26946  0.56431  0.48399  1.0000
  H   H13       1.0  0.56520  0.27040  0.98394  1.0000
  H   H14       1.0  0.43480  0.72960  0.48394  1.0000
  H   H15       1.0  0.26946  0.56431  0.01601  1.0000
  H   H16       1.0  0.73054  0.43569  0.51601  1.0000
  H   H17       1.0  0.61393  0.54650  0.16098  1.0000
  H   H18       1.0  0.38607  0.45350  0.66098  1.0000
  H   H19       1.0  0.54571  0.61299  0.83895  1.0000
  H   H20       1.0  0.45429  0.38701  0.33896  1.0000
  H   H21       1.0  0.38607  0.45350  0.83902  1.0000
  H   H22       1.0  0.61393  0.54650  0.33902  1.0000
  H   H23       1.0  0.45429  0.38701  0.16104  1.0000
  H   H24       1.0  0.54571  0.61299  0.66105  1.0000
  H   H25       1.0  0.81301  0.74892  0.15605  1.0000
  H   H26       1.0  0.18698  0.25108  0.65606  1.0000
  H   H27       1.0  0.74821  0.81176  0.84416  1.0000
  H   H28       1.0  0.25179  0.18824  0.34416  1.0000
  H   H29       1.0  0.18698  0.25108  0.84394  1.0000
  H   H30       1.0  0.81301  0.74892  0.34395  1.0000
  H   H31       1.0  0.25179  0.18824  0.15584  1.0000
  H   H32       1.0  0.74821  0.81176  0.65584  1.0000
  H   H33       1.0  0.50008  0.06573  0.37874  1.0000
  H   H34       1.0  0.49992  0.93427  0.87874  1.0000
  H   H35       1.0  0.06570  0.50011  0.62127  1.0000
  H   H36       1.0  0.93430  0.49989  0.12127  1.0000
  H   H37       1.0  0.49992  0.93427  0.62126  1.0000
  H   H38       1.0  0.50008  0.06573  0.12126  1.0000
  H   H39       1.0  0.93430  0.49989  0.37873  1.0000
  H   H40       1.0  0.06570  0.50011  0.87873  1.0000
  H   H41       1.0  0.29075  0.87180  0.38518  1.0000
  H   H42       1.0  0.70925  0.12820  0.88518  1.0000
  H   H43       1.0  0.87194  0.29082  0.61483  1.0000
  H   H44       1.0  0.12806  0.70918  0.11483  1.0000
  H   H45       1.0  0.70925  0.12820  0.61482  1.0000
  H   H46       1.0  0.29075  0.87180  0.11482  1.0000
  H   H47       1.0  0.12806  0.70918  0.38517  1.0000
  H   H48       1.0  0.87194  0.29082  0.88517  1.0000
  C   C1        1.0  0.63145  0.83843  0.04971  1.0000
  C   C2        1.0  0.36855  0.16157  0.54971  1.0000
  C   C3        1.0  0.83914  0.63177  0.95054  1.0000
  C   C4        1.0  0.16086  0.36823  0.45054  1.0000
  C   C5        1.0  0.36855  0.16157  0.95029  1.0000
  C   C6        1.0  0.63145  0.83843  0.45029  1.0000
  C   C7        1.0  0.16086  0.36823  0.04946  1.0000
  C   C8        1.0  0.83914  0.63177  0.54946  1.0000
  C   C9        1.0  0.51416  0.72877  0.05008  1.0000
  C   C10       1.0  0.48584  0.27123  0.55008  1.0000
  C   C11       1.0  0.72943  0.51464  0.95003  1.0000
  C   C12       1.0  0.27057  0.48536  0.45003  1.0000
  C   C13       1.0  0.48584  0.27123  0.94992  1.0000
  C   C14       1.0  0.51416  0.72877  0.44992  1.0000
  C   C15       1.0  0.27057  0.48536  0.04997  1.0000
  C   C16       1.0  0.72943  0.51464  0.54997  1.0000
  C   C17       1.0  0.50234  0.61887  0.09093  1.0000
  C   C18       1.0  0.49766  0.38114  0.59093  1.0000
  C   C19       1.0  0.61895  0.50235  0.90909  1.0000
  C   C20       1.0  0.38105  0.49766  0.40909  1.0000
  C   C21       1.0  0.49766  0.38114  0.90907  1.0000
  C   C22       1.0  0.50234  0.61887  0.40907  1.0000
  C   C23       1.0  0.38105  0.49766  0.09091  1.0000
  C   C24       1.0  0.61895  0.50235  0.59091  1.0000
  C   C25       1.0  0.61278  0.62765  0.12997  1.0000
  C   C26       1.0  0.38722  0.37235  0.62997  1.0000
  C   C27       1.0  0.62727  0.61214  0.87004  1.0000
  C   C28       1.0  0.37273  0.38787  0.37004  1.0000
  C   C29       1.0  0.38722  0.37235  0.87003  1.0000
  C   C30       1.0  0.61278  0.62765  0.37003  1.0000
  C   C31       1.0  0.37273  0.38787  0.12996  1.0000
  C   C32       1.0  0.62727  0.61214  0.62996  1.0000
  C   C33       1.0  0.72624  0.74096  0.12651  1.0000
  C   C34       1.0  0.27377  0.25904  0.62651  1.0000
  C   C35       1.0  0.74066  0.72547  0.87370  1.0000
  C   C36       1.0  0.25934  0.27453  0.37370  1.0000
  C   C37       1.0  0.27377  0.25904  0.87349  1.0000
  C   C38       1.0  0.72624  0.74096  0.37349  1.0000
  C   C39       1.0  0.25934  0.27453  0.12630  1.0000
  C   C40       1.0  0.74066  0.72547  0.62630  1.0000
  C   C41       1.0  0.45026  0.01835  0.32171  1.0000
  C   C42       1.0  0.54974  0.98165  0.82171  1.0000
  C   C43       1.0  0.01826  0.45035  0.67830  1.0000
  C   C44       1.0  0.98174  0.54965  0.17830  1.0000
  C   C45       1.0  0.54974  0.98165  0.67829  1.0000
  C   C46       1.0  0.45026  0.01835  0.17829  1.0000
  C   C47       1.0  0.98174  0.54965  0.32170  1.0000
  C   C48       1.0  0.01826  0.45035  0.82170  1.0000
  C   C49       1.0  0.33273  0.90900  0.32452  1.0000
  C   C50       1.0  0.66727  0.09100  0.82452  1.0000
  C   C51       1.0  0.90910  0.33281  0.67547  1.0000
  C   C52       1.0  0.09090  0.66719  0.17547  1.0000
  C   C53       1.0  0.66727  0.09100  0.67548  1.0000
  C   C54       1.0  0.33273  0.90900  0.17548  1.0000
  C   C55       1.0  0.09090  0.66719  0.32453  1.0000
  C   C56       1.0  0.90910  0.33281  0.82453  1.0000
  C   C57       1.0  0.27140  0.84971  0.25000  1.0000
  C   C58       1.0  0.72860  0.15029  0.75000  1.0000
  C   C59       1.0  0.84978  0.27149  0.75000  1.0000
  C   C60       1.0  0.15022  0.72851  0.25000  1.0000
  N   N1        1.0  0.73664  0.84583  0.08734  1.0000
  N   N2        1.0  0.26336  0.15417  0.58734  1.0000
  N   N3        1.0  0.84606  0.73639  0.91299  1.0000
  N   N4        1.0  0.15394  0.26361  0.41299  1.0000
  N   N5        1.0  0.26336  0.15417  0.91266  1.0000
  N   N6        1.0  0.73664  0.84583  0.41266  1.0000
  N   N7        1.0  0.15394  0.26361  0.08701  1.0000
  N   N8        1.0  0.84606  0.73639  0.58701  1.0000
  N   N9        1.0  0.50989  0.07217  0.25000  1.0000
  N   N10       1.0  0.49011  0.92783  0.75000  1.0000
  N   N11       1.0  0.07196  0.51003  0.75000  1.0000
  N   N12       1.0  0.92804  0.48997  0.25000  1.0000
  Cl  Cl1       1.0  0.00556  0.26140  0.25000  1.0000
  Cl  Cl2       1.0  0.99444  0.73860  0.75000  1.0000
  Cl  Cl3       1.0  0.26171  0.00514  0.75000  1.0000
  Cl  Cl4       1.0  0.73829  0.99486  0.25000  1.0000
  Cl  Cl5       1.0  0.02664  0.97403  0.25000  1.0000
  Cl  Cl6       1.0  0.97336  0.02597  0.75000  1.0000
  Cl  Cl7       1.0  0.80118  0.19835  0.07798  1.0000
  Cl  Cl8       1.0  0.19882  0.80165  0.57798  1.0000
  Cl  Cl9       1.0  0.19882  0.80165  0.92202  1.0000
  Cl  Cl10      1.0  0.80118  0.19835  0.42202  1.0000
  Cl  Cl11      1.0  0.92997  0.06947  0.94270  1.0000
  Cl  Cl12      1.0  0.07003  0.93053  0.44270  1.0000
  Cl  Cl13      1.0  0.07003  0.93053  0.05730  1.0000
  Cl  Cl14      1.0  0.92997  0.06947  0.55730  1.0000
  Cl  Cl15      1.0  0.64640  0.35367  0.35959  1.0000
  Cl  Cl16      1.0  0.35360  0.64632  0.85959  1.0000
  Cl  Cl17      1.0  0.35360  0.64632  0.64041  1.0000
  Cl  Cl18      1.0  0.64640  0.35367  0.14041  1.0000
