data_image0
_chemical_formula_structural       Gd2H52C70N14Cl6
_chemical_formula_sum              "Gd2 H52 C70 N14 Cl6"
_cell_length_a       11.7573
_cell_length_b       13.0588
_cell_length_c       16.8723
_cell_angle_alpha    82.1171
_cell_angle_beta     72.262
_cell_angle_gamma    63.2456

_space_group_name_H-M_alt    "P 1"
_space_group_IT_number       1

loop_
  _space_group_symop_operation_xyz
  'x, y, z'

loop_
  _atom_site_type_symbol
  _atom_site_label
  _atom_site_symmetry_multiplicity
  _atom_site_fract_x
  _atom_site_fract_y
  _atom_site_fract_z
  _atom_site_occupancy
  Gd  Gd1       1.0  0.93588  0.99999  0.13856  1.0000
  Gd  Gd2       1.0  0.06412  0.00001  0.86144  1.0000
  H   H1        1.0  0.40291  0.91366  0.21277  1.0000
  H   H2        1.0  0.68310  0.91396  0.78725  1.0000
  H   H3        1.0  0.59709  0.08634  0.78723  1.0000
  H   H4        1.0  0.31690  0.08603  0.21274  1.0000
  H   H5        1.0  0.82751  0.82281  0.08000  1.0000
  H   H6        1.0  0.34922  0.82309  0.92018  1.0000
  H   H7        1.0  0.17249  0.17718  0.92000  1.0000
  H   H8        1.0  0.65078  0.17691  0.07982  1.0000
  H   H9        1.0  0.38168  0.60921  0.15843  1.0000
  H   H10       1.0  0.00852  0.60931  0.84173  1.0000
  H   H11       1.0  0.61832  0.39079  0.84157  1.0000
  H   H12       1.0  0.99147  0.39069  0.15827  1.0000
  H   H13       1.0  0.66171  0.81408  0.02347  1.0000
  H   H14       1.0  0.52389  0.81422  0.97662  1.0000
  H   H15       1.0  0.33829  0.18592  0.97653  1.0000
  H   H16       1.0  0.47611  0.18578  0.02338  1.0000
  H   H17       1.0  0.07983  0.81411  0.44402  1.0000
  H   H18       1.0  0.10625  0.81409  0.55588  1.0000
  H   H19       1.0  0.92017  0.18590  0.55599  1.0000
  H   H20       1.0  0.89376  0.18592  0.44412  1.0000
  H   H21       1.0  0.04201  0.82305  0.30688  1.0000
  H   H22       1.0  0.13516  0.82298  0.69303  1.0000
  H   H23       1.0  0.95799  0.17695  0.69312  1.0000
  H   H24       1.0  0.86485  0.17702  0.30697  1.0000
  H   H25       1.0  0.51434  0.51793  0.21943  1.0000
  H   H26       1.0  0.96743  0.51831  0.78032  1.0000
  H   H27       1.0  0.48566  0.48207  0.78056  1.0000
  H   H28       1.0  0.03257  0.48169  0.21968  1.0000
  H   H29       1.0  0.73232  0.39674  0.24412  1.0000
  H   H30       1.0  0.87089  0.39704  0.75542  1.0000
  H   H31       1.0  0.26768  0.60326  0.75588  1.0000
  H   H32       1.0  0.12912  0.60296  0.24458  1.0000
  H   H33       1.0  0.80791  0.67865  0.24307  1.0000
  H   H34       1.0  0.51305  0.67872  0.75685  1.0000
  H   H35       1.0  0.19209  0.32135  0.75693  1.0000
  H   H36       1.0  0.48694  0.32128  0.24315  1.0000
  H   H37       1.0  0.59742  0.81098  0.21318  1.0000
  H   H38       1.0  0.59092  0.81112  0.78701  1.0000
  H   H39       1.0  0.40258  0.18902  0.78682  1.0000
  H   H40       1.0  0.40908  0.18888  0.21299  1.0000
  H   H41       1.0  0.17276  0.73624  0.12298  1.0000
  H   H42       1.0  0.09082  0.73620  0.87691  1.0000
  H   H43       1.0  0.82724  0.26376  0.87702  1.0000
  H   H44       1.0  0.90918  0.26380  0.12309  1.0000
  H   H45       1.0  0.62410  0.99984  0.25014  1.0000
  H   H46       1.0  0.37590  0.00016  0.74986  1.0000
  H   H47       1.0  0.67359  0.00007  0.38002  1.0000
  H   H48       1.0  0.32641  0.99993  0.61998  1.0000
  H   H49       1.0  0.29299  0.99996  0.51038  1.0000
  H   H50       1.0  0.70701  0.00004  0.48962  1.0000
  H   H51       1.0  0.26028  0.99973  0.37287  1.0000
  H   H52       1.0  0.73972  0.00027  0.62713  1.0000
  C   C1        1.0  0.35622  0.87085  0.19164  1.0000
  C   C2        1.0  0.77261  0.87107  0.80839  1.0000
  C   C3        1.0  0.64377  0.12915  0.80836  1.0000
  C   C4        1.0  0.22739  0.12893  0.19160  1.0000
  C   C5        1.0  0.99048  0.00001  0.45856  1.0000
  C   C6        1.0  0.00951  0.99999  0.54144  1.0000
  C   C7        1.0  0.74782  0.90136  0.06605  1.0000
  C   C8        1.0  0.35053  0.90160  0.93404  1.0000
  C   C9        1.0  0.25218  0.09863  0.93395  1.0000
  C   C10       1.0  0.64947  0.09840  0.06596  1.0000
  C   C11       1.0  0.34550  0.70158  0.16190  1.0000
  C   C12       1.0  0.95245  0.70170  0.83817  1.0000
  C   C13       1.0  0.65450  0.29841  0.83810  1.0000
  C   C14       1.0  0.04755  0.29830  0.16183  1.0000
  C   C15       1.0  0.65341  0.89773  0.03437  1.0000
  C   C16       1.0  0.44861  0.89788  0.96571  1.0000
  C   C17       1.0  0.34659  0.10227  0.96563  1.0000
  C   C18       1.0  0.55139  0.10212  0.03429  1.0000
  C   C19       1.0  0.23754  0.93634  0.17008  1.0000
  C   C20       1.0  0.82599  0.93644  0.82992  1.0000
  C   C21       1.0  0.76246  0.06366  0.82992  1.0000
  C   C22       1.0  0.17401  0.06356  0.17008  1.0000
  C   C23       1.0  0.53700  0.67647  0.21074  1.0000
  C   C24       1.0  0.78602  0.67674  0.78928  1.0000
  C   C25       1.0  0.46300  0.32353  0.78926  1.0000
  C   C26       1.0  0.21398  0.32326  0.21072  1.0000
  C   C27       1.0  0.03194  0.89779  0.41700  1.0000
  C   C28       1.0  0.07036  0.89774  0.58297  1.0000
  C   C29       1.0  0.96805  0.10222  0.58300  1.0000
  C   C30       1.0  0.92964  0.10226  0.41704  1.0000
  C   C31       1.0  0.55101  0.99995  0.01720  1.0000
  C   C32       1.0  0.44899  0.00005  0.98280  1.0000
  C   C33       1.0  0.01226  0.90172  0.33919  1.0000
  C   C34       1.0  0.08614  0.90164  0.66077  1.0000
  C   C35       1.0  0.98774  0.09828  0.66081  1.0000
  C   C36       1.0  0.91386  0.09836  0.33923  1.0000
  C   C37       1.0  0.57730  0.55766  0.22190  1.0000
  C   C38       1.0  0.86470  0.55797  0.77793  1.0000
  C   C39       1.0  0.42270  0.44234  0.77810  1.0000
  C   C40       1.0  0.13530  0.44202  0.22207  1.0000
  C   C41       1.0  0.69944  0.48950  0.23751  1.0000
  C   C42       1.0  0.81087  0.48977  0.76218  1.0000
  C   C43       1.0  0.30056  0.51050  0.76249  1.0000
  C   C44       1.0  0.18913  0.51023  0.23782  1.0000
  C   C45       1.0  0.74148  0.64476  0.23670  1.0000
  C   C46       1.0  0.61340  0.64490  0.76321  1.0000
  C   C47       1.0  0.25852  0.35524  0.76330  1.0000
  C   C48       1.0  0.38660  0.35509  0.23679  1.0000
  C   C49       1.0  0.62192  0.71989  0.21980  1.0000
  C   C50       1.0  0.65768  0.72006  0.78026  1.0000
  C   C51       1.0  0.37808  0.28012  0.78020  1.0000
  C   C52       1.0  0.34232  0.27994  0.21975  1.0000
  C   C53       1.0  0.22758  0.77202  0.14255  1.0000
  C   C54       1.0  0.00015  0.77205  0.85741  1.0000
  C   C55       1.0  0.77242  0.22798  0.85745  1.0000
  C   C56       1.0  0.99985  0.22795  0.14259  1.0000
  C   C57       1.0  0.41212  0.75055  0.18856  1.0000
  C   C58       1.0  0.83685  0.75077  0.81151  1.0000
  C   C59       1.0  0.58788  0.24945  0.81144  1.0000
  C   C60       1.0  0.16315  0.24923  0.18849  1.0000
  C   C61       1.0  0.48761  0.99997  0.45947  1.0000
  C   C62       1.0  0.51240  0.00004  0.54053  1.0000
  C   C63       1.0  0.55207  0.99983  0.30894  1.0000
  C   C64       1.0  0.44793  0.00017  0.69106  1.0000
  C   C65       1.0  0.57970  0.99994  0.38350  1.0000
  C   C66       1.0  0.42030  0.00006  0.61650  1.0000
  C   C67       1.0  0.37013  0.99987  0.45466  1.0000
  C   C68       1.0  0.62987  0.00013  0.54533  1.0000
  C   C69       1.0  0.35127  0.99977  0.37724  1.0000
  C   C70       1.0  0.64873  0.00024  0.62276  1.0000
  N   N1        1.0  0.17296  0.88683  0.14711  1.0000
  N   N2        1.0  0.94012  0.88685  0.85283  1.0000
  N   N3        1.0  0.82704  0.11317  0.85289  1.0000
  N   N4        1.0  0.05988  0.11315  0.14717  1.0000
  N   N5        1.0  0.74704  0.99986  0.08220  1.0000
  N   N6        1.0  0.25296  0.00014  0.91780  1.0000
  N   N7        1.0  0.78236  0.53071  0.24421  1.0000
  N   N8        1.0  0.68674  0.53090  0.75551  1.0000
  N   N9        1.0  0.21764  0.46929  0.75579  1.0000
  N   N10       1.0  0.31326  0.46910  0.24449  1.0000
  N   N11       1.0  0.95431  0.00005  0.29973  1.0000
  N   N12       1.0  0.04569  0.99995  0.70028  1.0000
  N   N13       1.0  0.43999  0.99970  0.30470  1.0000
  N   N14       1.0  0.56001  0.00030  0.69529  1.0000
  Cl  Cl1       1.0  0.07171  0.85653  0.99998  1.0000
  Cl  Cl2       1.0  0.92829  0.14347  0.00002  1.0000
  Cl  Cl3       1.0  0.72369  0.17964  0.21571  1.0000
  Cl  Cl4       1.0  0.09672  0.17964  0.78425  1.0000
  Cl  Cl5       1.0  0.27631  0.82036  0.78430  1.0000
  Cl  Cl6       1.0  0.90328  0.82035  0.21575  1.0000
