data_image0
_chemical_formula_structural       Al4H10C10O16
_chemical_formula_sum              "Al4 H10 C10 O16"
_cell_length_a       7.14143
_cell_length_b       7.48177
_cell_length_c       11.1111
_cell_angle_alpha    107.513
_cell_angle_beta     106.495
_cell_angle_gamma    96.3911

_space_group_name_H-M_alt    "P 1"
_space_group_IT_number       1

loop_
  _space_group_symop_operation_xyz
  'x, y, z'

loop_
  _atom_site_type_symbol
  _atom_site_label
  _atom_site_symmetry_multiplicity
  _atom_site_fract_x
  _atom_site_fract_y
  _atom_site_fract_z
  _atom_site_occupancy
  Al  Al1       1.0  0.29180  0.29181  0.58364  1.0000
  Al  Al2       1.0  0.70821  0.70820  0.41636  1.0000
  Al  Al3       1.0  0.50000  0.00000  0.50000  1.0000
  Al  Al4       1.0  0.00000  0.50000  0.50000  1.0000
  H   H1        1.0  0.45132  0.66546  0.99994  1.0000
  H   H2        1.0  0.54868  0.33453  0.00006  1.0000
  H   H3        1.0  0.65369  0.33074  0.67118  1.0000
  H   H4        1.0  0.01748  0.34051  0.67125  1.0000
  H   H5        1.0  0.34632  0.66927  0.32883  1.0000
  H   H6        1.0  0.98251  0.65949  0.32875  1.0000
  H   H7        1.0  0.32342  0.52349  0.46116  1.0000
  H   H8        1.0  0.13766  0.93758  0.46121  1.0000
  H   H9        1.0  0.67659  0.47652  0.53885  1.0000
  H   H10       1.0  0.86235  0.06242  0.53879  1.0000
  C   C1        1.0  0.32939  0.68026  0.75026  1.0000
  C   C2        1.0  0.42131  0.07013  0.75037  1.0000
  C   C3        1.0  0.67060  0.31974  0.24974  1.0000
  C   C4        1.0  0.57869  0.92987  0.24963  1.0000
  C   C5        1.0  0.42611  0.84514  0.87878  1.0000
  C   C6        1.0  0.45301  0.03371  0.87885  1.0000
  C   C7        1.0  0.57387  0.15485  0.12122  1.0000
  C   C8        1.0  0.54698  0.96628  0.12115  1.0000
  C   C9        1.0  0.47498  0.81199  0.99996  1.0000
  C   C10       1.0  0.52500  0.18800  0.00004  1.0000
  O   O1        1.0  0.55716  0.27632  0.58117  1.0000
  O   O2        1.0  0.02405  0.30496  0.58126  1.0000
  O   O3        1.0  0.44285  0.72369  0.41884  1.0000
  O   O4        1.0  0.97595  0.69504  0.41874  1.0000
  O   O5        1.0  0.22456  0.42363  0.46386  1.0000
  O   O6        1.0  0.23928  0.04019  0.46401  1.0000
  O   O7        1.0  0.77545  0.57637  0.53614  1.0000
  O   O8        1.0  0.76073  0.95982  0.53599  1.0000
  O   O9        1.0  0.40778  0.53390  0.73354  1.0000
  O   O10       1.0  0.32591  0.19953  0.73354  1.0000
  O   O11       1.0  0.59222  0.46610  0.26646  1.0000
  O   O12       1.0  0.67409  0.80046  0.26645  1.0000
  O   O13       1.0  0.16942  0.69526  0.67004  1.0000
  O   O14       1.0  0.50123  0.97504  0.67021  1.0000
  O   O15       1.0  0.83057  0.30474  0.32995  1.0000
  O   O16       1.0  0.49878  0.02496  0.32979  1.0000
