data_image0
_chemical_formula_structural       Cu4H48C72N4O16
_chemical_formula_sum              "Cu4 H48 C72 N4 O16"
_cell_length_a       11.7292
_cell_length_b       13.0495
_cell_length_c       13.0054
_cell_angle_alpha    97.8017
_cell_angle_beta     105.544
_cell_angle_gamma    105.317

_space_group_name_H-M_alt    "P 1"
_space_group_IT_number       1

loop_
  _space_group_symop_operation_xyz
  'x, y, z'

loop_
  _atom_site_type_symbol
  _atom_site_label
  _atom_site_symmetry_multiplicity
  _atom_site_fract_x
  _atom_site_fract_y
  _atom_site_fract_z
  _atom_site_occupancy
  Cu  Cu1       1.0  0.12932  0.67340  0.23669  1.0000
  Cu  Cu2       1.0  0.37060  0.76278  0.32715  1.0000
  Cu  Cu3       1.0  0.87067  0.32659  0.76331  1.0000
  Cu  Cu4       1.0  0.62939  0.23721  0.67285  1.0000
  H   H1        1.0  0.10571  0.33625  0.18639  1.0000
  H   H2        1.0  0.39371  0.81349  0.66375  1.0000
  H   H3        1.0  0.89430  0.66374  0.81361  1.0000
  H   H4        1.0  0.60629  0.18650  0.33624  1.0000
  H   H5        1.0  0.48424  0.48708  0.39673  1.0000
  H   H6        1.0  0.01587  0.60336  0.51160  1.0000
  H   H7        1.0  0.51575  0.51292  0.60326  1.0000
  H   H8        1.0  0.98413  0.39664  0.48840  1.0000
  H   H9        1.0  0.50470  0.30535  0.41870  1.0000
  H   H10       1.0  0.99590  0.58154  0.69407  1.0000
  H   H11       1.0  0.49529  0.69464  0.58130  1.0000
  H   H12       1.0  0.00409  0.41846  0.30592  1.0000
  H   H13       1.0  0.01074  0.13558  0.14513  1.0000
  H   H14       1.0  0.48891  0.85473  0.86513  1.0000
  H   H15       1.0  0.98924  0.86441  0.85486  1.0000
  H   H16       1.0  0.51109  0.14527  0.13487  1.0000
  H   H17       1.0  0.02937  0.95336  0.17102  1.0000
  H   H18       1.0  0.47087  0.82892  0.04813  1.0000
  H   H19       1.0  0.97063  0.04664  0.82898  1.0000
  H   H20       1.0  0.52912  0.17107  0.95187  1.0000
  H   H21       1.0  0.41089  0.10376  0.37505  1.0000
  H   H22       1.0  0.08993  0.62515  0.89643  1.0000
  H   H23       1.0  0.58911  0.89624  0.62496  1.0000
  H   H24       1.0  0.91006  0.37485  0.10357  1.0000
  H   H25       1.0  0.93343  0.60731  0.00840  1.0000
  H   H26       1.0  0.56568  0.99076  0.39268  1.0000
  H   H27       1.0  0.06658  0.39269  0.99161  1.0000
  H   H28       1.0  0.43432  0.00924  0.60733  1.0000
  H   H29       1.0  0.90752  0.60903  0.31905  1.0000
  H   H30       1.0  0.59375  0.68178  0.39136  1.0000
  H   H31       1.0  0.09248  0.39099  0.68095  1.0000
  H   H32       1.0  0.40626  0.31822  0.60865  1.0000
  H   H33       1.0  0.70574  0.57671  0.92814  1.0000
  H   H34       1.0  0.79302  0.07078  0.42304  1.0000
  H   H35       1.0  0.29428  0.42330  0.07186  1.0000
  H   H36       1.0  0.20697  0.92922  0.57695  1.0000
  H   H37       1.0  0.67626  0.57445  0.25182  1.0000
  H   H38       1.0  0.82476  0.74886  0.42563  1.0000
  H   H39       1.0  0.32375  0.42558  0.74819  1.0000
  H   H40       1.0  0.17525  0.25115  0.57437  1.0000
  H   H41       1.0  0.51729  0.62005  0.99584  1.0000
  H   H42       1.0  0.98180  0.00335  0.37917  1.0000
  H   H43       1.0  0.48272  0.37996  0.00415  1.0000
  H   H44       1.0  0.01819  0.99666  0.62082  1.0000
  H   H45       1.0  0.49487  0.56333  0.10714  1.0000
  H   H46       1.0  0.00527  0.89295  0.43699  1.0000
  H   H47       1.0  0.50514  0.43668  0.89286  1.0000
  H   H48       1.0  0.99473  0.10706  0.56300  1.0000
  C   C1        1.0  0.27838  0.53068  0.28167  1.0000
  C   C2        1.0  0.22135  0.71838  0.46887  1.0000
  C   C3        1.0  0.72164  0.46932  0.71833  1.0000
  C   C4        1.0  0.77867  0.28161  0.53114  1.0000
  C   C5        1.0  0.29292  0.42143  0.28969  1.0000
  C   C6        1.0  0.20682  0.71039  0.57817  1.0000
  C   C7        1.0  0.70708  0.57857  0.71031  1.0000
  C   C8        1.0  0.79318  0.28961  0.42184  1.0000
  C   C9        1.0  0.19256  0.32845  0.23628  1.0000
  C   C10       1.0  0.30714  0.76377  0.67154  1.0000
  C   C11       1.0  0.80744  0.67155  0.76372  1.0000
  C   C12       1.0  0.69286  0.23623  0.32846  1.0000
  C   C13       1.0  0.40695  0.41276  0.35511  1.0000
  C   C14       1.0  0.09308  0.64492  0.58638  1.0000
  C   C15       1.0  0.59304  0.58724  0.64488  1.0000
  C   C16       1.0  0.90691  0.35508  0.41362  1.0000
  C   C17       1.0  0.20082  0.22424  0.24716  1.0000
  C   C18       1.0  0.29914  0.75285  0.77602  1.0000
  C   C19       1.0  0.79917  0.77575  0.75284  1.0000
  C   C20       1.0  0.70086  0.24714  0.22398  1.0000
  C   C21       1.0  0.41807  0.31232  0.36704  1.0000
  C   C22       1.0  0.08224  0.63300  0.68713  1.0000
  C   C23       1.0  0.58193  0.68767  0.63295  1.0000
  C   C24       1.0  0.91775  0.36700  0.31287  1.0000
  C   C25       1.0  0.31593  0.21578  0.31393  1.0000
  C   C26       1.0  0.18434  0.68610  0.78414  1.0000
  C   C27       1.0  0.68406  0.78422  0.68607  1.0000
  C   C28       1.0  0.81565  0.31390  0.21586  1.0000
  C   C29       1.0  0.09778  0.12814  0.19560  1.0000
  C   C30       1.0  0.40220  0.80437  0.87259  1.0000
  C   C31       1.0  0.90220  0.87186  0.80440  1.0000
  C   C32       1.0  0.59780  0.19564  0.12741  1.0000
  C   C33       1.0  0.10759  0.02779  0.20960  1.0000
  C   C34       1.0  0.39267  0.79045  0.97327  1.0000
  C   C35       1.0  0.89240  0.97221  0.79041  1.0000
  C   C36       1.0  0.60733  0.20955  0.02673  1.0000
  C   C37       1.0  0.32404  0.11145  0.32490  1.0000
  C   C38       1.0  0.17646  0.67516  0.88873  1.0000
  C   C39       1.0  0.67595  0.88855  0.67511  1.0000
  C   C40       1.0  0.82353  0.32484  0.11127  1.0000
  C   C41       1.0  0.22203  0.01917  0.27403  1.0000
  C   C42       1.0  0.27845  0.72610  0.98142  1.0000
  C   C43       1.0  0.77797  0.98083  0.72597  1.0000
  C   C44       1.0  0.72155  0.27390  0.01858  1.0000
  C   C45       1.0  0.23248  0.90912  0.28433  1.0000
  C   C46       1.0  0.26783  0.71572  0.09144  1.0000
  C   C47       1.0  0.76752  0.09088  0.71567  1.0000
  C   C48       1.0  0.73218  0.28428  0.90856  1.0000
  C   C49       1.0  0.87294  0.60036  0.05950  1.0000
  C   C50       1.0  0.62654  0.93995  0.39975  1.0000
  C   C51       1.0  0.12707  0.39964  0.94050  1.0000
  C   C52       1.0  0.37345  0.06005  0.60025  1.0000
  C   C53       1.0  0.85802  0.60080  0.23288  1.0000
  C   C54       1.0  0.64274  0.76756  0.39946  1.0000
  C   C55       1.0  0.14198  0.39920  0.76712  1.0000
  C   C56       1.0  0.35726  0.23244  0.60054  1.0000
  C   C57       1.0  0.74589  0.58279  0.01551  1.0000
  C   C58       1.0  0.75342  0.98383  0.41716  1.0000
  C   C59       1.0  0.25412  0.41722  0.98449  1.0000
  C   C60       1.0  0.24657  0.01617  0.58284  1.0000
  C   C61       1.0  0.73000  0.58196  0.19496  1.0000
  C   C62       1.0  0.77066  0.80542  0.41820  1.0000
  C   C63       1.0  0.27000  0.41806  0.80504  1.0000
  C   C64       1.0  0.22934  0.19459  0.58180  1.0000
  C   C65       1.0  0.67147  0.57447  0.08412  1.0000
  C   C66       1.0  0.82850  0.91579  0.42560  1.0000
  C   C67       1.0  0.32854  0.42554  0.91588  1.0000
  C   C68       1.0  0.17150  0.08421  0.57440  1.0000
  C   C69       1.0  0.53407  0.55617  0.03959  1.0000
  C   C70       1.0  0.96577  0.96026  0.44374  1.0000
  C   C71       1.0  0.46593  0.44385  0.96040  1.0000
  C   C72       1.0  0.03423  0.03975  0.55625  1.0000
  N   N1        1.0  0.92909  0.61069  0.16690  1.0000
  N   N2        1.0  0.57108  0.83303  0.38966  1.0000
  N   N3        1.0  0.07091  0.38932  0.83311  1.0000
  N   N4        1.0  0.42892  0.16697  0.61034  1.0000
  O   O1        1.0  0.17324  0.53283  0.22313  1.0000
  O   O2        1.0  0.32649  0.77642  0.46703  1.0000
  O   O3        1.0  0.82678  0.46716  0.77686  1.0000
  O   O4        1.0  0.67351  0.22358  0.53297  1.0000
  O   O5        1.0  0.37281  0.61353  0.33628  1.0000
  O   O6        1.0  0.12682  0.66418  0.38562  1.0000
  O   O7        1.0  0.62720  0.38648  0.66372  1.0000
  O   O8        1.0  0.87320  0.33578  0.61439  1.0000
  O   O9        1.0  0.13205  0.83186  0.26566  1.0000
  O   O10       1.0  0.36828  0.73395  0.16920  1.0000
  O   O11       1.0  0.86795  0.16814  0.73436  1.0000
  O   O12       1.0  0.63172  0.26605  0.83080  1.0000
  O   O13       1.0  0.34298  0.90218  0.30911  1.0000
  O   O14       1.0  0.15723  0.69133  0.09779  1.0000
  O   O15       1.0  0.65702  0.09781  0.69088  1.0000
  O   O16       1.0  0.84278  0.30868  0.90219  1.0000
