data_image0
_chemical_formula_structural       Zn2H32C40N4O12
_chemical_formula_sum              "Zn2 H32 C40 N4 O12"
_cell_length_a       8.64433
_cell_length_b       10.8044
_cell_length_c       11.8432
_cell_angle_alpha    70.2929
_cell_angle_beta     68.586
_cell_angle_gamma    66.4222

_space_group_name_H-M_alt    "P 1"
_space_group_IT_number       1

loop_
  _space_group_symop_operation_xyz
  'x, y, z'

loop_
  _atom_site_type_symbol
  _atom_site_label
  _atom_site_symmetry_multiplicity
  _atom_site_fract_x
  _atom_site_fract_y
  _atom_site_fract_z
  _atom_site_occupancy
  Zn  Zn1       1.0  0.68704  0.25017  0.74981  1.0000
  Zn  Zn2       1.0  0.31295  0.74983  0.25019  1.0000
  H   H1        1.0  0.13210  0.12880  0.42867  1.0000
  H   H2        1.0  0.68943  0.37130  0.07135  1.0000
  H   H3        1.0  0.86792  0.87119  0.57132  1.0000
  H   H4        1.0  0.31056  0.62870  0.92865  1.0000
  H   H5        1.0  0.14046  0.89850  0.57514  1.0000
  H   H6        1.0  0.61419  0.60161  0.92479  1.0000
  H   H7        1.0  0.85955  0.10150  0.42486  1.0000
  H   H8        1.0  0.38581  0.39839  0.07521  1.0000
  H   H9        1.0  0.16746  0.88478  0.72103  1.0000
  H   H10       1.0  0.77336  0.61541  0.77891  1.0000
  H   H11       1.0  0.83255  0.11523  0.27898  1.0000
  H   H12       1.0  0.22663  0.38459  0.22109  1.0000
  H   H13       1.0  0.43506  0.88472  0.72362  1.0000
  H   H14       1.0  0.04353  0.61531  0.77636  1.0000
  H   H15       1.0  0.56497  0.11527  0.27638  1.0000
  H   H16       1.0  0.95646  0.38469  0.22364  1.0000
  H   H17       1.0  0.14062  0.29905  0.65666  1.0000
  H   H18       1.0  0.09682  0.20012  0.84340  1.0000
  H   H19       1.0  0.85937  0.70094  0.34334  1.0000
  H   H20       1.0  0.90317  0.79988  0.15660  1.0000
  H   H21       1.0  0.23463  0.38145  0.42689  1.0000
  H   H22       1.0  0.04356  0.11820  0.07322  1.0000
  H   H23       1.0  0.76535  0.61854  0.57311  1.0000
  H   H24       1.0  0.95644  0.88181  0.92678  1.0000
  H   H25       1.0  0.53866  0.39938  0.32622  1.0000
  H   H26       1.0  0.26491  0.10074  0.17352  1.0000
  H   H27       1.0  0.46133  0.60062  0.67378  1.0000
  H   H28       1.0  0.73510  0.89928  0.82648  1.0000
  H   H29       1.0  0.73142  0.34209  0.46417  1.0000
  H   H30       1.0  0.53816  0.15826  0.03529  1.0000
  H   H31       1.0  0.26857  0.65790  0.53582  1.0000
  H   H32       1.0  0.46184  0.84175  0.96470  1.0000
  C   C1        1.0  0.00263  0.08183  0.64144  1.0000
  C   C2        1.0  0.72584  0.41837  0.85841  1.0000
  C   C3        1.0  0.99738  0.91817  0.35857  1.0000
  C   C4        1.0  0.27416  0.58163  0.14159  1.0000
  C   C5        1.0  0.16200  0.95314  0.62906  1.0000
  C   C6        1.0  0.74426  0.54699  0.87084  1.0000
  C   C7        1.0  0.83801  0.04687  0.37094  1.0000
  C   C8        1.0  0.25574  0.45301  0.12915  1.0000
  C   C9        1.0  0.33364  0.98250  0.56248  1.0000
  C   C10       1.0  0.87864  0.51755  0.93749  1.0000
  C   C11       1.0  0.66638  0.01750  0.43752  1.0000
  C   C12       1.0  0.12135  0.48245  0.06251  1.0000
  C   C13       1.0  0.37254  0.04712  0.43490  1.0000
  C   C14       1.0  0.85445  0.45297  0.06510  1.0000
  C   C15       1.0  0.62748  0.95289  0.56510  1.0000
  C   C16       1.0  0.14554  0.54703  0.93489  1.0000
  C   C17       1.0  0.46164  0.93801  0.62566  1.0000
  C   C18       1.0  0.02540  0.56199  0.87432  1.0000
  C   C19       1.0  0.53838  0.06199  0.37434  1.0000
  C   C20       1.0  0.97460  0.43802  0.12568  1.0000
  C   C21       1.0  0.38792  0.27566  0.68157  1.0000
  C   C22       1.0  0.34555  0.22395  0.81819  1.0000
  C   C23       1.0  0.61208  0.72433  0.31843  1.0000
  C   C24       1.0  0.65445  0.77604  0.18181  1.0000
  C   C25       1.0  0.27124  0.30835  0.61167  1.0000
  C   C26       1.0  0.19174  0.19110  0.88827  1.0000
  C   C27       1.0  0.72875  0.69164  0.38834  1.0000
  C   C28       1.0  0.80826  0.80890  0.11173  1.0000
  C   C29       1.0  0.32382  0.35395  0.48308  1.0000
  C   C30       1.0  0.16139  0.14574  0.01687  1.0000
  C   C31       1.0  0.67617  0.64604  0.51692  1.0000
  C   C32       1.0  0.83860  0.85426  0.98313  1.0000
  C   C33       1.0  0.49145  0.36586  0.42668  1.0000
  C   C34       1.0  0.28455  0.13413  0.07308  1.0000
  C   C35       1.0  0.50854  0.63412  0.57333  1.0000
  C   C36       1.0  0.71545  0.86587  0.92691  1.0000
  C   C37       1.0  0.59959  0.33409  0.50191  1.0000
  C   C38       1.0  0.43609  0.16598  0.99770  1.0000
  C   C39       1.0  0.40040  0.66590  0.49809  1.0000
  C   C40       1.0  0.56392  0.83402  0.00230  1.0000
  N   N1        1.0  0.54882  0.29072  0.62605  1.0000
  N   N2        1.0  0.46594  0.20922  0.87357  1.0000
  N   N3        1.0  0.45118  0.70927  0.37395  1.0000
  N   N4        1.0  0.53406  0.79078  0.12643  1.0000
  O   O1        1.0  0.90231  0.08995  0.75177  1.0000
  O   O2        1.0  0.74396  0.41033  0.74805  1.0000
  O   O3        1.0  0.09769  0.91006  0.24823  1.0000
  O   O4        1.0  0.25601  0.58968  0.25195  1.0000
  O   O5        1.0  0.97251  0.17378  0.54502  1.0000
  O   O6        1.0  0.69113  0.32645  0.95482  1.0000
  O   O7        1.0  0.02751  0.82622  0.45498  1.0000
  O   O8        1.0  0.30887  0.67355  0.04518  1.0000
  O   O9        1.0  0.25092  0.09748  0.36823  1.0000
  O   O10       1.0  0.71643  0.40266  0.13177  1.0000
  O   O11       1.0  0.74911  0.90252  0.63176  1.0000
  O   O12       1.0  0.28357  0.59734  0.86823  1.0000
