data_image0
_chemical_formula_structural       Cd2H32C44N4O12
_chemical_formula_sum              "Cd2 H32 C44 N4 O12"
_cell_length_a       8.10603
_cell_length_b       10.908
_cell_length_c       11.9769
_cell_angle_alpha    66.0594
_cell_angle_beta     85.105
_cell_angle_gamma    90.2776

_space_group_name_H-M_alt    "P 1"
_space_group_IT_number       1

loop_
  _space_group_symop_operation_xyz
  'x, y, z'

loop_
  _atom_site_type_symbol
  _atom_site_label
  _atom_site_symmetry_multiplicity
  _atom_site_fract_x
  _atom_site_fract_y
  _atom_site_fract_z
  _atom_site_occupancy
  Cd  Cd1       1.0  0.52779  0.09685  0.82905  1.0000
  Cd  Cd2       1.0  0.47217  0.90314  0.17094  1.0000
  H   H1        1.0  0.17020  0.33990  0.18430  1.0000
  H   H2        1.0  0.82981  0.66009  0.81572  1.0000
  H   H3        1.0  0.85040  0.87923  0.78392  1.0000
  H   H4        1.0  0.14959  0.12077  0.21609  1.0000
  H   H5        1.0  0.27806  0.23838  0.96688  1.0000
  H   H6        1.0  0.72191  0.76162  0.03311  1.0000
  H   H7        1.0  0.08695  0.43196  0.91208  1.0000
  H   H8        1.0  0.91304  0.56805  0.08791  1.0000
  H   H9        1.0  0.05144  0.56743  0.69130  1.0000
  H   H10       1.0  0.94858  0.43260  0.30869  1.0000
  H   H11       1.0  0.12842  0.61105  0.46871  1.0000
  H   H12       1.0  0.87161  0.38897  0.53127  1.0000
  H   H13       1.0  0.27836  0.54616  0.31597  1.0000
  H   H14       1.0  0.72168  0.45386  0.68401  1.0000
  H   H15       1.0  0.47170  0.39000  0.26749  1.0000
  H   H16       1.0  0.52834  0.61002  0.73250  1.0000
  H   H17       1.0  0.63831  0.18427  0.34302  1.0000
  H   H18       1.0  0.36170  0.81573  0.65698  1.0000
  H   H19       1.0  0.65762  0.06380  0.57032  1.0000
  H   H20       1.0  0.34235  0.93618  0.42969  1.0000
  H   H21       1.0  0.15775  0.69541  0.94370  1.0000
  H   H22       1.0  0.84224  0.30456  0.05631  1.0000
  H   H23       1.0  0.22012  0.69295  0.08329  1.0000
  H   H24       1.0  0.77988  0.30704  0.91671  1.0000
  H   H25       1.0  0.57890  0.73777  0.86700  1.0000
  H   H26       1.0  0.42110  0.26223  0.13300  1.0000
  H   H27       1.0  0.10101  0.18278  0.66304  1.0000
  H   H28       1.0  0.89899  0.81721  0.33699  1.0000
  H   H29       1.0  0.10677  0.01186  0.76760  1.0000
  H   H30       1.0  0.89321  0.98814  0.23244  1.0000
  H   H31       1.0  0.11076  0.22895  0.45491  1.0000
  H   H32       1.0  0.88926  0.77104  0.54511  1.0000
  C   C1        1.0  0.25957  0.30102  0.87162  1.0000
  C   C2        1.0  0.74041  0.69899  0.12837  1.0000
  C   C3        1.0  0.15300  0.40874  0.84054  1.0000
  C   C4        1.0  0.84700  0.59128  0.15944  1.0000
  C   C5        1.0  0.13362  0.48354  0.71821  1.0000
  C   C6        1.0  0.86639  0.51648  0.28177  1.0000
  C   C7        1.0  0.22013  0.45099  0.62699  1.0000
  C   C8        1.0  0.77988  0.54904  0.37300  1.0000
  C   C9        1.0  0.20617  0.52450  0.49863  1.0000
  C   C10       1.0  0.79386  0.47552  0.50135  1.0000
  C   C11       1.0  0.29024  0.48869  0.41339  1.0000
  C   C12       1.0  0.70980  0.51133  0.58660  1.0000
  C   C13       1.0  0.39405  0.37583  0.45008  1.0000
  C   C14       1.0  0.60597  0.62419  0.54991  1.0000
  C   C15       1.0  0.48030  0.33340  0.36543  1.0000
  C   C16       1.0  0.51972  0.66661  0.63456  1.0000
  C   C17       1.0  0.57421  0.22083  0.40674  1.0000
  C   C18       1.0  0.42579  0.77917  0.59326  1.0000
  C   C19       1.0  0.58446  0.15292  0.53379  1.0000
  C   C20       1.0  0.41552  0.84708  0.46621  1.0000
  C   C21       1.0  0.41256  0.30099  0.57664  1.0000
  C   C22       1.0  0.58745  0.69901  0.42335  1.0000
  C   C23       1.0  0.32523  0.34036  0.66671  1.0000
  C   C24       1.0  0.67477  0.65965  0.33328  1.0000
  C   C25       1.0  0.34267  0.84646  0.92001  1.0000
  C   C26       1.0  0.65731  0.15353  0.07997  1.0000
  C   C27       1.0  0.26525  0.70679  0.98953  1.0000
  C   C28       1.0  0.73474  0.29319  0.01047  1.0000
  C   C29       1.0  0.38830  0.60151  0.99393  1.0000
  C   C30       1.0  0.61170  0.39849  0.00607  1.0000
  C   C31       1.0  0.54388  0.63316  0.92648  1.0000
  C   C32       1.0  0.45612  0.36683  0.07353  1.0000
  C   C33       1.0  0.34429  0.46607  0.06821  1.0000
  C   C34       1.0  0.65571  0.53392  0.93180  1.0000
  C   C35       1.0  0.86723  0.09756  0.76139  1.0000
  C   C36       1.0  0.13276  0.90244  0.23861  1.0000
  C   C37       1.0  0.03379  0.08536  0.69957  1.0000
  C   C38       1.0  0.96621  0.91463  0.30045  1.0000
  C   C39       1.0  0.01384  0.04085  0.59716  1.0000
  C   C40       1.0  0.98618  0.95914  0.40286  1.0000
  C   C41       1.0  0.05995  0.12857  0.47520  1.0000
  C   C42       1.0  0.94008  0.87141  0.52483  1.0000
  C   C43       1.0  0.95171  0.91062  0.62140  1.0000
  C   C44       1.0  0.04831  0.08936  0.37862  1.0000
  N   N1        1.0  0.34332  0.26872  0.78748  1.0000
  N   N2        1.0  0.65666  0.73129  0.21251  1.0000
  N   N3        1.0  0.50767  0.19255  0.61544  1.0000
  N   N4        1.0  0.49232  0.80745  0.38455  1.0000
  O   O1        1.0  0.33879  0.90639  0.80598  1.0000
  O   O2        1.0  0.66122  0.09357  0.19400  1.0000
  O   O3        1.0  0.41999  0.89953  0.98107  1.0000
  O   O4        1.0  0.57994  0.10048  0.01891  1.0000
  O   O5        1.0  0.81729  0.20905  0.75397  1.0000
  O   O6        1.0  0.18270  0.79095  0.24603  1.0000
  O   O7        1.0  0.77548  0.98730  0.81684  1.0000
  O   O8        1.0  0.22448  0.01270  0.18314  1.0000
  O   O9        1.0  0.19123  0.43793  0.13337  1.0000
  O   O10       1.0  0.80877  0.56206  0.86665  1.0000
  O   O11       1.0  0.90046  0.82193  0.73965  1.0000
  O   O12       1.0  0.09956  0.17806  0.26038  1.0000
