data_image0
_chemical_formula_structural       K4H52C20S4O36
_chemical_formula_sum              "K4 H52 C20 S4 O36"
_cell_length_a       4.96627
_cell_length_b       8.93317
_cell_length_c       23.3536
_cell_angle_alpha    90
_cell_angle_beta     90
_cell_angle_gamma    90

_space_group_name_H-M_alt    "P 1"
_space_group_IT_number       1

loop_
  _space_group_symop_operation_xyz
  'x, y, z'

loop_
  _atom_site_type_symbol
  _atom_site_label
  _atom_site_symmetry_multiplicity
  _atom_site_fract_x
  _atom_site_fract_y
  _atom_site_fract_z
  _atom_site_occupancy
  K   K1        1.0  0.33693  1.00000  0.50000  1.0000
  K   K2        1.0  0.66305  0.50000  1.00000  1.0000
  K   K3        1.0  0.29991  0.50001  0.50000  1.0000
  K   K4        1.0  0.70010  1.00000  0.00000  1.0000
  H   H1        1.0  0.47892  0.23896  0.63903  1.0000
  H   H2        1.0  0.47893  0.76104  0.36097  1.0000
  H   H3        1.0  0.52107  0.73896  0.86097  1.0000
  H   H4        1.0  0.52108  0.26104  0.13903  1.0000
  H   H5        1.0  0.94987  0.20191  0.68073  1.0000
  H   H6        1.0  0.94988  0.79808  0.31927  1.0000
  H   H7        1.0  0.05012  0.70192  0.81927  1.0000
  H   H8        1.0  0.05013  0.29808  0.18073  1.0000
  H   H9        1.0  0.54761  0.42243  0.73193  1.0000
  H   H10       1.0  0.54763  0.57757  0.26807  1.0000
  H   H11       1.0  0.45238  0.92243  0.76807  1.0000
  H   H12       1.0  0.45239  0.07757  0.23193  1.0000
  H   H13       1.0  0.98227  0.44620  0.78224  1.0000
  H   H14       1.0  0.98228  0.55379  0.21776  1.0000
  H   H15       1.0  0.01772  0.94621  0.71776  1.0000
  H   H16       1.0  0.01772  0.05380  0.28224  1.0000
  H   H17       1.0  0.54630  0.26587  0.84534  1.0000
  H   H18       1.0  0.54632  0.73412  0.15466  1.0000
  H   H19       1.0  0.45369  0.76587  0.65466  1.0000
  H   H20       1.0  0.45369  0.23413  0.34534  1.0000
  H   H21       1.0  0.55689  0.46302  0.83518  1.0000
  H   H22       1.0  0.55690  0.53697  0.16482  1.0000
  H   H23       1.0  0.44310  0.96302  0.66482  1.0000
  H   H24       1.0  0.44311  0.03698  0.33518  1.0000
  H   H25       1.0  0.70318  0.52525  0.60477  1.0000
  H   H26       1.0  0.70319  0.47475  0.39523  1.0000
  H   H27       1.0  0.29681  0.02526  0.89523  1.0000
  H   H28       1.0  0.29683  0.97475  0.10477  1.0000
  H   H29       1.0  0.15642  0.41870  0.64381  1.0000
  H   H30       1.0  0.15642  0.58129  0.35619  1.0000
  H   H31       1.0  0.84358  0.91871  0.85619  1.0000
  H   H32       1.0  0.84359  0.08129  0.14382  1.0000
  H   H33       1.0  0.35358  0.20997  0.75775  1.0000
  H   H34       1.0  0.35360  0.79003  0.24225  1.0000
  H   H35       1.0  0.64641  0.70997  0.74225  1.0000
  H   H36       1.0  0.64642  0.29004  0.25775  1.0000
  H   H37       1.0  0.97168  0.12789  0.80176  1.0000
  H   H38       1.0  0.97171  0.87210  0.19824  1.0000
  H   H39       1.0  0.02830  0.62790  0.69824  1.0000
  H   H40       1.0  0.02832  0.37211  0.30176  1.0000
  H   H41       1.0  0.97448  0.44732  0.89221  1.0000
  H   H42       1.0  0.97449  0.55268  0.10779  1.0000
  H   H43       1.0  0.02551  0.94732  0.60779  1.0000
  H   H44       1.0  0.02551  0.05268  0.39221  1.0000
  H   H45       1.0  0.00492  0.71265  0.59159  1.0000
  H   H46       1.0  0.00492  0.28735  0.40841  1.0000
  H   H47       1.0  0.99507  0.21265  0.90841  1.0000
  H   H48       1.0  0.99509  0.78735  0.09159  1.0000
  H   H49       1.0  0.81731  0.67389  0.53964  1.0000
  H   H50       1.0  0.81732  0.32611  0.46036  1.0000
  H   H51       1.0  0.18268  0.17389  0.96036  1.0000
  H   H52       1.0  0.18269  0.82610  0.03964  1.0000
  C   C1        1.0  0.64898  0.31284  0.62866  1.0000
  C   C2        1.0  0.64898  0.68716  0.37133  1.0000
  C   C3        1.0  0.35101  0.81284  0.87133  1.0000
  C   C4        1.0  0.35102  0.18716  0.12867  1.0000
  C   C5        1.0  0.84586  0.31117  0.67960  1.0000
  C   C6        1.0  0.84587  0.68883  0.32040  1.0000
  C   C7        1.0  0.15413  0.81117  0.82040  1.0000
  C   C8        1.0  0.15414  0.18883  0.17960  1.0000
  C   C9        1.0  0.68164  0.32406  0.73506  1.0000
  C   C10       1.0  0.68165  0.67594  0.26494  1.0000
  C   C11       1.0  0.31835  0.82406  0.76494  1.0000
  C   C12       1.0  0.31836  0.17595  0.23507  1.0000
  C   C13       1.0  0.86100  0.34418  0.78809  1.0000
  C   C14       1.0  0.86102  0.65581  0.21191  1.0000
  C   C15       1.0  0.13899  0.84419  0.71191  1.0000
  C   C16       1.0  0.13899  0.15581  0.28809  1.0000
  C   C17       1.0  0.68209  0.36230  0.84084  1.0000
  C   C18       1.0  0.68209  0.63769  0.15916  1.0000
  C   C19       1.0  0.31791  0.86231  0.65916  1.0000
  C   C20       1.0  0.31791  0.13769  0.34084  1.0000
  S   S1        1.0  0.80293  0.21543  0.56767  1.0000
  S   S2        1.0  0.80293  0.78458  0.43233  1.0000
  S   S3        1.0  0.19709  0.71541  0.93233  1.0000
  S   S4        1.0  0.19709  0.28459  0.06767  1.0000
  O   O1        1.0  0.54931  0.45400  0.61452  1.0000
  O   O2        1.0  0.54931  0.54600  0.38547  1.0000
  O   O3        1.0  0.45069  0.95400  0.88547  1.0000
  O   O4        1.0  0.45070  0.04600  0.11453  1.0000
  O   O5        1.0  0.03802  0.42992  0.67721  1.0000
  O   O6        1.0  0.03803  0.57007  0.32279  1.0000
  O   O7        1.0  0.96197  0.92993  0.82279  1.0000
  O   O8        1.0  0.96199  0.07007  0.17721  1.0000
  O   O9        1.0  0.52861  0.18890  0.73861  1.0000
  O   O10       1.0  0.52862  0.81110  0.26139  1.0000
  O   O11       1.0  0.47138  0.68890  0.76139  1.0000
  O   O12       1.0  0.47138  0.31111  0.23861  1.0000
  O   O13       1.0  0.05517  0.22653  0.79433  1.0000
  O   O14       1.0  0.05519  0.77346  0.20567  1.0000
  O   O15       1.0  0.94481  0.72654  0.70567  1.0000
  O   O16       1.0  0.94482  0.27346  0.29433  1.0000
  O   O17       1.0  0.83015  0.37022  0.89350  1.0000
  O   O18       1.0  0.83017  0.62977  0.10650  1.0000
  O   O19       1.0  0.16983  0.87022  0.60650  1.0000
  O   O20       1.0  0.16984  0.12978  0.39350  1.0000
  O   O21       1.0  0.08778  0.25895  0.56362  1.0000
  O   O22       1.0  0.08778  0.74105  0.43638  1.0000
  O   O23       1.0  0.91220  0.75895  0.93638  1.0000
  O   O24       1.0  0.91221  0.24105  0.06362  1.0000
  O   O25       1.0  0.64579  0.25881  0.51628  1.0000
  O   O26       1.0  0.64579  0.74119  0.48372  1.0000
  O   O27       1.0  0.35420  0.75881  0.98372  1.0000
  O   O28       1.0  0.35420  0.24119  0.01628  1.0000
  O   O29       1.0  0.76792  0.05408  0.58041  1.0000
  O   O30       1.0  0.76791  0.94591  0.41959  1.0000
  O   O31       1.0  0.23208  0.55409  0.91959  1.0000
  O   O32       1.0  0.23209  0.44591  0.08041  1.0000
  O   O33       1.0  0.91581  0.62617  0.57189  1.0000
  O   O34       1.0  0.91581  0.37384  0.42811  1.0000
  O   O35       1.0  0.08419  0.12616  0.92811  1.0000
  O   O36       1.0  0.08420  0.87383  0.07189  1.0000
