data_image0
_chemical_formula_structural       Sm4H32C24S6O28
_chemical_formula_sum              "Sm4 H32 C24 S6 O28"
_cell_length_a       8.00214
_cell_length_b       10.5782
_cell_length_c       14.3394
_cell_angle_alpha    71.4087
_cell_angle_beta     75.7437
_cell_angle_gamma    77.1176

_space_group_name_H-M_alt    "P 1"
_space_group_IT_number       1

loop_
  _space_group_symop_operation_xyz
  'x, y, z'

loop_
  _atom_site_type_symbol
  _atom_site_label
  _atom_site_symmetry_multiplicity
  _atom_site_fract_x
  _atom_site_fract_y
  _atom_site_fract_z
  _atom_site_occupancy
  Sm  Sm1       1.0  0.59041  0.59233  0.35839  1.0000
  Sm  Sm2       1.0  0.40959  0.40767  0.64162  1.0000
  Sm  Sm3       1.0  0.00666  0.80238  0.09716  1.0000
  Sm  Sm4       1.0  0.99334  0.19762  0.90285  1.0000
  H   H1        1.0  0.93197  0.32650  0.24496  1.0000
  H   H2        1.0  0.06802  0.67350  0.75505  1.0000
  H   H3        1.0  0.91247  0.36069  0.11744  1.0000
  H   H4        1.0  0.08753  0.63931  0.88257  1.0000
  H   H5        1.0  0.65416  0.56525  0.06539  1.0000
  H   H6        1.0  0.34584  0.43476  0.93461  1.0000
  H   H7        1.0  0.48443  0.46921  0.08993  1.0000
  H   H8        1.0  0.51557  0.53080  0.91007  1.0000
  H   H9        1.0  0.94570  0.54819  0.60684  1.0000
  H   H10       1.0  0.05429  0.45181  0.39316  1.0000
  H   H11       1.0  0.73127  0.58536  0.67527  1.0000
  H   H12       1.0  0.26873  0.41464  0.32473  1.0000
  H   H13       1.0  0.00905  0.84128  0.42781  1.0000
  H   H14       1.0  0.99095  0.15871  0.57219  1.0000
  H   H15       1.0  0.08737  0.90146  0.50817  1.0000
  H   H16       1.0  0.91263  0.09854  0.49183  1.0000
  H   H17       1.0  0.58473  0.12913  0.27550  1.0000
  H   H18       1.0  0.41528  0.87087  0.72450  1.0000
  H   H19       1.0  0.41337  0.02861  0.32677  1.0000
  H   H20       1.0  0.58663  0.97139  0.67323  1.0000
  H   H21       1.0  0.43277  0.95403  0.11472  1.0000
  H   H22       1.0  0.56723  0.04596  0.88528  1.0000
  H   H23       1.0  0.24402  0.98310  0.20460  1.0000
  H   H24       1.0  0.75598  0.01691  0.79540  1.0000
  H   H25       1.0  0.18747  0.73091  0.27140  1.0000
  H   H26       1.0  0.81253  0.26909  0.72860  1.0000
  H   H27       1.0  0.98621  0.72748  0.32582  1.0000
  H   H28       1.0  0.01379  0.27252  0.67417  1.0000
  H   H29       1.0  0.19300  0.89376  0.88803  1.0000
  H   H30       1.0  0.80700  0.10624  0.11197  1.0000
  H   H31       1.0  0.29089  0.75871  0.94791  1.0000
  H   H32       1.0  0.70911  0.24129  0.05209  1.0000
  C   C1        1.0  0.92247  0.53369  0.16331  1.0000
  C   C2        1.0  0.07754  0.46631  0.83668  1.0000
  C   C3        1.0  0.86891  0.39798  0.18385  1.0000
  C   C4        1.0  0.13109  0.60202  0.81615  1.0000
  C   C5        1.0  0.41487  0.63557  0.15348  1.0000
  C   C6        1.0  0.58513  0.36443  0.84652  1.0000
  C   C7        1.0  0.54841  0.52087  0.12342  1.0000
  C   C8        1.0  0.45159  0.47914  0.87658  1.0000
  C   C9        1.0  0.74496  0.61666  0.51857  1.0000
  C   C10       1.0  0.25504  0.38334  0.48143  1.0000
  C   C11       1.0  0.82160  0.61826  0.60445  1.0000
  C   C12       1.0  0.17840  0.38174  0.39555  1.0000
  C   C13       1.0  0.20319  0.70105  0.50522  1.0000
  C   C14       1.0  0.79680  0.29895  0.49479  1.0000
  C   C15       1.0  0.04486  0.81301  0.50162  1.0000
  C   C16       1.0  0.95513  0.18698  0.49838  1.0000
  C   C17       1.0  0.63975  0.93676  0.24174  1.0000
  C   C18       1.0  0.36025  0.06325  0.75826  1.0000
  C   C19       1.0  0.51461  0.06088  0.26116  1.0000
  C   C20       1.0  0.48539  0.93913  0.73884  1.0000
  C   C21       1.0  0.22205  0.08709  0.05270  1.0000
  C   C22       1.0  0.77795  0.91291  0.94731  1.0000
  C   C23       1.0  0.32728  0.03313  0.13513  1.0000
  C   C24       1.0  0.67272  0.96687  0.86487  1.0000
  S   S1        1.0  0.63733  0.40006  0.22865  1.0000
  S   S2        1.0  0.36267  0.59994  0.77135  1.0000
  S   S3        1.0  0.85910  0.78247  0.60209  1.0000
  S   S4        1.0  0.14090  0.21752  0.39791  1.0000
  S   S5        1.0  0.41550  0.16420  0.15484  1.0000
  S   S6        1.0  0.58451  0.83580  0.84516  1.0000
  O   O1        1.0  0.83267  0.61772  0.21281  1.0000
  O   O2        1.0  0.16733  0.38228  0.78719  1.0000
  O   O3        1.0  0.05494  0.56444  0.09719  1.0000
  O   O4        1.0  0.94506  0.43555  0.90282  1.0000
  O   O5        1.0  0.40258  0.65339  0.23918  1.0000
  O   O6        1.0  0.59742  0.34661  0.76082  1.0000
  O   O7        1.0  0.31916  0.70699  0.09195  1.0000
  O   O8        1.0  0.68084  0.29301  0.90805  1.0000
  O   O9        1.0  0.82681  0.64953  0.42875  1.0000
  O   O10       1.0  0.17319  0.35047  0.57125  1.0000
  O   O11       1.0  0.59567  0.57741  0.53817  1.0000
  O   O12       1.0  0.40433  0.42259  0.46183  1.0000
  O   O13       1.0  0.30955  0.70816  0.42301  1.0000
  O   O14       1.0  0.69045  0.29184  0.57699  1.0000
  O   O15       1.0  0.21707  0.61148  0.58782  1.0000
  O   O16       1.0  0.78292  0.38852  0.41218  1.0000
  O   O17       1.0  0.77397  0.95272  0.17103  1.0000
  O   O18       1.0  0.22602  0.04728  0.82896  1.0000
  O   O19       1.0  0.60289  0.82376  0.29625  1.0000
  O   O20       1.0  0.39711  0.17623  0.70376  1.0000
  O   O21       1.0  0.12600  0.00872  0.04607  1.0000
  O   O22       1.0  0.87400  0.99128  0.95392  1.0000
  O   O23       1.0  0.22724  0.20327  0.99189  1.0000
  O   O24       1.0  0.77277  0.79673  0.00811  1.0000
  O   O25       1.0  0.06434  0.76794  0.26339  1.0000
  O   O26       1.0  0.93565  0.23207  0.73661  1.0000
  O   O27       1.0  0.17504  0.80019  0.93165  1.0000
  O   O28       1.0  0.82496  0.19981  0.06835  1.0000
