data_image0
_chemical_formula_structural       Co2H22C36N6O12
_chemical_formula_sum              "Co2 H22 C36 N6 O12"
_cell_length_a       10.0764
_cell_length_b       9.45315
_cell_length_c       10.9039
_cell_angle_alpha    111.925
_cell_angle_beta     97.5091
_cell_angle_gamma    99.2304

_space_group_name_H-M_alt    "P 1"
_space_group_IT_number       1

loop_
  _space_group_symop_operation_xyz
  'x, y, z'

loop_
  _atom_site_type_symbol
  _atom_site_label
  _atom_site_symmetry_multiplicity
  _atom_site_fract_x
  _atom_site_fract_y
  _atom_site_fract_z
  _atom_site_occupancy
  Co  Co1       1.0  0.39186  0.66752  0.11348  1.0000
  Co  Co2       1.0  0.60814  0.33248  0.88653  1.0000
  H   H1        1.0  0.26245  0.43974  0.44178  1.0000
  H   H2        1.0  0.73755  0.56027  0.55822  1.0000
  H   H3        1.0  0.19916  0.52719  0.85920  1.0000
  H   H4        1.0  0.80084  0.47282  0.14080  1.0000
  H   H5        1.0  0.93412  0.64556  0.05132  1.0000
  H   H6        1.0  0.06587  0.35445  0.94866  1.0000
  H   H7        1.0  0.53904  0.87303  0.37769  1.0000
  H   H8        1.0  0.46097  0.12696  0.62232  1.0000
  H   H9        1.0  0.26629  0.44071  0.21409  1.0000
  H   H10       1.0  0.73372  0.55930  0.78591  1.0000
  H   H11       1.0  0.54413  0.89588  0.61152  1.0000
  H   H12       1.0  0.45588  0.10412  0.38849  1.0000
  H   H13       1.0  0.57942  0.86726  0.79219  1.0000
  H   H14       1.0  0.42060  0.13273  0.20781  1.0000
  H   H15       1.0  0.73957  0.97622  0.31492  1.0000
  H   H16       1.0  0.26042  0.02377  0.68508  1.0000
  H   H17       1.0  0.56324  0.86689  0.01498  1.0000
  H   H18       1.0  0.43677  0.13311  0.98503  1.0000
  H   H19       1.0  0.18096  0.07593  0.36691  1.0000
  H   H20       1.0  0.81904  0.92406  0.63308  1.0000
  H   H21       1.0  0.19670  0.51400  0.62969  1.0000
  H   H22       1.0  0.80332  0.48599  0.37032  1.0000
  C   C1        1.0  0.20181  0.81087  0.17134  1.0000
  C   C2        1.0  0.79818  0.18913  0.82866  1.0000
  C   C3        1.0  0.39274  0.68267  0.68612  1.0000
  C   C4        1.0  0.60727  0.31733  0.31389  1.0000
  C   C5        1.0  0.39961  0.67086  0.54901  1.0000
  C   C6        1.0  0.60040  0.32914  0.45099  1.0000
  C   C7        1.0  0.32369  0.54052  0.43349  1.0000
  C   C8        1.0  0.67630  0.45949  0.56652  1.0000
  C   C9        1.0  0.68314  0.69459  0.09913  1.0000
  C   C10       1.0  0.31685  0.30542  0.90086  1.0000
  C   C11       1.0  0.28281  0.59775  0.83896  1.0000
  C   C12       1.0  0.71720  0.40225  0.16105  1.0000
  C   C13       1.0  0.94194  0.75748  0.13490  1.0000
  C   C14       1.0  0.05805  0.24253  0.86509  1.0000
  C   C15       1.0  0.07117  0.85622  0.20440  1.0000
  C   C16       1.0  0.92882  0.14379  0.79559  1.0000
  C   C17       1.0  0.47861  0.78060  0.39717  1.0000
  C   C18       1.0  0.52141  0.21939  0.60284  1.0000
  C   C19       1.0  0.82183  0.80060  0.17317  1.0000
  C   C20       1.0  0.17816  0.19942  0.82681  1.0000
  C   C21       1.0  0.32517  0.53849  0.30585  1.0000
  C   C22       1.0  0.67483  0.46152  0.69416  1.0000
  C   C23       1.0  0.48092  0.79145  0.52754  1.0000
  C   C24       1.0  0.51909  0.20854  0.47246  1.0000
  C   C25       1.0  0.49351  0.78697  0.79991  1.0000
  C   C26       1.0  0.50649  0.21303  0.20010  1.0000
  C   C27       1.0  0.83131  0.94208  0.28239  1.0000
  C   C28       1.0  0.16869  0.05791  0.71761  1.0000
  C   C29       1.0  0.48591  0.78761  0.92598  1.0000
  C   C30       1.0  0.51409  0.21240  0.07403  1.0000
  C   C31       1.0  0.08108  0.99911  0.31195  1.0000
  C   C32       1.0  0.91892  0.00089  0.68804  1.0000
  C   C33       1.0  0.96064  0.03855  0.34955  1.0000
  C   C34       1.0  0.03935  0.96143  0.65044  1.0000
  C   C35       1.0  0.28306  0.59152  0.71018  1.0000
  C   C36       1.0  0.71695  0.40847  0.28983  1.0000
  N   N1        1.0  0.38566  0.68970  0.94612  1.0000
  N   N2        1.0  0.61434  0.31031  0.05390  1.0000
  N   N3        1.0  0.40026  0.65777  0.28719  1.0000
  N   N4        1.0  0.59975  0.34223  0.71281  1.0000
  N   N5        1.0  0.97062  0.18534  0.46587  1.0000
  N   N6        1.0  0.02937  0.81465  0.53412  1.0000
  O   O1        1.0  0.31385  0.91246  0.21554  1.0000
  O   O2        1.0  0.68615  0.08754  0.78447  1.0000
  O   O3        1.0  0.67326  0.58552  0.98596  1.0000
  O   O4        1.0  0.32673  0.41448  0.01404  1.0000
  O   O5        1.0  0.58574  0.73113  0.16201  1.0000
  O   O6        1.0  0.41425  0.26888  0.83799  1.0000
  O   O7        1.0  0.86349  0.21616  0.50259  1.0000
  O   O8        1.0  0.13650  0.78383  0.49741  1.0000
  O   O9        1.0  0.08740  0.27088  0.52270  1.0000
  O   O10       1.0  0.91259  0.72913  0.47726  1.0000
  O   O11       1.0  0.19610  0.66474  0.10155  1.0000
  O   O12       1.0  0.80389  0.33526  0.89845  1.0000
