data_image0
_chemical_formula_structural       Co2H30C40N6O12
_chemical_formula_sum              "Co2 H30 C40 N6 O12"
_cell_length_a       9.23943
_cell_length_b       10.1089
_cell_length_c       11.6503
_cell_angle_alpha    72.6524
_cell_angle_beta     76.6632
_cell_angle_gamma    69.0025

_space_group_name_H-M_alt    "P 1"
_space_group_IT_number       1

loop_
  _space_group_symop_operation_xyz
  'x, y, z'

loop_
  _atom_site_type_symbol
  _atom_site_label
  _atom_site_symmetry_multiplicity
  _atom_site_fract_x
  _atom_site_fract_y
  _atom_site_fract_z
  _atom_site_occupancy
  Co  Co1       1.0  0.43642  0.37851  0.88221  1.0000
  Co  Co2       1.0  0.56358  0.62148  0.11778  1.0000
  H   H1        1.0  0.32231  0.21352  0.57573  1.0000
  H   H2        1.0  0.67768  0.78646  0.42430  1.0000
  H   H3        1.0  0.32542  0.76919  0.65165  1.0000
  H   H4        1.0  0.67459  0.23078  0.34836  1.0000
  H   H5        1.0  0.41113  0.92541  0.92731  1.0000
  H   H6        1.0  0.58886  0.07456  0.07272  1.0000
  H   H7        1.0  0.17840  0.58936  0.00069  1.0000
  H   H8        1.0  0.82162  0.41064  0.99928  1.0000
  H   H9        1.0  0.97831  0.57601  0.18212  1.0000
  H   H10       1.0  0.02171  0.42400  0.81785  1.0000
  H   H11       1.0  0.13900  0.10879  0.23072  1.0000
  H   H12       1.0  0.86103  0.89122  0.76930  1.0000
  H   H13       1.0  0.33193  0.14004  0.04747  1.0000
  H   H14       1.0  0.66813  0.85994  0.95256  1.0000
  H   H15       1.0  0.92872  0.21294  0.37535  1.0000
  H   H16       1.0  0.07128  0.78708  0.62463  1.0000
  H   H17       1.0  0.80946  0.39313  0.31679  1.0000
  H   H18       1.0  0.19056  0.60690  0.68319  1.0000
  H   H19       1.0  0.07993  0.31580  0.46067  1.0000
  H   H20       1.0  0.92005  0.68423  0.53934  1.0000
  H   H21       1.0  0.96503  0.49418  0.39664  1.0000
  H   H22       1.0  0.03493  0.50584  0.60338  1.0000
  H   H23       1.0  0.66238  0.56071  0.45604  1.0000
  H   H24       1.0  0.33759  0.43925  0.54394  1.0000
  H   H25       1.0  0.46045  0.55554  0.63999  1.0000
  H   H26       1.0  0.53951  0.44442  0.35999  1.0000
  H   H27       1.0  0.76649  0.20745  0.84493  1.0000
  H   H28       1.0  0.23350  0.79261  0.15509  1.0000
  H   H29       1.0  0.98308  0.19818  0.67001  1.0000
  H   H30       1.0  0.01692  0.80185  0.33001  1.0000
  C   C1        1.0  0.36905  0.08232  0.75575  1.0000
  C   C2        1.0  0.63090  0.91767  0.24427  1.0000
  C   C3        1.0  0.33539  0.10741  0.63869  1.0000
  C   C4        1.0  0.66458  0.89258  0.36134  1.0000
  C   C5        1.0  0.32124  0.99282  0.60365  1.0000
  C   C6        1.0  0.67875  0.00717  0.39636  1.0000
  C   C7        1.0  0.33695  0.85581  0.68220  1.0000
  C   C8        1.0  0.66305  0.14417  0.31781  1.0000
  C   C9        1.0  0.36876  0.83163  0.79956  1.0000
  C   C10       1.0  0.63125  0.16834  0.20045  1.0000
  C   C11       1.0  0.38577  0.94501  0.83581  1.0000
  C   C12       1.0  0.61421  0.05498  0.16421  1.0000
  C   C13       1.0  0.38247  0.20612  0.79275  1.0000
  C   C14       1.0  0.61746  0.79391  0.20726  1.0000
  C   C15       1.0  0.38658  0.68456  0.88637  1.0000
  C   C16       1.0  0.61349  0.31539  0.11363  1.0000
  C   C17       1.0  0.16694  0.48482  0.05406  1.0000
  C   C18       1.0  0.83309  0.51518  0.94593  1.0000
  C   C19       1.0  0.05570  0.47596  0.15634  1.0000
  C   C20       1.0  0.94433  0.52405  0.84365  1.0000
  C   C21       1.0  0.04175  0.34018  0.22456  1.0000
  C   C22       1.0  0.95828  0.65984  0.77544  1.0000
  C   C23       1.0  0.14147  0.21841  0.18187  1.0000
  C   C24       1.0  0.85856  0.78160  0.81814  1.0000
  C   C25       1.0  0.25131  0.23459  0.07944  1.0000
  C   C26       1.0  0.74873  0.76541  0.92058  1.0000
  C   C27       1.0  0.92762  0.32677  0.33887  1.0000
  C   C28       1.0  0.07239  0.67325  0.66112  1.0000
  C   C29       1.0  0.96277  0.38163  0.43668  1.0000
  C   C30       1.0  0.03722  0.61839  0.56332  1.0000
  C   C31       1.0  0.84123  0.38003  0.54722  1.0000
  C   C32       1.0  0.15875  0.61997  0.45278  1.0000
  C   C33       1.0  0.69101  0.48120  0.54101  1.0000
  C   C34       1.0  0.30895  0.51877  0.45897  1.0000
  C   C35       1.0  0.57801  0.47899  0.64221  1.0000
  C   C36       1.0  0.42196  0.52098  0.35776  1.0000
  C   C37       1.0  0.74956  0.28362  0.75693  1.0000
  C   C38       1.0  0.25043  0.71640  0.24307  1.0000
  C   C39       1.0  0.86876  0.28002  0.65874  1.0000
  C   C40       1.0  0.13124  0.72000  0.34126  1.0000
  N   N1        1.0  0.29334  0.01604  0.47953  1.0000
  N   N2        1.0  0.70667  0.98397  0.52048  1.0000
  N   N3        1.0  0.26716  0.36593  0.01554  1.0000
  N   N4        1.0  0.73289  0.63406  0.98447  1.0000
  N   N5        1.0  0.60559  0.38199  0.74933  1.0000
  N   N6        1.0  0.39438  0.61800  0.25066  1.0000
  O   O1        1.0  0.47040  0.17732  0.87449  1.0000
  O   O2        1.0  0.52952  0.82271  0.12550  1.0000
  O   O3        1.0  0.30800  0.33558  0.74490  1.0000
  O   O4        1.0  0.69194  0.66443  0.25505  1.0000
  O   O5        1.0  0.40058  0.66867  0.99483  1.0000
  O   O6        1.0  0.59957  0.33122  0.00515  1.0000
  O   O7        1.0  0.37893  0.58679  0.83984  1.0000
  O   O8        1.0  0.62109  0.41320  0.16014  1.0000
  O   O9        1.0  0.26277  0.91887  0.45322  1.0000
  O   O10       1.0  0.73726  0.08114  0.54675  1.0000
  O   O11       1.0  0.30324  0.13169  0.40605  1.0000
  O   O12       1.0  0.69675  0.86836  0.59397  1.0000
