data_image0
_chemical_formula_structural       Ni2H72C48N12O12
_chemical_formula_sum              "Ni2 H72 C48 N12 O12"
_cell_length_a       8.42165
_cell_length_b       11.4521
_cell_length_c       15.6613
_cell_angle_alpha    89.9998
_cell_angle_beta     89.9993
_cell_angle_gamma    92.0015

_space_group_name_H-M_alt    "P 1"
_space_group_IT_number       1

loop_
  _space_group_symop_operation_xyz
  'x, y, z'

loop_
  _atom_site_type_symbol
  _atom_site_label
  _atom_site_symmetry_multiplicity
  _atom_site_fract_x
  _atom_site_fract_y
  _atom_site_fract_z
  _atom_site_occupancy
  Ni  Ni1       1.0  0.50000  0.50000  0.50000  1.0000
  Ni  Ni2       1.0  0.00000  0.50000  1.00000  1.0000
  H   H1        1.0  0.78309  0.24549  0.78935  1.0000
  H   H2        1.0  0.71692  0.75450  0.28935  1.0000
  H   H3        1.0  0.21691  0.75451  0.21065  1.0000
  H   H4        1.0  0.28308  0.24550  0.71065  1.0000
  H   H5        1.0  0.53872  0.37755  0.63228  1.0000
  H   H6        1.0  0.96127  0.62245  0.13228  1.0000
  H   H7        1.0  0.46128  0.62245  0.36772  1.0000
  H   H8        1.0  0.03874  0.37755  0.86772  1.0000
  H   H9        1.0  0.62681  0.32323  0.44060  1.0000
  H   H10       1.0  0.87318  0.67677  0.94060  1.0000
  H   H11       1.0  0.37319  0.67677  0.55940  1.0000
  H   H12       1.0  0.12682  0.32323  0.05940  1.0000
  H   H13       1.0  0.57360  0.62720  0.67479  1.0000
  H   H14       1.0  0.92639  0.37280  0.17479  1.0000
  H   H15       1.0  0.42640  0.37280  0.32521  1.0000
  H   H16       1.0  0.07361  0.62720  0.82521  1.0000
  H   H17       1.0  0.51706  0.51196  0.74640  1.0000
  H   H18       1.0  0.98293  0.48805  0.24640  1.0000
  H   H19       1.0  0.48293  0.48804  0.25360  1.0000
  H   H20       1.0  0.01707  0.51195  0.75360  1.0000
  H   H21       1.0  0.80119  0.55359  0.60827  1.0000
  H   H22       1.0  0.69881  0.44640  0.10827  1.0000
  H   H23       1.0  0.19881  0.44641  0.39173  1.0000
  H   H24       1.0  0.30120  0.55360  0.89173  1.0000
  H   H25       1.0  0.79845  0.44126  0.68881  1.0000
  H   H26       1.0  0.70154  0.55873  0.18881  1.0000
  H   H27       1.0  0.20155  0.55874  0.31119  1.0000
  H   H28       1.0  0.29846  0.44126  0.81119  1.0000
  H   H29       1.0  0.91449  0.36127  0.44194  1.0000
  H   H30       1.0  0.58551  0.63872  0.94194  1.0000
  H   H31       1.0  0.08551  0.63873  0.55806  1.0000
  H   H32       1.0  0.41449  0.36128  0.05806  1.0000
  H   H33       1.0  0.87189  0.50860  0.46911  1.0000
  H   H34       1.0  0.62811  0.49139  0.96910  1.0000
  H   H35       1.0  0.12811  0.49140  0.53090  1.0000
  H   H36       1.0  0.37190  0.50861  0.03090  1.0000
  H   H37       1.0  0.27745  0.61604  0.69750  1.0000
  H   H38       1.0  0.22255  0.38396  0.19750  1.0000
  H   H39       1.0  0.72256  0.38396  0.30250  1.0000
  H   H40       1.0  0.77745  0.61604  0.80250  1.0000
  H   H41       1.0  0.27208  0.46963  0.65899  1.0000
  H   H42       1.0  0.22791  0.53037  0.15899  1.0000
  H   H43       1.0  0.72791  0.53037  0.34101  1.0000
  H   H44       1.0  0.77209  0.46962  0.84101  1.0000
  H   H45       1.0  0.86953  0.21170  0.53428  1.0000
  H   H46       1.0  0.63045  0.78829  0.03428  1.0000
  H   H47       1.0  0.13047  0.78830  0.46572  1.0000
  H   H48       1.0  0.36955  0.21170  0.96572  1.0000
  H   H49       1.0  0.67397  0.23301  0.57304  1.0000
  H   H50       1.0  0.82602  0.76699  0.07304  1.0000
  H   H51       1.0  0.32603  0.76699  0.42696  1.0000
  H   H52       1.0  0.17399  0.23301  0.92696  1.0000
  H   H53       1.0  0.86220  0.12484  0.66864  1.0000
  H   H54       1.0  0.63779  0.87515  0.16864  1.0000
  H   H55       1.0  0.13779  0.87516  0.33136  1.0000
  H   H56       1.0  0.36221  0.12484  0.83136  1.0000
  H   H57       1.0  0.96820  0.25980  0.68645  1.0000
  H   H58       1.0  0.53180  0.74019  0.18646  1.0000
  H   H59       1.0  0.03180  0.74020  0.31355  1.0000
  H   H60       1.0  0.46820  0.25980  0.81354  1.0000
  H   H61       1.0  0.82294  0.75561  0.61442  1.0000
  H   H62       1.0  0.67706  0.24439  0.11442  1.0000
  H   H63       1.0  0.17706  0.24438  0.38559  1.0000
  H   H64       1.0  0.32294  0.75561  0.88558  1.0000
  H   H65       1.0  0.02808  0.90397  0.66251  1.0000
  H   H66       1.0  0.47191  0.09603  0.16251  1.0000
  H   H67       1.0  0.97191  0.09603  0.33750  1.0000
  H   H68       1.0  0.52809  0.90397  0.83749  1.0000
  H   H69       1.0  0.80037  0.91974  0.36852  1.0000
  H   H70       1.0  0.69963  0.08026  0.86852  1.0000
  H   H71       1.0  0.19963  0.08026  0.63148  1.0000
  H   H72       1.0  0.30037  0.91975  0.13148  1.0000
  C   C1        1.0  0.50961  0.54189  0.67959  1.0000
  C   C2        1.0  0.99038  0.45811  0.17959  1.0000
  C   C3        1.0  0.49039  0.45811  0.32041  1.0000
  C   C4        1.0  0.00962  0.54189  0.82041  1.0000
  C   C5        1.0  0.76057  0.46396  0.62399  1.0000
  C   C6        1.0  0.73943  0.53603  0.12399  1.0000
  C   C7        1.0  0.23943  0.53604  0.37601  1.0000
  C   C8        1.0  0.26057  0.46397  0.87601  1.0000
  C   C9        1.0  0.83085  0.41697  0.47627  1.0000
  C   C10       1.0  0.66916  0.58302  0.97626  1.0000
  C   C11       1.0  0.16915  0.58303  0.52373  1.0000
  C   C12       1.0  0.33085  0.41697  0.02373  1.0000
  C   C13       1.0  0.33582  0.55489  0.65399  1.0000
  C   C14       1.0  0.16417  0.44511  0.15399  1.0000
  C   C15       1.0  0.66418  0.44511  0.34601  1.0000
  C   C16       1.0  0.83583  0.55489  0.84601  1.0000
  C   C17       1.0  0.80085  0.25955  0.58162  1.0000
  C   C18       1.0  0.69914  0.74044  0.08162  1.0000
  C   C19       1.0  0.19915  0.74045  0.41838  1.0000
  C   C20       1.0  0.30086  0.25955  0.91838  1.0000
  C   C21       1.0  0.85032  0.22061  0.67025  1.0000
  C   C22       1.0  0.64966  0.77938  0.17025  1.0000
  C   C23       1.0  0.14967  0.77939  0.32975  1.0000
  C   C24       1.0  0.35034  0.22061  0.82975  1.0000
  C   C25       1.0  0.67986  0.73672  0.45919  1.0000
  C   C26       1.0  0.82014  0.26328  0.95918  1.0000
  C   C27       1.0  0.32013  0.26328  0.54081  1.0000
  C   C28       1.0  0.17986  0.73672  0.04082  1.0000
  C   C29       1.0  0.80018  0.82904  0.48811  1.0000
  C   C30       1.0  0.69982  0.17096  0.98811  1.0000
  C   C31       1.0  0.19982  0.17096  0.51190  1.0000
  C   C32       1.0  0.30018  0.82904  0.01189  1.0000
  C   C33       1.0  0.86520  0.82519  0.57180  1.0000
  C   C34       1.0  0.63480  0.17481  0.07180  1.0000
  C   C35       1.0  0.13479  0.17481  0.42821  1.0000
  C   C36       1.0  0.36521  0.82519  0.92820  1.0000
  C   C37       1.0  0.97863  0.90696  0.59810  1.0000
  C   C38       1.0  0.52137  0.09304  0.09810  1.0000
  C   C39       1.0  0.02136  0.09304  0.40190  1.0000
  C   C40       1.0  0.47864  0.90696  0.90190  1.0000
  C   C41       1.0  0.85006  0.91722  0.43284  1.0000
  C   C42       1.0  0.64994  0.08278  0.93284  1.0000
  C   C43       1.0  0.14994  0.08278  0.56716  1.0000
  C   C44       1.0  0.35006  0.91722  0.06716  1.0000
  C   C45       1.0  0.03343  0.99742  0.54213  1.0000
  C   C46       1.0  0.46656  0.00258  0.04213  1.0000
  C   C47       1.0  0.96656  0.00258  0.45787  1.0000
  C   C48       1.0  0.53344  0.99742  0.95787  1.0000
  N   N1        1.0  0.58421  0.46102  0.62008  1.0000
  N   N2        1.0  0.91578  0.53898  0.12008  1.0000
  N   N3        1.0  0.41579  0.53899  0.37992  1.0000
  N   N4        1.0  0.08422  0.46102  0.87992  1.0000
  N   N5        1.0  0.83281  0.38461  0.56509  1.0000
  N   N6        1.0  0.66718  0.61538  0.06509  1.0000
  N   N7        1.0  0.16719  0.61539  0.43491  1.0000
  N   N8        1.0  0.33282  0.38461  0.93491  1.0000
  N   N9        1.0  0.67092  0.40745  0.43582  1.0000
  N   N10       1.0  0.82909  0.59255  0.93582  1.0000
  N   N11       1.0  0.32908  0.59255  0.56418  1.0000
  N   N12       1.0  0.17091  0.40745  0.06418  1.0000
  O   O1        1.0  0.73346  0.25111  0.73196  1.0000
  O   O2        1.0  0.76653  0.74888  0.23197  1.0000
  O   O3        1.0  0.26653  0.74889  0.26804  1.0000
  O   O4        1.0  0.23347  0.25112  0.76803  1.0000
  O   O5        1.0  0.64253  0.65766  0.51425  1.0000
  O   O6        1.0  0.85748  0.34235  0.01425  1.0000
  O   O7        1.0  0.35747  0.34234  0.48575  1.0000
  O   O8        1.0  0.14252  0.65765  0.98575  1.0000
  O   O9        1.0  0.62367  0.74210  0.38433  1.0000
  O   O10       1.0  0.87633  0.25791  0.88434  1.0000
  O   O11       1.0  0.37633  0.25791  0.61567  1.0000
  O   O12       1.0  0.12367  0.74209  0.11566  1.0000
