data_image0
_chemical_formula_structural       U2H52C24S4N4O20
_chemical_formula_sum              "U2 H52 C24 S4 N4 O20"
_cell_length_a       8.45801
_cell_length_b       8.98447
_cell_length_c       16.0173
_cell_angle_alpha    79.0732
_cell_angle_beta     74.8983
_cell_angle_gamma    61.9365

_space_group_name_H-M_alt    "P 1"
_space_group_IT_number       1

loop_
  _space_group_symop_operation_xyz
  'x, y, z'

loop_
  _atom_site_type_symbol
  _atom_site_label
  _atom_site_symmetry_multiplicity
  _atom_site_fract_x
  _atom_site_fract_y
  _atom_site_fract_z
  _atom_site_occupancy
  U   U1        1.0  0.50001  1.00000  0.50000  1.0000
  U   U2        1.0  0.00001  0.49996  1.00000  1.0000
  H   H1        1.0  0.41800  0.48163  0.42948  1.0000
  H   H2        1.0  0.32931  0.01841  0.07006  1.0000
  H   H3        1.0  0.58201  0.51839  0.57052  1.0000
  H   H4        1.0  0.67072  0.98158  0.92994  1.0000
  H   H5        1.0  0.46305  0.65314  0.43187  1.0000
  H   H6        1.0  0.54802  0.84690  0.06819  1.0000
  H   H7        1.0  0.53695  0.34689  0.56813  1.0000
  H   H8        1.0  0.45201  0.15308  0.93180  1.0000
  H   H9        1.0  0.19875  0.54855  0.57317  1.0000
  H   H10       1.0  0.32015  0.95121  0.92631  1.0000
  H   H11       1.0  0.80126  0.45145  0.42683  1.0000
  H   H12       1.0  0.67985  0.04880  0.07369  1.0000
  H   H13       1.0  0.13103  0.71867  0.49059  1.0000
  H   H14       1.0  0.34106  0.78092  0.00878  1.0000
  H   H15       1.0  0.86897  0.28135  0.50941  1.0000
  H   H16       1.0  0.65895  0.21908  0.99122  1.0000
  H   H17       1.0  0.91724  0.92752  0.59167  1.0000
  H   H18       1.0  0.43666  0.57238  0.90727  1.0000
  H   H19       1.0  0.08276  0.07247  0.40834  1.0000
  H   H20       1.0  0.56332  0.42764  0.09273  1.0000
  H   H21       1.0  0.96318  0.76395  0.67867  1.0000
  H   H22       1.0  0.40570  0.73575  0.82017  1.0000
  H   H23       1.0  0.03682  0.23604  0.32133  1.0000
  H   H24       1.0  0.59429  0.26426  0.17982  1.0000
  H   H25       1.0  0.99777  0.09056  0.67717  1.0000
  H   H26       1.0  0.76518  0.40934  0.82271  1.0000
  H   H27       1.0  0.00221  0.90945  0.32284  1.0000
  H   H28       1.0  0.23481  0.59064  0.17729  1.0000
  H   H29       1.0  0.79347  0.07259  0.72436  1.0000
  H   H30       1.0  0.59086  0.42712  0.77455  1.0000
  H   H31       1.0  0.20652  0.92740  0.27564  1.0000
  H   H32       1.0  0.40911  0.57290  0.22544  1.0000
  H   H33       1.0  0.16117  0.82891  0.77628  1.0000
  H   H34       1.0  0.76646  0.67075  0.72402  1.0000
  H   H35       1.0  0.83882  0.17109  0.22372  1.0000
  H   H36       1.0  0.23354  0.32924  0.27599  1.0000
  H   H37       1.0  0.94533  0.84161  0.82869  1.0000
  H   H38       1.0  0.61617  0.65841  0.67070  1.0000
  H   H39       1.0  0.05467  0.15839  0.17132  1.0000
  H   H40       1.0  0.38383  0.34160  0.32930  1.0000
  H   H41       1.0  0.03142  0.98483  0.91312  1.0000
  H   H42       1.0  0.92937  0.51503  0.58707  1.0000
  H   H43       1.0  0.96858  0.01516  0.08689  1.0000
  H   H44       1.0  0.07063  0.48498  0.41294  1.0000
  H   H45       1.0  0.85005  0.14243  0.86419  1.0000
  H   H46       1.0  0.85730  0.35722  0.63569  1.0000
  H   H47       1.0  0.14995  0.85757  0.13582  1.0000
  H   H48       1.0  0.14270  0.64278  0.36430  1.0000
  H   H49       1.0  0.07688  0.11230  0.81918  1.0000
  H   H50       1.0  0.00850  0.38786  0.68123  1.0000
  H   H51       1.0  0.92312  0.88770  0.18082  1.0000
  H   H52       1.0  0.99150  0.61214  0.31877  1.0000
  C   C1        1.0  0.42677  0.55684  0.47330  1.0000
  C   C2        1.0  0.45697  0.94320  0.02651  1.0000
  C   C3        1.0  0.57324  0.44318  0.52670  1.0000
  C   C4        1.0  0.54305  0.05678  0.97348  1.0000
  C   C5        1.0  0.23698  0.64142  0.52916  1.0000
  C   C6        1.0  0.40771  0.85840  0.97034  1.0000
  C   C7        1.0  0.76302  0.35860  0.47083  1.0000
  C   C8        1.0  0.59230  0.14160  0.02965  1.0000
  C   C9        1.0  0.98948  0.87187  0.64606  1.0000
  C   C10       1.0  0.50731  0.62807  0.85306  1.0000
  C   C11       1.0  0.01050  0.12814  0.35394  1.0000
  C   C12       1.0  0.49268  0.37194  0.14693  1.0000
  C   C13       1.0  0.94324  0.00011  0.70940  1.0000
  C   C14       1.0  0.65277  0.49973  0.79001  1.0000
  C   C15       1.0  0.05675  0.99989  0.29061  1.0000
  C   C16       1.0  0.34721  0.50027  0.20998  1.0000
  C   C17       1.0  0.01545  0.91812  0.79287  1.0000
  C   C18       1.0  0.72668  0.58168  0.70692  1.0000
  C   C19       1.0  0.98455  0.08188  0.20714  1.0000
  C   C20       1.0  0.27332  0.41832  0.29308  1.0000
  C   C21       1.0  0.99286  0.04622  0.85060  1.0000
  C   C22       1.0  0.88992  0.45369  0.64948  1.0000
  C   C23       1.0  0.00715  0.95378  0.14941  1.0000
  C   C24       1.0  0.11008  0.54631  0.35051  1.0000
  S   S1        1.0  0.23056  0.78069  0.59921  1.0000
  S   S2        1.0  0.61002  0.71959  0.90035  1.0000
  S   S3        1.0  0.76943  0.21932  0.40080  1.0000
  S   S4        1.0  0.38998  0.28041  0.09964  1.0000
  N   N1        1.0  0.53504  0.96913  0.31135  1.0000
  N   N2        1.0  0.81691  0.53016  0.18854  1.0000
  N   N3        1.0  0.46496  0.03087  0.68866  1.0000
  N   N4        1.0  0.18309  0.46983  0.81146  1.0000
  O   O1        1.0  0.33830  0.22049  0.48878  1.0000
  O   O2        1.0  0.04753  0.27951  0.01107  1.0000
  O   O3        1.0  0.66170  0.77954  0.51121  1.0000
  O   O4        1.0  0.95250  0.72041  0.98893  1.0000
  O   O5        1.0  0.42023  0.93598  0.37235  1.0000
  O   O6        1.0  0.72958  0.56356  0.12735  1.0000
  O   O7        1.0  0.57977  0.06403  0.62765  1.0000
  O   O8        1.0  0.27040  0.43643  0.87265  1.0000
  O   O9        1.0  0.63717  0.01324  0.33771  1.0000
  O   O10       1.0  0.98911  0.48643  0.16241  1.0000
  O   O11       1.0  0.36283  0.98676  0.66229  1.0000
  O   O12       1.0  0.01088  0.51359  0.83759  1.0000
  O   O13       1.0  0.54564  0.96036  0.23416  1.0000
  O   O14       1.0  0.74224  0.53833  0.26570  1.0000
  O   O15       1.0  0.45436  0.03964  0.76584  1.0000
  O   O16       1.0  0.25778  0.46163  0.73430  1.0000
  O   O17       1.0  0.25259  0.92711  0.53649  1.0000
  O   O18       1.0  0.71628  0.57307  0.96307  1.0000
  O   O19       1.0  0.74740  0.07290  0.46351  1.0000
  O   O20       1.0  0.28372  0.42692  0.03692  1.0000
