data_image0
_chemical_formula_structural       Hg4H12C20N8O8
_chemical_formula_sum              "Hg4 H12 C20 N8 O8"
_cell_length_a       6.90627
_cell_length_b       6.90619
_cell_length_c       14.0721
_cell_angle_alpha    90.7732
_cell_angle_beta     90.7756
_cell_angle_gamma    103.144

_space_group_name_H-M_alt    "P 1"
_space_group_IT_number       1

loop_
  _space_group_symop_operation_xyz
  'x, y, z'

loop_
  _atom_site_type_symbol
  _atom_site_label
  _atom_site_symmetry_multiplicity
  _atom_site_fract_x
  _atom_site_fract_y
  _atom_site_fract_z
  _atom_site_occupancy
  Hg  Hg1       1.0  0.79872  0.51170  0.45383  1.0000
  Hg  Hg2       1.0  0.51163  0.79865  0.95385  1.0000
  Hg  Hg3       1.0  0.41613  0.36174  0.43952  1.0000
  Hg  Hg4       1.0  0.36178  0.41603  0.93954  1.0000
  H   H1        1.0  0.96518  0.41327  0.66633  1.0000
  H   H2        1.0  0.41327  0.96521  0.16634  1.0000
  H   H3        1.0  0.05964  0.58708  0.82470  1.0000
  H   H4        1.0  0.58714  0.05971  0.32469  1.0000
  H   H5        1.0  0.23106  0.55431  0.13336  1.0000
  H   H6        1.0  0.55423  0.23095  0.63332  1.0000
  H   H7        1.0  0.54604  0.50709  0.22516  1.0000
  H   H8        1.0  0.50698  0.54591  0.72512  1.0000
  H   H9        1.0  0.94426  0.45151  0.01374  1.0000
  H   H10       1.0  0.45136  0.94414  0.51371  1.0000
  H   H11       1.0  0.94273  0.95696  0.54611  1.0000
  H   H12       1.0  0.95689  0.94274  0.04609  1.0000
  C   C1        1.0  0.98215  0.57358  0.67489  1.0000
  C   C2        1.0  0.57358  0.98219  0.17489  1.0000
  C   C3        1.0  0.05771  0.87538  0.76595  1.0000
  C   C4        1.0  0.87541  0.05778  0.26592  1.0000
  C   C5        1.0  0.03672  0.66971  0.76199  1.0000
  C   C6        1.0  0.66975  0.03678  0.26199  1.0000
  C   C7        1.0  0.02901  0.57684  0.24686  1.0000
  C   C8        1.0  0.57675  0.02888  0.74683  1.0000
  C   C9        1.0  0.07700  0.54229  0.15309  1.0000
  C   C10       1.0  0.54219  0.07689  0.65306  1.0000
  C   C11       1.0  0.69849  0.51275  0.20357  1.0000
  C   C12       1.0  0.51264  0.69837  0.70353  1.0000
  C   C13       1.0  0.91957  0.48638  0.08799  1.0000
  C   C14       1.0  0.48627  0.91946  0.58795  1.0000
  C   C15       1.0  0.97104  0.87457  0.60876  1.0000
  C   C16       1.0  0.87452  0.97107  0.10875  1.0000
  C   C17       1.0  0.12269  0.99081  0.85867  1.0000
  C   C18       1.0  0.99090  0.12278  0.35864  1.0000
  C   C19       1.0  0.18764  0.61825  0.32486  1.0000
  C   C20       1.0  0.61817  0.18751  0.82484  1.0000
  N   N1        1.0  0.83951  0.56313  0.27142  1.0000
  N   N2        1.0  0.56305  0.83938  0.77139  1.0000
  N   N3        1.0  0.72948  0.47077  0.11269  1.0000
  N   N4        1.0  0.47065  0.72936  0.61266  1.0000
  N   N5        1.0  0.02613  0.97843  0.68876  1.0000
  N   N6        1.0  0.97842  0.02619  0.18872  1.0000
  N   N7        1.0  0.94775  0.67610  0.59861  1.0000
  N   N8        1.0  0.67607  0.94776  0.09861  1.0000
  O   O1        1.0  0.13211  0.59990  0.41189  1.0000
  O   O2        1.0  0.59980  0.13200  0.91187  1.0000
  O   O3        1.0  0.36535  0.65697  0.29982  1.0000
  O   O4        1.0  0.65689  0.36524  0.79979  1.0000
  O   O5        1.0  0.14471  0.89389  0.93133  1.0000
  O   O6        1.0  0.89402  0.14482  0.43131  1.0000
  O   O7        1.0  0.15113  0.18012  0.85163  1.0000
  O   O8        1.0  0.18020  0.15121  0.35157  1.0000
