data_image0
_chemical_formula_structural       H8Pb2C20N8O8
_chemical_formula_sum              "H8 Pb2 C20 N8 O8"
_cell_length_a       3.96132
_cell_length_b       9.03883
_cell_length_c       14.4952
_cell_angle_alpha    90.0009
_cell_angle_beta     90.0012
_cell_angle_gamma    90

_space_group_name_H-M_alt    "P 1"
_space_group_IT_number       1

loop_
  _space_group_symop_operation_xyz
  'x, y, z'

loop_
  _atom_site_type_symbol
  _atom_site_label
  _atom_site_symmetry_multiplicity
  _atom_site_fract_x
  _atom_site_fract_y
  _atom_site_fract_z
  _atom_site_occupancy
  H   H1        1.0  0.55550  0.89057  0.78391  1.0000
  H   H2        1.0  0.44441  0.39055  0.71609  1.0000
  H   H3        1.0  0.44449  0.39059  0.28392  1.0000
  H   H4        1.0  0.55557  0.89058  0.21607  1.0000
  H   H5        1.0  0.15846  0.30231  0.92370  1.0000
  H   H6        1.0  0.84173  0.80241  0.57631  1.0000
  H   H7        1.0  0.84154  0.80236  0.42370  1.0000
  H   H8        1.0  0.15832  0.30235  0.07628  1.0000
  Pb  Pb1       1.0  0.66986  0.72223  0.00001  1.0000
  Pb  Pb2       1.0  0.33016  0.22224  0.49999  1.0000
  C   C1        1.0  0.68196  0.98343  0.81667  1.0000
  C   C2        1.0  0.31795  0.48343  0.68332  1.0000
  C   C3        1.0  0.31798  0.48344  0.31670  1.0000
  C   C4        1.0  0.68206  0.98343  0.18331  1.0000
  C   C5        1.0  0.79933  0.10284  0.76394  1.0000
  C   C6        1.0  0.20071  0.60291  0.73606  1.0000
  C   C7        1.0  0.20066  0.60293  0.26396  1.0000
  C   C8        1.0  0.79935  0.10286  0.23604  1.0000
  C   C9        1.0  0.87216  0.09790  0.94901  1.0000
  C   C10       1.0  0.12795  0.59797  0.55099  1.0000
  C   C11       1.0  0.12795  0.59795  0.44902  1.0000
  C   C12       1.0  0.87212  0.09792  0.05097  1.0000
  C   C13       1.0  0.01294  0.21097  0.89436  1.0000
  C   C14       1.0  0.98716  0.71104  0.60563  1.0000
  C   C15       1.0  0.98706  0.71102  0.39439  1.0000
  C   C16       1.0  0.01287  0.21099  0.10562  1.0000
  C   C17       1.0  0.71026  0.11103  0.66287  1.0000
  C   C18       1.0  0.28984  0.61106  0.83714  1.0000
  C   C19       1.0  0.28980  0.61109  0.16289  1.0000
  C   C20       1.0  0.71021  0.11104  0.33710  1.0000
  N   N1        1.0  0.71560  0.98249  0.90796  1.0000
  N   N2        1.0  0.28430  0.48247  0.59202  1.0000
  N   N3        1.0  0.28431  0.48249  0.40801  1.0000
  N   N4        1.0  0.71564  0.98248  0.09202  1.0000
  N   N5        1.0  0.97466  0.21334  0.80278  1.0000
  N   N6        1.0  0.02534  0.71343  0.69723  1.0000
  N   N7        1.0  0.02527  0.71339  0.30279  1.0000
  N   N8        1.0  0.97462  0.21338  0.19720  1.0000
  O   O1        1.0  0.52187  0.01231  0.62941  1.0000
  O   O2        1.0  0.47817  0.51231  0.87056  1.0000
  O   O3        1.0  0.47819  0.51230  0.12946  1.0000
  O   O4        1.0  0.52189  0.01232  0.37057  1.0000
  O   O5        1.0  0.81509  0.22495  0.61756  1.0000
  O   O6        1.0  0.18480  0.72498  0.88245  1.0000
  O   O7        1.0  0.18479  0.72499  0.11758  1.0000
  O   O8        1.0  0.81511  0.22495  0.38243  1.0000
