data_image0
_chemical_formula_structural       Hg4H12C16N8Cl8
_chemical_formula_sum              "Hg4 H12 C16 N8 Cl8"
_cell_length_a       3.94888
_cell_length_b       9.35294
_cell_length_c       18.9418
_cell_angle_alpha    89.9999
_cell_angle_beta     90.0005
_cell_angle_gamma    101.065

_space_group_name_H-M_alt    "P 1"
_space_group_IT_number       1

loop_
  _space_group_symop_operation_xyz
  'x, y, z'

loop_
  _atom_site_type_symbol
  _atom_site_label
  _atom_site_symmetry_multiplicity
  _atom_site_fract_x
  _atom_site_fract_y
  _atom_site_fract_z
  _atom_site_occupancy
  Hg  Hg1       1.0  0.22258  0.73563  0.86349  1.0000
  Hg  Hg2       1.0  0.27741  0.76437  0.36350  1.0000
  Hg  Hg3       1.0  0.77742  0.26437  0.13651  1.0000
  Hg  Hg4       1.0  0.72259  0.23563  0.63651  1.0000
  H   H1        1.0  0.59919  0.87497  0.02344  1.0000
  H   H2        1.0  0.90083  0.62502  0.52344  1.0000
  H   H3        1.0  0.40080  0.12504  0.97656  1.0000
  H   H4        1.0  0.09918  0.37498  0.47656  1.0000
  H   H5        1.0  0.52854  0.83733  0.15572  1.0000
  H   H6        1.0  0.97147  0.66266  0.65572  1.0000
  H   H7        1.0  0.47145  0.16267  0.84428  1.0000
  H   H8        1.0  0.02853  0.33734  0.34428  1.0000
  H   H9        1.0  0.16339  0.59782  0.19647  1.0000
  H   H10       1.0  0.33662  0.90217  0.69647  1.0000
  H   H11       1.0  0.83661  0.40218  0.80353  1.0000
  H   H12       1.0  0.66339  0.09782  0.30353  1.0000
  C   C1        1.0  0.09192  0.55479  0.02553  1.0000
  C   C2        1.0  0.40810  0.94521  0.52554  1.0000
  C   C3        1.0  0.90809  0.44521  0.97447  1.0000
  C   C4        1.0  0.59192  0.05479  0.47447  1.0000
  C   C5        1.0  0.44070  0.77693  0.04569  1.0000
  C   C6        1.0  0.05932  0.72307  0.54569  1.0000
  C   C7        1.0  0.55928  0.22307  0.95431  1.0000
  C   C8        1.0  0.94068  0.27693  0.45431  1.0000
  C   C9        1.0  0.40414  0.75579  0.11827  1.0000
  C   C10       1.0  0.09586  0.74421  0.61827  1.0000
  C   C11       1.0  0.59583  0.24421  0.88173  1.0000
  C   C12       1.0  0.90414  0.25579  0.38173  1.0000
  C   C13       1.0  0.20435  0.62456  0.14080  1.0000
  C   C14       1.0  0.29565  0.87544  0.64081  1.0000
  C   C15       1.0  0.79565  0.37545  0.85919  1.0000
  C   C16       1.0  0.70436  0.12456  0.35919  1.0000
  N   N1        1.0  0.28379  0.67720  0.99933  1.0000
  N   N2        1.0  0.21623  0.82280  0.49933  1.0000
  N   N3        1.0  0.71622  0.32281  0.00067  1.0000
  N   N4        1.0  0.78377  0.17720  0.50067  1.0000
  N   N5        1.0  0.05287  0.52388  0.09449  1.0000
  N   N6        1.0  0.44713  0.97612  0.59450  1.0000
  N   N7        1.0  0.94714  0.47612  0.90551  1.0000
  N   N8        1.0  0.55287  0.02388  0.40551  1.0000
  Cl  Cl1       1.0  0.91843  0.92304  0.90099  1.0000
  Cl  Cl2       1.0  0.58156  0.57695  0.40099  1.0000
  Cl  Cl3       1.0  0.08156  0.07696  0.09901  1.0000
  Cl  Cl4       1.0  0.41844  0.42304  0.59901  1.0000
  Cl  Cl5       1.0  0.51475  0.63464  0.77033  1.0000
  Cl  Cl6       1.0  0.98523  0.86536  0.27033  1.0000
  Cl  Cl7       1.0  0.48525  0.36536  0.22967  1.0000
  Cl  Cl8       1.0  0.01477  0.13464  0.72967  1.0000
