data_image0
_chemical_formula_structural       Hg8H24C48S16N32
_chemical_formula_sum              "Hg8 H24 C48 S16 N32"
_cell_length_a       10.438
_cell_length_b       11.6652
_cell_length_c       16.0828
_cell_angle_alpha    90
_cell_angle_beta     104.394
_cell_angle_gamma    90

_space_group_name_H-M_alt    "P 1"
_space_group_IT_number       1

loop_
  _space_group_symop_operation_xyz
  'x, y, z'

loop_
  _atom_site_type_symbol
  _atom_site_label
  _atom_site_symmetry_multiplicity
  _atom_site_fract_x
  _atom_site_fract_y
  _atom_site_fract_z
  _atom_site_occupancy
  Hg  Hg1       1.0  0.51265  0.21736  0.99750  1.0000
  Hg  Hg2       1.0  0.48735  0.71736  0.50250  1.0000
  Hg  Hg3       1.0  0.48734  0.78264  0.00250  1.0000
  Hg  Hg4       1.0  0.51265  0.28264  0.49750  1.0000
  Hg  Hg5       1.0  0.15160  0.95947  0.20670  1.0000
  Hg  Hg6       1.0  0.84840  0.45948  0.29330  1.0000
  Hg  Hg7       1.0  0.84840  0.04052  0.79330  1.0000
  Hg  Hg8       1.0  0.15160  0.54053  0.70670  1.0000
  H   H1        1.0  0.61755  0.70066  0.84325  1.0000
  H   H2        1.0  0.38245  0.20066  0.65675  1.0000
  H   H3        1.0  0.38245  0.29934  0.15675  1.0000
  H   H4        1.0  0.61755  0.79934  0.34325  1.0000
  H   H5        1.0  0.69035  0.52061  0.77638  1.0000
  H   H6        1.0  0.30965  0.02061  0.72362  1.0000
  H   H7        1.0  0.30965  0.47939  0.22362  1.0000
  H   H8        1.0  0.69035  0.97939  0.27638  1.0000
  H   H9        1.0  0.64299  0.33099  0.83674  1.0000
  H   H10       1.0  0.35701  0.83099  0.66326  1.0000
  H   H11       1.0  0.35701  0.66901  0.16326  1.0000
  H   H12       1.0  0.64299  0.16901  0.33674  1.0000
  H   H13       1.0  0.02080  0.70878  0.11692  1.0000
  H   H14       1.0  0.97920  0.20878  0.38308  1.0000
  H   H15       1.0  0.97920  0.29122  0.88308  1.0000
  H   H16       1.0  0.02080  0.79122  0.61692  1.0000
  H   H17       1.0  0.90535  0.62098  0.97388  1.0000
  H   H18       1.0  0.09465  0.12098  0.52612  1.0000
  H   H19       1.0  0.09465  0.37902  0.02612  1.0000
  H   H20       1.0  0.90535  0.87902  0.47388  1.0000
  H   H21       1.0  0.84833  0.75670  0.84485  1.0000
  H   H22       1.0  0.15167  0.25670  0.65515  1.0000
  H   H23       1.0  0.15167  0.24330  0.15515  1.0000
  H   H24       1.0  0.84833  0.74330  0.34485  1.0000
  C   C1        1.0  0.60572  0.61435  0.86656  1.0000
  C   C2        1.0  0.39428  0.11435  0.63344  1.0000
  C   C3        1.0  0.39428  0.38565  0.13344  1.0000
  C   C4        1.0  0.60572  0.88565  0.36656  1.0000
  C   C5        1.0  0.64418  0.51620  0.82995  1.0000
  C   C6        1.0  0.35582  0.01620  0.67005  1.0000
  C   C7        1.0  0.35582  0.48380  0.17005  1.0000
  C   C8        1.0  0.64418  0.98380  0.32995  1.0000
  C   C9        1.0  0.61731  0.41139  0.86314  1.0000
  C   C10       1.0  0.38269  0.91139  0.63686  1.0000
  C   C11       1.0  0.38269  0.58861  0.13686  1.0000
  C   C12       1.0  0.61730  0.08861  0.36314  1.0000
  C   C13       1.0  0.52971  0.50353  0.96243  1.0000
  C   C14       1.0  0.47028  0.00353  0.53757  1.0000
  C   C15       1.0  0.47028  0.49647  0.03757  1.0000
  C   C16       1.0  0.52971  0.99647  0.46243  1.0000
  C   C17       1.0  0.99109  0.75987  0.05833  1.0000
  C   C18       1.0  0.00891  0.25987  0.44167  1.0000
  C   C19       1.0  0.00891  0.24013  0.94167  1.0000
  C   C20       1.0  0.99109  0.74013  0.55833  1.0000
  C   C21       1.0  0.92893  0.71193  0.97937  1.0000
  C   C22       1.0  0.07107  0.21193  0.52062  1.0000
  C   C23       1.0  0.07107  0.28807  0.02062  1.0000
  C   C24       1.0  0.92893  0.78807  0.47938  1.0000
  C   C25       1.0  0.89646  0.78585  0.90942  1.0000
  C   C26       1.0  0.10354  0.28585  0.59058  1.0000
  C   C27       1.0  0.10354  0.21416  0.09058  1.0000
  C   C28       1.0  0.89646  0.71415  0.40942  1.0000
  C   C29       1.0  0.98395  0.93761  0.99555  1.0000
  C   C30       1.0  0.01605  0.43761  0.50445  1.0000
  C   C31       1.0  0.01605  0.06239  0.00445  1.0000
  C   C32       1.0  0.98395  0.56239  0.49555  1.0000
  C   C33       1.0  0.75945  0.19294  0.16086  1.0000
  C   C34       1.0  0.24055  0.69294  0.33914  1.0000
  C   C35       1.0  0.24055  0.80705  0.83914  1.0000
  C   C36       1.0  0.75945  0.30705  0.66086  1.0000
  C   C37       1.0  0.28638  0.26376  0.82814  1.0000
  C   C38       1.0  0.71362  0.76376  0.67186  1.0000
  C   C39       1.0  0.71362  0.73624  0.17186  1.0000
  C   C40       1.0  0.28638  0.23624  0.32814  1.0000
  C   C41       1.0  0.40564  0.02927  0.14328  1.0000
  C   C42       1.0  0.59436  0.52927  0.35672  1.0000
  C   C43       1.0  0.59436  0.97073  0.85672  1.0000
  C   C44       1.0  0.40564  0.47073  0.64328  1.0000
  C   C45       1.0  0.09715  0.97102  0.38766  1.0000
  C   C46       1.0  0.90285  0.47102  0.11234  1.0000
  C   C47       1.0  0.90285  0.02898  0.61234  1.0000
  C   C48       1.0  0.09715  0.52898  0.88766  1.0000
  S   S1        1.0  0.74331  0.15425  0.05959  1.0000
  S   S2        1.0  0.25669  0.65425  0.44041  1.0000
  S   S3        1.0  0.25669  0.84575  0.94041  1.0000
  S   S4        1.0  0.74331  0.34575  0.55959  1.0000
  S   S5        1.0  0.31001  0.14872  0.89040  1.0000
  S   S6        1.0  0.68999  0.64872  0.60960  1.0000
  S   S7        1.0  0.68999  0.85128  0.10960  1.0000
  S   S8        1.0  0.31001  0.35128  0.39040  1.0000
  S   S9        1.0  0.36500  0.90361  0.17641  1.0000
  S   S10       1.0  0.63500  0.40361  0.32359  1.0000
  S   S11       1.0  0.63500  0.09639  0.82359  1.0000
  S   S12       1.0  0.36500  0.59639  0.67641  1.0000
  S   S13       1.0  0.98858  0.96245  0.29269  1.0000
  S   S14       1.0  0.01142  0.46245  0.20731  1.0000
  S   S15       1.0  0.01142  0.03755  0.70731  1.0000
  S   S16       1.0  0.98858  0.53755  0.79269  1.0000
  N   N1        1.0  0.55007  0.60795  0.93305  1.0000
  N   N2        1.0  0.44992  0.10795  0.56695  1.0000
  N   N3        1.0  0.44992  0.39205  0.06695  1.0000
  N   N4        1.0  0.55008  0.89205  0.43305  1.0000
  N   N5        1.0  0.55875  0.40539  0.92824  1.0000
  N   N6        1.0  0.44125  0.90539  0.57176  1.0000
  N   N7        1.0  0.44125  0.59461  0.07176  1.0000
  N   N8        1.0  0.55875  0.09461  0.42824  1.0000
  N   N9        1.0  0.01853  0.87219  0.06606  1.0000
  N   N10       1.0  0.98147  0.37219  0.43394  1.0000
  N   N11       1.0  0.98147  0.12781  0.93394  1.0000
  N   N12       1.0  0.01853  0.62781  0.56606  1.0000
  N   N13       1.0  0.92310  0.89827  0.91745  1.0000
  N   N14       1.0  0.07690  0.39828  0.58255  1.0000
  N   N15       1.0  0.07690  0.10173  0.08255  1.0000
  N   N16       1.0  0.92310  0.60173  0.41745  1.0000
  N   N17       1.0  0.77629  0.21858  0.23377  1.0000
  N   N18       1.0  0.22371  0.71858  0.26623  1.0000
  N   N19       1.0  0.22371  0.78142  0.76623  1.0000
  N   N20       1.0  0.77629  0.28142  0.73377  1.0000
  N   N21       1.0  0.26686  0.34245  0.78067  1.0000
  N   N22       1.0  0.73314  0.84245  0.71933  1.0000
  N   N23       1.0  0.73314  0.65755  0.21933  1.0000
  N   N24       1.0  0.26686  0.15755  0.28067  1.0000
  N   N25       1.0  0.43644  0.11926  0.12116  1.0000
  N   N26       1.0  0.56356  0.61926  0.37884  1.0000
  N   N27       1.0  0.56356  0.88074  0.87884  1.0000
  N   N28       1.0  0.43644  0.38074  0.62116  1.0000
  N   N29       1.0  0.16896  0.97820  0.45668  1.0000
  N   N30       1.0  0.83104  0.47820  0.04332  1.0000
  N   N31       1.0  0.83104  0.02180  0.54332  1.0000
  N   N32       1.0  0.16896  0.52180  0.95668  1.0000
