data_image0
_chemical_formula_structural       ZnH22C18N4O6
_chemical_formula_sum              "Zn1 H22 C18 N4 O6"
_cell_length_a       8.69554
_cell_length_b       9.33954
_cell_length_c       9.33956
_cell_angle_alpha    88.6736
_cell_angle_beta     64.3963
_cell_angle_gamma    64.3955

_space_group_name_H-M_alt    "P 1"
_space_group_IT_number       1

loop_
  _space_group_symop_operation_xyz
  'x, y, z'

loop_
  _atom_site_type_symbol
  _atom_site_label
  _atom_site_symmetry_multiplicity
  _atom_site_fract_x
  _atom_site_fract_y
  _atom_site_fract_z
  _atom_site_occupancy
  Zn  Zn1       1.0  0.00000  0.66110  0.33890  1.0000
  H   H1        1.0  0.28415  0.17562  0.53055  1.0000
  H   H2        1.0  0.71586  0.46945  0.82438  1.0000
  H   H3        1.0  0.99168  0.55879  0.60448  1.0000
  H   H4        1.0  0.00832  0.39552  0.44120  1.0000
  H   H5        1.0  0.24148  0.68482  0.01545  1.0000
  H   H6        1.0  0.75850  0.98457  0.31518  1.0000
  H   H7        1.0  0.23727  0.75687  0.75547  1.0000
  H   H8        1.0  0.76273  0.24454  0.24313  1.0000
  H   H9        1.0  0.69961  0.73730  0.93385  1.0000
  H   H10       1.0  0.30039  0.06615  0.26271  1.0000
  H   H11       1.0  0.71884  0.67854  0.18915  1.0000
  H   H12       1.0  0.28115  0.81085  0.32146  1.0000
  H   H13       1.0  0.82148  0.84793  0.67963  1.0000
  H   H14       1.0  0.17852  0.32037  0.15207  1.0000
  H   H15       1.0  0.04821  0.84659  0.60715  1.0000
  H   H16       1.0  0.95180  0.39285  0.15340  1.0000
  H   H17       1.0  0.32621  0.59423  0.52767  1.0000
  H   H18       1.0  0.67380  0.47233  0.40577  1.0000
  H   H19       1.0  0.48244  0.29954  0.49469  1.0000
  H   H20       1.0  0.51757  0.50532  0.70045  1.0000
  H   H21       1.0  0.25589  0.39261  0.67647  1.0000
  H   H22       1.0  0.74412  0.32353  0.60739  1.0000
  C   C1        1.0  0.12360  0.69949  0.99190  1.0000
  C   C2        1.0  0.87639  0.00811  0.30051  1.0000
  C   C3        1.0  0.12098  0.73793  0.84824  1.0000
  C   C4        1.0  0.87902  0.15176  0.26206  1.0000
  C   C5        1.0  0.96839  0.75073  0.82306  1.0000
  C   C6        1.0  0.03161  0.17694  0.24926  1.0000
  C   C7        1.0  0.82164  0.72826  0.94763  1.0000
  C   C8        1.0  0.17836  0.05237  0.27174  1.0000
  C   C9        1.0  0.83288  0.69415  0.08966  1.0000
  C   C10       1.0  0.16710  0.91034  0.30586  1.0000
  C   C11       1.0  0.96919  0.77853  0.66319  1.0000
  C   C12       1.0  0.03081  0.33681  0.22147  1.0000
  C   C13       1.0  0.27241  0.52662  0.48406  1.0000
  C   C14       1.0  0.72760  0.51595  0.47338  1.0000
  C   C15       1.0  0.38675  0.49679  0.29531  1.0000
  C   C16       1.0  0.61325  0.70470  0.50321  1.0000
  C   C17       1.0  0.32479  0.36704  0.54272  1.0000
  C   C18       1.0  0.67522  0.45728  0.63295  1.0000
  N   N1        1.0  0.98227  0.67836  0.11147  1.0000
  N   N2        1.0  0.01771  0.88854  0.32164  1.0000
  N   N3        1.0  0.06113  0.62474  0.54787  1.0000
  N   N4        1.0  0.93887  0.45213  0.37525  1.0000
  O   O1        1.0  0.29479  0.52328  0.21313  1.0000
  O   O2        1.0  0.70520  0.78687  0.47673  1.0000
  O   O3        1.0  0.56431  0.45058  0.23573  1.0000
  O   O4        1.0  0.43568  0.76427  0.54942  1.0000
  O   O5        1.0  0.25694  0.27462  0.48736  1.0000
  O   O6        1.0  0.74307  0.51264  0.72537  1.0000
