data_image0
_chemical_formula_structural       Zn4H48C64N8O16
_chemical_formula_sum              "Zn4 H48 C64 N8 O16"
_cell_length_a       7.40727
_cell_length_b       7.40733
_cell_length_c       29.262
_cell_angle_alpha    90
_cell_angle_beta     90
_cell_angle_gamma    90

_space_group_name_H-M_alt    "P 1"
_space_group_IT_number       1

loop_
  _space_group_symop_operation_xyz
  'x, y, z'

loop_
  _atom_site_type_symbol
  _atom_site_label
  _atom_site_symmetry_multiplicity
  _atom_site_fract_x
  _atom_site_fract_y
  _atom_site_fract_z
  _atom_site_occupancy
  Zn  Zn1       1.0  0.74297  0.68662  0.69157  1.0000
  Zn  Zn2       1.0  0.25703  0.31338  0.19157  1.0000
  Zn  Zn3       1.0  0.31338  0.74297  0.44157  1.0000
  Zn  Zn4       1.0  0.68662  0.25703  0.94157  1.0000
  H   H1        1.0  0.27883  0.01974  0.74610  1.0000
  H   H2        1.0  0.72116  0.98026  0.24610  1.0000
  H   H3        1.0  0.98026  0.27883  0.49610  1.0000
  H   H4        1.0  0.01973  0.72117  0.99610  1.0000
  H   H5        1.0  0.10266  0.46712  0.73544  1.0000
  H   H6        1.0  0.89734  0.53288  0.23544  1.0000
  H   H7        1.0  0.53288  0.10266  0.48544  1.0000
  H   H8        1.0  0.46712  0.89734  0.98544  1.0000
  H   H9        1.0  0.47645  0.55435  0.84717  1.0000
  H   H10       1.0  0.52355  0.44565  0.34717  1.0000
  H   H11       1.0  0.44565  0.47645  0.59717  1.0000
  H   H12       1.0  0.55434  0.52355  0.09717  1.0000
  H   H13       1.0  0.38003  0.08453  0.82366  1.0000
  H   H14       1.0  0.61997  0.91547  0.32366  1.0000
  H   H15       1.0  0.91547  0.38003  0.57366  1.0000
  H   H16       1.0  0.08453  0.61997  0.07366  1.0000
  H   H17       1.0  0.94820  0.32174  0.78197  1.0000
  H   H18       1.0  0.05180  0.67826  0.28197  1.0000
  H   H19       1.0  0.67826  0.94820  0.53197  1.0000
  H   H20       1.0  0.32174  0.05180  0.03197  1.0000
  H   H21       1.0  0.00460  0.89161  0.81838  1.0000
  H   H22       1.0  0.99540  0.10839  0.31838  1.0000
  H   H23       1.0  0.10839  0.00460  0.56838  1.0000
  H   H24       1.0  0.89161  0.99540  0.06838  1.0000
  H   H25       1.0  0.70485  0.64685  0.78927  1.0000
  H   H26       1.0  0.29515  0.35315  0.28927  1.0000
  H   H27       1.0  0.35315  0.70485  0.53927  1.0000
  H   H28       1.0  0.64684  0.29515  0.03927  1.0000
  H   H29       1.0  0.72844  0.23355  0.84244  1.0000
  H   H30       1.0  0.27156  0.76645  0.34244  1.0000
  H   H31       1.0  0.76645  0.72844  0.59244  1.0000
  H   H32       1.0  0.23355  0.27156  0.09244  1.0000
  H   H33       1.0  0.34683  0.56005  0.68276  1.0000
  H   H34       1.0  0.65317  0.43995  0.18276  1.0000
  H   H35       1.0  0.43995  0.34683  0.43276  1.0000
  H   H36       1.0  0.56005  0.65317  0.93276  1.0000
  H   H37       1.0  0.24510  0.60783  0.88725  1.0000
  H   H38       1.0  0.75490  0.39217  0.38725  1.0000
  H   H39       1.0  0.39217  0.24510  0.63725  1.0000
  H   H40       1.0  0.60783  0.75490  0.13725  1.0000
  H   H41       1.0  0.10273  0.98094  0.89811  1.0000
  H   H42       1.0  0.89727  0.01906  0.39811  1.0000
  H   H43       1.0  0.01905  0.10273  0.64811  1.0000
  H   H44       1.0  0.98095  0.89727  0.14811  1.0000
  H   H45       1.0  0.01341  0.50673  0.94252  1.0000
  H   H46       1.0  0.98659  0.49327  0.44252  1.0000
  H   H47       1.0  0.49327  0.01341  0.69252  1.0000
  H   H48       1.0  0.50673  0.98659  0.19252  1.0000
  C   C1        1.0  0.03891  0.87129  0.72473  1.0000
  C   C2        1.0  0.96108  0.12871  0.22473  1.0000
  C   C3        1.0  0.12871  0.03891  0.47473  1.0000
  C   C4        1.0  0.87129  0.96109  0.97473  1.0000
  C   C5        1.0  0.15664  0.95667  0.75951  1.0000
  C   C6        1.0  0.84336  0.04333  0.25951  1.0000
  C   C7        1.0  0.04333  0.15664  0.50951  1.0000
  C   C8        1.0  0.95667  0.84337  0.00951  1.0000
  C   C9        1.0  0.23399  0.50487  0.74930  1.0000
  C   C10       1.0  0.76601  0.49513  0.24930  1.0000
  C   C11       1.0  0.49513  0.23399  0.49930  1.0000
  C   C12       1.0  0.50487  0.76601  0.99930  1.0000
  C   C13       1.0  0.35780  0.11585  0.91510  1.0000
  C   C14       1.0  0.64220  0.88415  0.41510  1.0000
  C   C15       1.0  0.88415  0.35780  0.66510  1.0000
  C   C16       1.0  0.11585  0.64220  0.16510  1.0000
  C   C17       1.0  0.44001  0.55682  0.81116  1.0000
  C   C18       1.0  0.55999  0.44318  0.31116  1.0000
  C   C19       1.0  0.44318  0.44001  0.56116  1.0000
  C   C20       1.0  0.55682  0.55998  0.06116  1.0000
  C   C21       1.0  0.12216  0.46681  0.82976  1.0000
  C   C22       1.0  0.87784  0.53318  0.32976  1.0000
  C   C23       1.0  0.53318  0.12216  0.57976  1.0000
  C   C24       1.0  0.46682  0.87784  0.07976  1.0000
  C   C25       1.0  0.25468  0.02793  0.83732  1.0000
  C   C26       1.0  0.74532  0.97207  0.33731  1.0000
  C   C27       1.0  0.97207  0.25468  0.58731  1.0000
  C   C28       1.0  0.02793  0.74533  0.08731  1.0000
  C   C29       1.0  0.96949  0.36609  0.81706  1.0000
  C   C30       1.0  0.03051  0.63391  0.31706  1.0000
  C   C31       1.0  0.63391  0.96949  0.56706  1.0000
  C   C32       1.0  0.36609  0.03051  0.06706  1.0000
  C   C33       1.0  0.26579  0.50951  0.79655  1.0000
  C   C34       1.0  0.73421  0.49049  0.29655  1.0000
  C   C35       1.0  0.49049  0.26579  0.54655  1.0000
  C   C36       1.0  0.50951  0.73421  0.04655  1.0000
  C   C37       1.0  0.12820  0.95308  0.80513  1.0000
  C   C38       1.0  0.87180  0.04691  0.30512  1.0000
  C   C39       1.0  0.04691  0.12820  0.55513  1.0000
  C   C40       1.0  0.95308  0.87180  0.05513  1.0000
  C   C41       1.0  0.56943  0.60550  0.77929  1.0000
  C   C42       1.0  0.43056  0.39451  0.27929  1.0000
  C   C43       1.0  0.39451  0.56943  0.52929  1.0000
  C   C44       1.0  0.60549  0.43057  0.02929  1.0000
  C   C45       1.0  0.84585  0.31639  0.85035  1.0000
  C   C46       1.0  0.15415  0.68361  0.35035  1.0000
  C   C47       1.0  0.68361  0.84585  0.60035  1.0000
  C   C48       1.0  0.31639  0.15415  0.10035  1.0000
  C   C49       1.0  0.37085  0.55550  0.71951  1.0000
  C   C50       1.0  0.62915  0.44450  0.21951  1.0000
  C   C51       1.0  0.44450  0.37085  0.46951  1.0000
  C   C52       1.0  0.55550  0.62915  0.96951  1.0000
  C   C53       1.0  0.13533  0.52190  0.87553  1.0000
  C   C54       1.0  0.86467  0.47810  0.37553  1.0000
  C   C55       1.0  0.47810  0.13533  0.62553  1.0000
  C   C56       1.0  0.52190  0.86467  0.12553  1.0000
  C   C57       1.0  0.22646  0.03456  0.88294  1.0000
  C   C58       1.0  0.77354  0.96544  0.38294  1.0000
  C   C59       1.0  0.96544  0.22646  0.63294  1.0000
  C   C60       1.0  0.03456  0.77355  0.13294  1.0000
  C   C61       1.0  0.00522  0.46769  0.90670  1.0000
  C   C62       1.0  0.99478  0.53231  0.40670  1.0000
  C   C63       1.0  0.53231  0.00522  0.65670  1.0000
  C   C64       1.0  0.46769  0.99478  0.15670  1.0000
  N   N1        1.0  0.53545  0.60726  0.73399  1.0000
  N   N2        1.0  0.46455  0.39274  0.23399  1.0000
  N   N3        1.0  0.39274  0.53544  0.48399  1.0000
  N   N4        1.0  0.60726  0.46455  0.98399  1.0000
  N   N5        1.0  0.86399  0.36382  0.89466  1.0000
  N   N6        1.0  0.13602  0.63617  0.39466  1.0000
  N   N7        1.0  0.63618  0.86399  0.64466  1.0000
  N   N8        1.0  0.36382  0.13601  0.14466  1.0000
  O   O1        1.0  0.09303  0.86001  0.68421  1.0000
  O   O2        1.0  0.90696  0.13999  0.18421  1.0000
  O   O3        1.0  0.13999  0.09303  0.43421  1.0000
  O   O4        1.0  0.86001  0.90697  0.93421  1.0000
  O   O5        1.0  0.50329  0.18536  0.89711  1.0000
  O   O6        1.0  0.49671  0.81464  0.39711  1.0000
  O   O7        1.0  0.81464  0.50329  0.64710  1.0000
  O   O8        1.0  0.18536  0.49671  0.14710  1.0000
  O   O9        1.0  0.32630  0.11364  0.95730  1.0000
  O   O10       1.0  0.67370  0.88637  0.45730  1.0000
  O   O11       1.0  0.88636  0.32630  0.70730  1.0000
  O   O12       1.0  0.11365  0.67370  0.20730  1.0000
  O   O13       1.0  0.88549  0.80613  0.73925  1.0000
  O   O14       1.0  0.11450  0.19387  0.23925  1.0000
  O   O15       1.0  0.19386  0.88549  0.48925  1.0000
  O   O16       1.0  0.80614  0.11451  0.98925  1.0000
