data_image0
_chemical_formula_structural       Zn2H16C20N12O8
_chemical_formula_sum              "Zn2 H16 C20 N12 O8"
_cell_length_a       7.32331
_cell_length_b       9.67303
_cell_length_c       9.8239
_cell_angle_alpha    62.1182
_cell_angle_beta     79.6441
_cell_angle_gamma    71.1018

_space_group_name_H-M_alt    "P 1"
_space_group_IT_number       1

loop_
  _space_group_symop_operation_xyz
  'x, y, z'

loop_
  _atom_site_type_symbol
  _atom_site_label
  _atom_site_symmetry_multiplicity
  _atom_site_fract_x
  _atom_site_fract_y
  _atom_site_fract_z
  _atom_site_occupancy
  Zn  Zn1       1.0  0.24293  0.49339  0.08577  1.0000
  Zn  Zn2       1.0  0.75706  0.50661  0.91423  1.0000
  H   H1        1.0  0.86273  0.17449  0.42006  1.0000
  H   H2        1.0  0.13726  0.82551  0.57994  1.0000
  H   H3        1.0  0.07849  0.40547  0.41671  1.0000
  H   H4        1.0  0.92151  0.59453  0.58329  1.0000
  H   H5        1.0  0.12134  0.86242  0.91445  1.0000
  H   H6        1.0  0.87867  0.13758  0.08555  1.0000
  H   H7        1.0  0.16887  0.33986  0.67927  1.0000
  H   H8        1.0  0.83112  0.66014  0.32073  1.0000
  H   H9        1.0  0.46557  0.67438  0.41212  1.0000
  H   H10       1.0  0.53443  0.32563  0.58788  1.0000
  H   H11       1.0  0.30825  0.91313  0.08325  1.0000
  H   H12       1.0  0.69175  0.08687  0.91675  1.0000
  H   H13       1.0  0.47101  0.17842  0.38641  1.0000
  H   H14       1.0  0.52899  0.82158  0.61359  1.0000
  H   H15       1.0  0.25380  0.20238  0.00318  1.0000
  H   H16       1.0  0.74620  0.79762  0.99682  1.0000
  C   C1        1.0  0.88051  0.40104  0.21454  1.0000
  C   C2        1.0  0.11949  0.59896  0.78546  1.0000
  C   C3        1.0  0.91704  0.28041  0.37591  1.0000
  C   C4        1.0  0.08295  0.71959  0.62409  1.0000
  C   C5        1.0  0.02004  0.30126  0.46169  1.0000
  C   C6        1.0  0.97995  0.69874  0.53831  1.0000
  C   C7        1.0  0.11259  0.98500  0.82569  1.0000
  C   C8        1.0  0.88741  0.01500  0.17431  1.0000
  C   C9        1.0  0.14073  0.22483  0.71192  1.0000
  C   C10       1.0  0.85926  0.77517  0.28807  1.0000
  C   C11       1.0  0.36581  0.59481  0.26758  1.0000
  C   C12       1.0  0.63418  0.40520  0.73242  1.0000
  C   C13       1.0  0.41099  0.71628  0.29905  1.0000
  C   C14       1.0  0.58902  0.28372  0.70095  1.0000
  C   C15       1.0  0.36691  0.87259  0.19432  1.0000
  C   C16       1.0  0.63309  0.12741  0.80568  1.0000
  C   C17       1.0  0.43014  0.14286  0.30907  1.0000
  C   C18       1.0  0.56987  0.85714  0.69094  1.0000
  C   C19       1.0  0.31918  0.16139  0.11131  1.0000
  C   C20       1.0  0.68083  0.83861  0.88869  1.0000
  N   N1        1.0  0.07057  0.19329  0.61281  1.0000
  N   N2        1.0  0.92943  0.80671  0.38719  1.0000
  N   N3        1.0  0.05265  0.03805  0.68567  1.0000
  N   N4        1.0  0.94735  0.96195  0.31433  1.0000
  N   N5        1.0  0.16657  0.09640  0.84787  1.0000
  N   N6        1.0  0.83344  0.90360  0.15213  1.0000
  N   N7        1.0  0.38048  0.00343  0.21339  1.0000
  N   N8        1.0  0.61953  0.99657  0.78660  1.0000
  N   N9        1.0  0.45049  0.99012  0.34042  1.0000
  N   N10       1.0  0.54952  0.00988  0.65958  1.0000
  N   N11       1.0  0.34881  0.25243  0.16904  1.0000
  N   N12       1.0  0.65119  0.74757  0.83096  1.0000
  O   O1        1.0  0.76902  0.38097  0.14277  1.0000
  O   O2        1.0  0.23098  0.61903  0.85724  1.0000
  O   O3        1.0  0.95788  0.52001  0.15086  1.0000
  O   O4        1.0  0.04212  0.47999  0.84914  1.0000
  O   O5        1.0  0.33132  0.63968  0.12502  1.0000
  O   O6        1.0  0.66867  0.36032  0.87498  1.0000
  O   O7        1.0  0.35679  0.46042  0.37707  1.0000
  O   O8        1.0  0.64320  0.53958  0.62293  1.0000
