data_image0
_chemical_formula_structural       CuH18C12Br2N6O4
_chemical_formula_sum              "Cu1 H18 C12 Br2 N6 O4"
_cell_length_a       3.99589
_cell_length_b       6.69063
_cell_length_c       16.9154
_cell_angle_alpha    97.8212
_cell_angle_beta     97.3312
_cell_angle_gamma    97.4383

_space_group_name_H-M_alt    "P 1"
_space_group_IT_number       1

loop_
  _space_group_symop_operation_xyz
  'x, y, z'

loop_
  _atom_site_type_symbol
  _atom_site_label
  _atom_site_symmetry_multiplicity
  _atom_site_fract_x
  _atom_site_fract_y
  _atom_site_fract_z
  _atom_site_occupancy
  Cu  Cu1       1.0  0.50001  0.50000  0.50000  1.0000
  H   H1        1.0  0.25687  0.86532  0.42899  1.0000
  H   H2        1.0  0.74317  0.13469  0.57102  1.0000
  H   H3        1.0  0.26277  0.97235  0.21645  1.0000
  H   H4        1.0  0.73721  0.02766  0.78355  1.0000
  H   H5        1.0  0.15219  0.07785  0.30948  1.0000
  H   H6        1.0  0.84781  0.92215  0.69052  1.0000
  H   H7        1.0  0.48272  0.38323  0.04156  1.0000
  H   H8        1.0  0.51726  0.61676  0.95844  1.0000
  H   H9        1.0  0.90714  0.51510  0.06849  1.0000
  H   H10       1.0  0.09284  0.48489  0.93151  1.0000
  H   H11       1.0  0.67146  0.06479  0.08525  1.0000
  H   H12       1.0  0.32852  0.93519  0.91475  1.0000
  H   H13       1.0  0.09609  0.19634  0.11322  1.0000
  H   H14       1.0  0.90391  0.80365  0.88678  1.0000
  H   H15       1.0  0.90345  0.15058  0.01023  1.0000
  H   H16       1.0  0.09654  0.84942  0.98977  1.0000
  H   H17       1.0  0.64766  0.37558  0.32289  1.0000
  H   H18       1.0  0.35236  0.62442  0.67711  1.0000
  C   C1        1.0  0.54854  0.51937  0.32745  1.0000
  C   C2        1.0  0.45147  0.48064  0.67255  1.0000
  C   C3        1.0  0.49435  0.64604  0.26838  1.0000
  C   C4        1.0  0.50565  0.35396  0.73163  1.0000
  C   C5        1.0  0.36604  0.81498  0.30727  1.0000
  C   C6        1.0  0.63397  0.18502  0.69273  1.0000
  C   C7        1.0  0.54338  0.61547  0.18476  1.0000
  C   C8        1.0  0.45661  0.38455  0.81523  1.0000
  C   C9        1.0  0.72440  0.39063  0.08143  1.0000
  C   C10       1.0  0.27559  0.60937  0.91857  1.0000
  C   C11       1.0  0.85591  0.18848  0.07258  1.0000
  C   C12       1.0  0.14407  0.81151  0.92742  1.0000
  Br  Br1       1.0  0.00961  0.22077  0.44455  1.0000
  Br  Br2       1.0  0.99039  0.77923  0.55545  1.0000
  N   N1        1.0  0.46313  0.60091  0.39670  1.0000
  N   N2        1.0  0.53689  0.39909  0.60330  1.0000
  N   N3        1.0  0.35396  0.78211  0.38424  1.0000
  N   N4        1.0  0.64606  0.21790  0.61577  1.0000
  N   N5        1.0  0.27954  0.98064  0.27728  1.0000
  N   N6        1.0  0.72046  0.01936  0.72273  1.0000
  O   O1        1.0  0.47685  0.73357  0.13655  1.0000
  O   O2        1.0  0.52316  0.26641  0.86345  1.0000
  O   O3        1.0  0.66839  0.43908  0.16476  1.0000
  O   O4        1.0  0.33160  0.56091  0.83524  1.0000
