data_image0
_chemical_formula_structural       MnH22C24N14O6
_chemical_formula_sum              "Mn1 H22 C24 N14 O6"
_cell_length_a       7.39649
_cell_length_b       9.34481
_cell_length_c       11.7097
_cell_angle_alpha    74.262
_cell_angle_beta     68.5405
_cell_angle_gamma    76.5718

_space_group_name_H-M_alt    "P 1"
_space_group_IT_number       1

loop_
  _space_group_symop_operation_xyz
  'x, y, z'

loop_
  _atom_site_type_symbol
  _atom_site_label
  _atom_site_symmetry_multiplicity
  _atom_site_fract_x
  _atom_site_fract_y
  _atom_site_fract_z
  _atom_site_occupancy
  Mn  Mn1       1.0  0.50000  0.50000  0.00000  1.0000
  H   H1        1.0  0.15716  0.61488  0.15790  1.0000
  H   H2        1.0  0.84284  0.38512  0.84210  1.0000
  H   H3        1.0  0.08285  0.62589  0.04613  1.0000
  H   H4        1.0  0.91714  0.37411  0.95387  1.0000
  H   H5        1.0  0.93305  0.20377  0.15397  1.0000
  H   H6        1.0  0.06695  0.79623  0.84604  1.0000
  H   H7        1.0  0.12652  0.06652  0.08519  1.0000
  H   H8        1.0  0.87347  0.93347  0.91481  1.0000
  H   H9        1.0  0.98502  0.35977  0.49585  1.0000
  H   H10       1.0  0.01498  0.64023  0.50415  1.0000
  H   H11       1.0  0.16413  0.26301  0.80991  1.0000
  H   H12       1.0  0.83587  0.73700  0.19009  1.0000
  H   H13       1.0  0.33084  0.00872  0.76465  1.0000
  H   H14       1.0  0.66914  0.99128  0.23536  1.0000
  H   H15       1.0  0.57045  0.25134  0.24979  1.0000
  H   H16       1.0  0.42955  0.74866  0.75021  1.0000
  H   H17       1.0  0.59125  0.25108  0.45431  1.0000
  H   H18       1.0  0.40876  0.74892  0.54569  1.0000
  H   H19       1.0  0.40426  0.73386  0.37995  1.0000
  H   H20       1.0  0.59575  0.26613  0.62005  1.0000
  H   H21       1.0  0.41058  0.71353  0.17396  1.0000
  H   H22       1.0  0.58942  0.28647  0.82604  1.0000
  C   C1        1.0  0.20824  0.28927  0.04153  1.0000
  C   C2        1.0  0.79176  0.71072  0.95847  1.0000
  C   C3        1.0  0.09078  0.16255  0.13072  1.0000
  C   C4        1.0  0.90922  0.83745  0.86928  1.0000
  C   C5        1.0  0.17436  0.10121  0.41413  1.0000
  C   C6        1.0  0.82563  0.89878  0.58588  1.0000
  C   C7        1.0  0.16464  0.14242  0.52819  1.0000
  C   C8        1.0  0.83536  0.85758  0.47180  1.0000
  C   C9        1.0  0.06302  0.28230  0.55682  1.0000
  C   C10       1.0  0.93699  0.71771  0.44318  1.0000
  C   C11       1.0  0.15962  0.22748  0.72969  1.0000
  C   C12       1.0  0.84039  0.77253  0.27031  1.0000
  C   C13       1.0  0.25459  0.08699  0.70309  1.0000
  C   C14       1.0  0.74542  0.91302  0.29691  1.0000
  C   C15       1.0  0.53836  0.35695  0.28123  1.0000
  C   C16       1.0  0.46164  0.64305  0.71877  1.0000
  C   C17       1.0  0.54726  0.35790  0.39782  1.0000
  C   C18       1.0  0.45275  0.64210  0.60218  1.0000
  C   C19       1.0  0.49841  0.49481  0.43832  1.0000
  C   C20       1.0  0.50160  0.50519  0.56168  1.0000
  C   C21       1.0  0.44539  0.62367  0.35580  1.0000
  C   C22       1.0  0.55462  0.37633  0.64420  1.0000
  C   C23       1.0  0.44605  0.61276  0.23979  1.0000
  C   C24       1.0  0.55395  0.38724  0.76021  1.0000
  N   N1        1.0  0.08412  0.18847  0.33306  1.0000
  N   N2        1.0  0.91587  0.81153  0.66694  1.0000
  N   N3        1.0  0.13800  0.10809  0.24557  1.0000
  N   N4        1.0  0.86200  0.89191  0.75443  1.0000
  N   N5        1.0  0.25544  0.97899  0.26739  1.0000
  N   N6        1.0  0.74456  0.02101  0.73261  1.0000
  N   N7        1.0  0.27885  0.97275  0.37501  1.0000
  N   N8        1.0  0.72115  0.02725  0.62499  1.0000
  N   N9        1.0  0.25713  0.04254  0.60323  1.0000
  N   N10       1.0  0.74286  0.95747  0.39677  1.0000
  N   N11       1.0  0.05888  0.32443  0.65823  1.0000
  N   N12       1.0  0.94113  0.67558  0.34176  1.0000
  N   N13       1.0  0.49030  0.48158  0.20178  1.0000
  N   N14       1.0  0.50970  0.51842  0.79822  1.0000
  O   O1        1.0  0.36297  0.29928  0.06030  1.0000
  O   O2        1.0  0.63703  0.70071  0.93970  1.0000
  O   O3        1.0  0.14012  0.36868  0.95682  1.0000
  O   O4        1.0  0.85987  0.63131  0.04318  1.0000
  O   O5        1.0  0.20199  0.63246  0.06619  1.0000
  O   O6        1.0  0.79801  0.36753  0.93381  1.0000
