data_image0
_chemical_formula_structural       Fe2H32C48N20
_chemical_formula_sum              "Fe2 H32 C48 N20"
_cell_length_a       8.78819
_cell_length_b       9.02847
_cell_length_c       14.4118
_cell_angle_alpha    90
_cell_angle_beta     90
_cell_angle_gamma    104.673

_space_group_name_H-M_alt    "P 1"
_space_group_IT_number       1

loop_
  _space_group_symop_operation_xyz
  'x, y, z'

loop_
  _atom_site_type_symbol
  _atom_site_label
  _atom_site_symmetry_multiplicity
  _atom_site_fract_x
  _atom_site_fract_y
  _atom_site_fract_z
  _atom_site_occupancy
  Fe  Fe1       1.0  0.50000  0.00000  1.00000  1.0000
  Fe  Fe2       1.0  0.00000  0.50000  0.50000  1.0000
  H   H1        1.0  0.07170  0.26777  0.98267  1.0000
  H   H2        1.0  0.42830  0.23223  0.48267  1.0000
  H   H3        1.0  0.92830  0.73223  0.01733  1.0000
  H   H4        1.0  0.57170  0.76777  0.51733  1.0000
  H   H5        1.0  0.07368  0.45979  0.10976  1.0000
  H   H6        1.0  0.42633  0.04021  0.60976  1.0000
  H   H7        1.0  0.92632  0.54021  0.89024  1.0000
  H   H8        1.0  0.57368  0.95979  0.39024  1.0000
  H   H9        1.0  0.81815  0.45723  0.18946  1.0000
  H   H10       1.0  0.68185  0.04277  0.68947  1.0000
  H   H11       1.0  0.18185  0.54277  0.81053  1.0000
  H   H12       1.0  0.31815  0.95723  0.31053  1.0000
  H   H13       1.0  0.57317  0.26227  0.14182  1.0000
  H   H14       1.0  0.92683  0.23772  0.64182  1.0000
  H   H15       1.0  0.42682  0.73773  0.85818  1.0000
  H   H16       1.0  0.07317  0.76228  0.35818  1.0000
  H   H17       1.0  0.11287  0.91666  0.75000  1.0000
  H   H18       1.0  0.38713  0.58334  0.25000  1.0000
  H   H19       1.0  0.88713  0.08334  0.25000  1.0000
  H   H20       1.0  0.61287  0.41666  0.75000  1.0000
  H   H21       1.0  0.17680  0.75824  0.62438  1.0000
  H   H22       1.0  0.32319  0.74176  0.12438  1.0000
  H   H23       1.0  0.82320  0.24176  0.37562  1.0000
  H   H24       1.0  0.67681  0.25824  0.87562  1.0000
  H   H25       1.0  0.70181  0.55472  0.57715  1.0000
  H   H26       1.0  0.79819  0.94528  0.07715  1.0000
  H   H27       1.0  0.29819  0.44528  0.42285  1.0000
  H   H28       1.0  0.20181  0.05472  0.92285  1.0000
  H   H29       1.0  0.62196  0.69769  0.69996  1.0000
  H   H30       1.0  0.87804  0.80230  0.19996  1.0000
  H   H31       1.0  0.37804  0.30231  0.30004  1.0000
  H   H32       1.0  0.12196  0.19770  0.80004  1.0000
  C   C1        1.0  0.80421  0.05214  0.92541  1.0000
  C   C2        1.0  0.69578  0.44786  0.42541  1.0000
  C   C3        1.0  0.19579  0.94786  0.07459  1.0000
  C   C4        1.0  0.30422  0.55214  0.57459  1.0000
  C   C5        1.0  0.81138  0.90117  0.81587  1.0000
  C   C6        1.0  0.68862  0.59883  0.31587  1.0000
  C   C7        1.0  0.18862  0.09883  0.18413  1.0000
  C   C8        1.0  0.31138  0.40117  0.68413  1.0000
  C   C9        1.0  0.82360  0.16806  0.99630  1.0000
  C   C10       1.0  0.67640  0.33193  0.49630  1.0000
  C   C11       1.0  0.17640  0.83193  0.00370  1.0000
  C   C12       1.0  0.32360  0.66807  0.50370  1.0000
  C   C13       1.0  0.96488  0.27225  0.01958  1.0000
  C   C14       1.0  0.53511  0.22775  0.51959  1.0000
  C   C15       1.0  0.03511  0.72775  0.98042  1.0000
  C   C16       1.0  0.46489  0.77225  0.48042  1.0000
  C   C17       1.0  0.96479  0.37786  0.08981  1.0000
  C   C18       1.0  0.53521  0.12214  0.58981  1.0000
  C   C19       1.0  0.03520  0.62214  0.91019  1.0000
  C   C20       1.0  0.46479  0.87786  0.41019  1.0000
  C   C21       1.0  0.82314  0.37685  0.13397  1.0000
  C   C22       1.0  0.67686  0.12315  0.63397  1.0000
  C   C23       1.0  0.17685  0.62315  0.86603  1.0000
  C   C24       1.0  0.32314  0.87685  0.36603  1.0000
  C   C25       1.0  0.68607  0.26928  0.10806  1.0000
  C   C26       1.0  0.81393  0.23072  0.60806  1.0000
  C   C27       1.0  0.31393  0.73072  0.89194  1.0000
  C   C28       1.0  0.18607  0.76929  0.39194  1.0000
  C   C29       1.0  0.86061  0.82036  0.73898  1.0000
  C   C30       1.0  0.63939  0.67964  0.23898  1.0000
  C   C31       1.0  0.13940  0.17964  0.26102  1.0000
  C   C32       1.0  0.36061  0.32036  0.76102  1.0000
  C   C33       1.0  0.01817  0.83714  0.71322  1.0000
  C   C34       1.0  0.48182  0.66286  0.21322  1.0000
  C   C35       1.0  0.98183  0.16286  0.28678  1.0000
  C   C36       1.0  0.51818  0.33714  0.78678  1.0000
  C   C37       1.0  0.05447  0.74793  0.64220  1.0000
  C   C38       1.0  0.44553  0.75207  0.14220  1.0000
  C   C39       1.0  0.94553  0.25207  0.35780  1.0000
  C   C40       1.0  0.55447  0.24793  0.85780  1.0000
  C   C41       1.0  0.79297  0.63376  0.61600  1.0000
  C   C42       1.0  0.70703  0.86624  0.11600  1.0000
  C   C43       1.0  0.20704  0.36624  0.38400  1.0000
  C   C44       1.0  0.29297  0.13376  0.88400  1.0000
  C   C45       1.0  0.74727  0.71692  0.68637  1.0000
  C   C46       1.0  0.75273  0.78308  0.18637  1.0000
  C   C47       1.0  0.25273  0.28308  0.31363  1.0000
  C   C48       1.0  0.24727  0.21692  0.81363  1.0000
  N   N1        1.0  0.65553  0.96123  0.91509  1.0000
  N   N2        1.0  0.84447  0.53877  0.41509  1.0000
  N   N3        1.0  0.34447  0.03877  0.08491  1.0000
  N   N4        1.0  0.15553  0.46123  0.58491  1.0000
  N   N5        1.0  0.65878  0.86475  0.84477  1.0000
  N   N6        1.0  0.84122  0.63525  0.34478  1.0000
  N   N7        1.0  0.34122  0.13525  0.15523  1.0000
  N   N8        1.0  0.15878  0.36475  0.65522  1.0000
  N   N9        1.0  0.90608  0.01735  0.86481  1.0000
  N   N10       1.0  0.59392  0.48265  0.36481  1.0000
  N   N11       1.0  0.09392  0.98265  0.13519  1.0000
  N   N12       1.0  0.40608  0.51735  0.63519  1.0000
  N   N13       1.0  0.68436  0.16481  0.04084  1.0000
  N   N14       1.0  0.81564  0.33518  0.54084  1.0000
  N   N15       1.0  0.31564  0.83519  0.95916  1.0000
  N   N16       1.0  0.18436  0.66482  0.45916  1.0000
  N   N17       1.0  0.94509  0.64345  0.59360  1.0000
  N   N18       1.0  0.55491  0.85655  0.09360  1.0000
  N   N19       1.0  0.05491  0.35655  0.40640  1.0000
  N   N20       1.0  0.44509  0.14345  0.90640  1.0000
