data_image0
_chemical_formula_structural       Ag2H16C24N6O10
_chemical_formula_sum              "Ag2 H16 C24 N6 O10"
_cell_length_a       4.88646
_cell_length_b       10.3546
_cell_length_c       11.6821
_cell_angle_alpha    94.5528
_cell_angle_beta     99.7119
_cell_angle_gamma    93.1894

_space_group_name_H-M_alt    "P 1"
_space_group_IT_number       1

loop_
  _space_group_symop_operation_xyz
  'x, y, z'

loop_
  _atom_site_type_symbol
  _atom_site_label
  _atom_site_symmetry_multiplicity
  _atom_site_fract_x
  _atom_site_fract_y
  _atom_site_fract_z
  _atom_site_occupancy
  Ag  Ag1       1.0  0.10397  0.66993  0.93493  1.0000
  Ag  Ag2       1.0  0.89602  0.33008  0.06508  1.0000
  H   H1        1.0  0.47480  0.57905  0.80185  1.0000
  H   H2        1.0  0.52520  0.42094  0.19815  1.0000
  H   H3        1.0  0.93959  0.47157  0.59828  1.0000
  H   H4        1.0  0.06039  0.52842  0.40171  1.0000
  H   H5        1.0  0.83208  0.44484  0.73056  1.0000
  H   H6        1.0  0.16792  0.55515  0.26944  1.0000
  H   H7        1.0  0.56371  0.85333  0.47154  1.0000
  H   H8        1.0  0.43627  0.14666  0.52845  1.0000
  H   H9        1.0  0.84181  0.87959  0.92854  1.0000
  H   H10       1.0  0.15819  0.12042  0.07146  1.0000
  H   H11       1.0  0.60618  0.08670  0.90543  1.0000
  H   H12       1.0  0.39384  0.91331  0.09456  1.0000
  H   H13       1.0  0.68257  0.22171  0.74753  1.0000
  H   H14       1.0  0.31746  0.77829  0.25246  1.0000
  H   H15       1.0  0.00421  0.15452  0.61080  1.0000
  H   H16       1.0  0.99581  0.84549  0.38920  1.0000
  C   C1        1.0  0.38737  0.82872  0.62394  1.0000
  C   C2        1.0  0.61263  0.17127  0.37606  1.0000
  C   C3        1.0  0.35412  0.75027  0.72043  1.0000
  C   C4        1.0  0.64588  0.24973  0.27957  1.0000
  C   C5        1.0  0.49997  0.63790  0.73060  1.0000
  C   C6        1.0  0.50003  0.36210  0.26940  1.0000
  C   C7        1.0  0.66754  0.59906  0.65089  1.0000
  C   C8        1.0  0.33245  0.40094  0.34911  1.0000
  C   C9        1.0  0.69532  0.67831  0.55063  1.0000
  C   C10       1.0  0.30466  0.32168  0.44937  1.0000
  C   C11       1.0  0.54595  0.79341  0.54268  1.0000
  C   C12       1.0  0.45404  0.20658  0.45732  1.0000
  C   C13       1.0  0.09201  0.97850  0.69295  1.0000
  C   C14       1.0  0.90801  0.02151  0.30705  1.0000
  C   C15       1.0  0.05431  0.89959  0.78308  1.0000
  C   C16       1.0  0.94570  0.10042  0.21693  1.0000
  C   C17       1.0  0.87536  0.94066  0.85949  1.0000
  C   C18       1.0  0.12464  0.05935  0.14052  1.0000
  C   C19       1.0  0.74437  0.05521  0.84619  1.0000
  C   C20       1.0  0.25565  0.94479  0.15381  1.0000
  C   C21       1.0  0.78858  0.13236  0.75637  1.0000
  C   C22       1.0  0.21143  0.86765  0.24362  1.0000
  C   C23       1.0  0.96430  0.09467  0.67968  1.0000
  C   C24       1.0  0.03572  0.90533  0.32032  1.0000
  N   N1        1.0  0.81583  0.49503  0.65844  1.0000
  N   N2        1.0  0.18416  0.50496  0.34156  1.0000
  N   N3        1.0  0.18518  0.78553  0.79510  1.0000
  N   N4        1.0  0.81482  0.21447  0.20490  1.0000
  N   N5        1.0  0.74237  0.65349  0.10924  1.0000
  N   N6        1.0  0.25762  0.34651  0.89076  1.0000
  O   O1        1.0  0.25498  0.94004  0.61332  1.0000
  O   O2        1.0  0.74503  0.05996  0.38668  1.0000
  O   O3        1.0  0.85176  0.64498  0.48055  1.0000
  O   O4        1.0  0.14821  0.35500  0.51944  1.0000
  O   O5        1.0  0.97052  0.59768  0.09511  1.0000
  O   O6        1.0  0.02948  0.40233  0.90490  1.0000
  O   O7        1.0  0.64314  0.63752  0.19853  1.0000
  O   O8        1.0  0.35684  0.36247  0.80147  1.0000
  O   O9        1.0  0.63390  0.72082  0.03012  1.0000
  O   O10       1.0  0.36609  0.27918  0.96988  1.0000
