data_image0
_chemical_formula_structural       La2H38C60N10O14
_chemical_formula_sum              "La2 H38 C60 N10 O14"
_cell_length_a       10.6588
_cell_length_b       11.1371
_cell_length_c       13.774
_cell_angle_alpha    110.438
_cell_angle_beta     100.65
_cell_angle_gamma    108.221

_space_group_name_H-M_alt    "P 1"
_space_group_IT_number       1

loop_
  _space_group_symop_operation_xyz
  'x, y, z'

loop_
  _atom_site_type_symbol
  _atom_site_label
  _atom_site_symmetry_multiplicity
  _atom_site_fract_x
  _atom_site_fract_y
  _atom_site_fract_z
  _atom_site_occupancy
  La  La1       1.0  0.49914  0.91644  0.61732  1.0000
  La  La2       1.0  0.50085  0.08356  0.38267  1.0000
  H   H1        1.0  0.43067  0.58317  0.01041  1.0000
  H   H2        1.0  0.56934  0.41683  0.98960  1.0000
  H   H3        1.0  0.26854  0.33673  0.96032  1.0000
  H   H4        1.0  0.73146  0.66327  0.03969  1.0000
  H   H5        1.0  0.95086  0.44456  0.37576  1.0000
  H   H6        1.0  0.04914  0.55544  0.62424  1.0000
  H   H7        1.0  0.01813  0.30367  0.46588  1.0000
  H   H8        1.0  0.98187  0.69632  0.53411  1.0000
  H   H9        1.0  0.21889  0.23765  0.43426  1.0000
  H   H10       1.0  0.78111  0.76235  0.56574  1.0000
  H   H11       1.0  0.04313  0.66526  0.29469  1.0000
  H   H12       1.0  0.95687  0.33474  0.70531  1.0000
  H   H13       1.0  0.78000  0.55011  0.22572  1.0000
  H   H14       1.0  0.22000  0.44989  0.77428  1.0000
  H   H15       1.0  0.65024  0.68357  0.31379  1.0000
  H   H16       1.0  0.34976  0.31642  0.68620  1.0000
  H   H17       1.0  0.84537  0.09010  0.77904  1.0000
  H   H18       1.0  0.15462  0.90990  0.22096  1.0000
  H   H19       1.0  0.02103  0.23856  0.97142  1.0000
  H   H20       1.0  0.97897  0.76144  0.02857  1.0000
  H   H21       1.0  0.93472  0.31950  0.12758  1.0000
  H   H22       1.0  0.06528  0.68050  0.87242  1.0000
  H   H23       1.0  0.72877  0.31229  0.19482  1.0000
  H   H24       1.0  0.27123  0.68771  0.80518  1.0000
  H   H25       1.0  0.47489  0.24296  0.15359  1.0000
  H   H26       1.0  0.52512  0.75704  0.84641  1.0000
  H   H27       1.0  0.23297  0.11472  0.01605  1.0000
  H   H28       1.0  0.76703  0.88528  0.98395  1.0000
  H   H29       1.0  0.07813  0.96403  0.81822  1.0000
  H   H30       1.0  0.92187  0.03597  0.18178  1.0000
  H   H31       1.0  0.19108  0.90239  0.67426  1.0000
  H   H32       1.0  0.80892  0.09761  0.32575  1.0000
  H   H33       1.0  0.50288  0.76489  0.20627  1.0000
  H   H34       1.0  0.49712  0.23512  0.79373  1.0000
  H   H35       1.0  0.27020  0.62741  0.54544  1.0000
  H   H36       1.0  0.72980  0.37259  0.45456  1.0000
  H   H37       1.0  0.38291  0.64378  0.64578  1.0000
  H   H38       1.0  0.61709  0.35622  0.35422  1.0000
  C   C1        1.0  0.42190  0.72714  0.36920  1.0000
  C   C2        1.0  0.57810  0.27286  0.63080  1.0000
  C   C3        1.0  0.37496  0.61955  0.25299  1.0000
  C   C4        1.0  0.62504  0.38046  0.74702  1.0000
  C   C5        1.0  0.39085  0.55664  0.07093  1.0000
  C   C6        1.0  0.60915  0.44337  0.92907  1.0000
  C   C7        1.0  0.30033  0.41973  0.04330  1.0000
  C   C8        1.0  0.69967  0.58027  0.95670  1.0000
  C   C9        1.0  0.28346  0.47876  0.21702  1.0000
  C   C10       1.0  0.71654  0.52125  0.78298  1.0000
  C   C11       1.0  0.21569  0.43039  0.29040  1.0000
  C   C12       1.0  0.78431  0.56961  0.70960  1.0000
  C   C13       1.0  0.03920  0.41702  0.36623  1.0000
  C   C14       1.0  0.96080  0.58298  0.63377  1.0000
  C   C15       1.0  0.07609  0.33755  0.41598  1.0000
  C   C16       1.0  0.92390  0.66245  0.58402  1.0000
  C   C17       1.0  0.18718  0.30185  0.39919  1.0000
  C   C18       1.0  0.81282  0.69815  0.60081  1.0000
  C   C19       1.0  0.26035  0.35051  0.33656  1.0000
  C   C20       1.0  0.73965  0.64949  0.66344  1.0000
  C   C21       1.0  0.38464  0.31851  0.32293  1.0000
  C   C22       1.0  0.61536  0.68149  0.67707  1.0000
  C   C23       1.0  0.20831  0.92016  0.45155  1.0000
  C   C24       1.0  0.79169  0.07984  0.54845  1.0000
  C   C25       1.0  0.05088  0.85938  0.41193  1.0000
  C   C26       1.0  0.94911  0.14062  0.58807  1.0000
  C   C27       1.0  0.98224  0.72222  0.32764  1.0000
  C   C28       1.0  0.01776  0.27778  0.67237  1.0000
  C   C29       1.0  0.83665  0.65744  0.28995  1.0000
  C   C30       1.0  0.16335  0.34256  0.71005  1.0000
  C   C31       1.0  0.76400  0.73248  0.33842  1.0000
  C   C32       1.0  0.23599  0.26752  0.66157  1.0000
  C   C33       1.0  0.96858  0.92765  0.45502  1.0000
  C   C34       1.0  0.03141  0.07235  0.54498  1.0000
  C   C35       1.0  0.81224  0.12642  0.85031  1.0000
  C   C36       1.0  0.18776  0.87358  0.14969  1.0000
  C   C37       1.0  0.90940  0.20912  0.95700  1.0000
  C   C38       1.0  0.09060  0.79088  0.04300  1.0000
  C   C39       1.0  0.86157  0.25319  0.04400  1.0000
  C   C40       1.0  0.13844  0.74681  0.95600  1.0000
  C   C41       1.0  0.71622  0.21179  0.02415  1.0000
  C   C42       1.0  0.28379  0.78821  0.97585  1.0000
  C   C43       1.0  0.62567  0.12723  0.91357  1.0000
  C   C44       1.0  0.37433  0.87277  0.08643  1.0000
  C   C45       1.0  0.65842  0.25115  0.11008  1.0000
  C   C46       1.0  0.34159  0.74885  0.88992  1.0000
  C   C47       1.0  0.51733  0.21074  0.08748  1.0000
  C   C48       1.0  0.48267  0.78926  0.91252  1.0000
  C   C49       1.0  0.42304  0.12605  0.97719  1.0000
  C   C50       1.0  0.57696  0.87395  0.02281  1.0000
  C   C51       1.0  0.47633  0.08286  0.88971  1.0000
  C   C52       1.0  0.52367  0.91714  0.11029  1.0000
  C   C53       1.0  0.27640  0.08219  0.95046  1.0000
  C   C54       1.0  0.72360  0.91781  0.04954  1.0000
  C   C55       1.0  0.19165  0.00088  0.84207  1.0000
  C   C56       1.0  0.80835  0.99912  0.15793  1.0000
  C   C57       1.0  0.25385  0.96452  0.76084  1.0000
  C   C58       1.0  0.74615  0.03548  0.23916  1.0000
  C   C59       1.0  0.42909  0.65715  0.17803  1.0000
  C   C60       1.0  0.57091  0.34285  0.82198  1.0000
  N   N1        1.0  0.24743  0.38056  0.11412  1.0000
  N   N2        1.0  0.75258  0.61944  0.88588  1.0000
  N   N3        1.0  0.10609  0.46173  0.30349  1.0000
  N   N4        1.0  0.89392  0.53827  0.69651  1.0000
  N   N5        1.0  0.82792  0.86383  0.41764  1.0000
  N   N6        1.0  0.17207  0.13616  0.58236  1.0000
  N   N7        1.0  0.67470  0.08764  0.82864  1.0000
  N   N8        1.0  0.32530  0.91235  0.17136  1.0000
  N   N9        1.0  0.39155  0.00395  0.78324  1.0000
  N   N10       1.0  0.60845  0.99605  0.21677  1.0000
  O   O1        1.0  0.47076  0.85722  0.38908  1.0000
  O   O2        1.0  0.52924  0.14278  0.61092  1.0000
  O   O3        1.0  0.41540  0.68773  0.44463  1.0000
  O   O4        1.0  0.58460  0.31228  0.55537  1.0000
  O   O5        1.0  0.49000  0.40844  0.32094  1.0000
  O   O6        1.0  0.51000  0.59156  0.67906  1.0000
  O   O7        1.0  0.37373  0.19718  0.31481  1.0000
  O   O8        1.0  0.62626  0.80282  0.68519  1.0000
  O   O9        1.0  0.26390  0.88559  0.52149  1.0000
  O   O10       1.0  0.73609  0.11441  0.47851  1.0000
  O   O11       1.0  0.27022  0.98537  0.40328  1.0000
  O   O12       1.0  0.72978  0.01463  0.59671  1.0000
  O   O13       1.0  0.31843  0.68688  0.62385  1.0000
  O   O14       1.0  0.68157  0.31312  0.37615  1.0000
