data_image0
_chemical_formula_structural       Gd2H38C60N10O14
_chemical_formula_sum              "Gd2 H38 C60 N10 O14"
_cell_length_a       10.5005
_cell_length_b       11.1815
_cell_length_c       13.476
_cell_angle_alpha    110.016
_cell_angle_beta     101.342
_cell_angle_gamma    107.875

_space_group_name_H-M_alt    "P 1"
_space_group_IT_number       1

loop_
  _space_group_symop_operation_xyz
  'x, y, z'

loop_
  _atom_site_type_symbol
  _atom_site_label
  _atom_site_symmetry_multiplicity
  _atom_site_fract_x
  _atom_site_fract_y
  _atom_site_fract_z
  _atom_site_occupancy
  Gd  Gd1       1.0  0.49960  0.91699  0.62295  1.0000
  Gd  Gd2       1.0  0.50040  0.08301  0.37705  1.0000
  H   H1        1.0  0.41770  0.56885  0.99467  1.0000
  H   H2        1.0  0.58230  0.43115  0.00533  1.0000
  H   H3        1.0  0.26764  0.32599  0.95929  1.0000
  H   H4        1.0  0.73236  0.67401  0.04071  1.0000
  H   H5        1.0  0.96234  0.44977  0.38645  1.0000
  H   H6        1.0  0.03766  0.55023  0.61355  1.0000
  H   H7        1.0  0.03113  0.30510  0.47512  1.0000
  H   H8        1.0  0.96887  0.69490  0.52488  1.0000
  H   H9        1.0  0.23716  0.24368  0.44448  1.0000
  H   H10       1.0  0.76284  0.75632  0.55552  1.0000
  H   H11       1.0  0.06581  0.68376  0.29274  1.0000
  H   H12       1.0  0.93419  0.31624  0.70726  1.0000
  H   H13       1.0  0.80000  0.55800  0.21533  1.0000
  H   H14       1.0  0.20000  0.44200  0.78467  1.0000
  H   H15       1.0  0.65589  0.67796  0.30007  1.0000
  H   H16       1.0  0.34411  0.32204  0.69993  1.0000
  H   H17       1.0  0.84863  0.07118  0.77406  1.0000
  H   H18       1.0  0.15137  0.92882  0.22594  1.0000
  H   H19       1.0  0.03001  0.22618  0.96917  1.0000
  H   H20       1.0  0.96999  0.77382  0.03083  1.0000
  H   H21       1.0  0.94620  0.31628  0.12822  1.0000
  H   H22       1.0  0.05380  0.68372  0.87178  1.0000
  H   H23       1.0  0.73858  0.31566  0.19709  1.0000
  H   H24       1.0  0.26142  0.68434  0.80291  1.0000
  H   H25       1.0  0.48054  0.24528  0.15513  1.0000
  H   H26       1.0  0.51946  0.75472  0.84486  1.0000
  H   H27       1.0  0.23359  0.11474  0.01468  1.0000
  H   H28       1.0  0.76641  0.88526  0.98532  1.0000
  H   H29       1.0  0.07491  0.96087  0.81267  1.0000
  H   H30       1.0  0.92509  0.03913  0.18733  1.0000
  H   H31       1.0  0.18812  0.89411  0.66685  1.0000
  H   H32       1.0  0.81188  0.10589  0.33315  1.0000
  H   H33       1.0  0.49523  0.75987  0.19006  1.0000
  H   H34       1.0  0.50477  0.24013  0.80994  1.0000
  H   H35       1.0  0.36657  0.64752  0.63249  1.0000
  H   H36       1.0  0.63343  0.35248  0.36751  1.0000
  H   H37       1.0  0.25757  0.65034  0.53508  1.0000
  H   H38       1.0  0.74243  0.34966  0.46492  1.0000
  C   C1        1.0  0.42723  0.74187  0.36373  1.0000
  C   C2        1.0  0.57277  0.25813  0.63627  1.0000
  C   C3        1.0  0.37991  0.62374  0.25012  1.0000
  C   C4        1.0  0.62009  0.37626  0.74988  1.0000
  C   C5        1.0  0.38484  0.54763  0.06080  1.0000
  C   C6        1.0  0.61516  0.45237  0.93920  1.0000
  C   C7        1.0  0.30136  0.41293  0.04156  1.0000
  C   C8        1.0  0.69864  0.58707  0.95844  1.0000
  C   C9        1.0  0.29496  0.48452  0.22229  1.0000
  C   C10       1.0  0.70504  0.51548  0.77771  1.0000
  C   C11       1.0  0.23227  0.44061  0.30118  1.0000
  C   C12       1.0  0.76772  0.55939  0.69882  1.0000
  C   C13       1.0  0.05273  0.42355  0.37722  1.0000
  C   C14       1.0  0.94727  0.57645  0.62278  1.0000
  C   C15       1.0  0.09043  0.34205  0.42601  1.0000
  C   C16       1.0  0.90957  0.65795  0.57399  1.0000
  C   C17       1.0  0.20453  0.30886  0.40989  1.0000
  C   C18       1.0  0.79547  0.69113  0.59011  1.0000
  C   C19       1.0  0.27861  0.36014  0.34742  1.0000
  C   C20       1.0  0.72139  0.63986  0.65258  1.0000
  C   C21       1.0  0.40317  0.32621  0.33172  1.0000
  C   C22       1.0  0.59683  0.67379  0.66828  1.0000
  C   C23       1.0  0.22214  0.93509  0.45518  1.0000
  C   C24       1.0  0.77786  0.06491  0.54482  1.0000
  C   C25       1.0  0.06193  0.86970  0.41118  1.0000
  C   C26       1.0  0.93807  0.13030  0.58882  1.0000
  C   C27       1.0  0.99891  0.73464  0.32401  1.0000
  C   C28       1.0  0.00109  0.26536  0.67599  1.0000
  C   C29       1.0  0.85166  0.66398  0.28167  1.0000
  C   C30       1.0  0.14834  0.33602  0.71833  1.0000
  C   C31       1.0  0.77126  0.73132  0.32831  1.0000
  C   C32       1.0  0.22874  0.26868  0.67169  1.0000
  C   C33       1.0  0.97195  0.92958  0.45292  1.0000
  C   C34       1.0  0.02805  0.07042  0.54709  1.0000
  C   C35       1.0  0.81688  0.11196  0.84660  1.0000
  C   C36       1.0  0.18312  0.88804  0.15340  1.0000
  C   C37       1.0  0.91703  0.19816  0.95490  1.0000
  C   C38       1.0  0.08297  0.80184  0.04510  1.0000
  C   C39       1.0  0.87062  0.24748  0.04351  1.0000
  C   C40       1.0  0.12938  0.75252  0.95649  1.0000
  C   C41       1.0  0.72339  0.20780  0.02372  1.0000
  C   C42       1.0  0.27661  0.79220  0.97628  1.0000
  C   C43       1.0  0.63000  0.11976  0.91151  1.0000
  C   C44       1.0  0.37000  0.88024  0.08849  1.0000
  C   C45       1.0  0.66602  0.25147  0.11094  1.0000
  C   C46       1.0  0.33398  0.74853  0.88906  1.0000
  C   C47       1.0  0.52275  0.21132  0.08792  1.0000
  C   C48       1.0  0.47725  0.78868  0.91208  1.0000
  C   C49       1.0  0.42574  0.12375  0.97571  1.0000
  C   C50       1.0  0.57427  0.87625  0.02429  1.0000
  C   C51       1.0  0.47871  0.07693  0.88708  1.0000
  C   C52       1.0  0.52129  0.92307  0.11292  1.0000
  C   C53       1.0  0.27692  0.08057  0.94801  1.0000
  C   C54       1.0  0.72308  0.91944  0.05199  1.0000
  C   C55       1.0  0.19020  0.99745  0.83745  1.0000
  C   C56       1.0  0.80980  0.00256  0.16255  1.0000
  C   C57       1.0  0.25233  0.95797  0.75508  1.0000
  C   C58       1.0  0.74767  0.04203  0.24492  1.0000
  C   C59       1.0  0.42582  0.65323  0.16745  1.0000
  C   C60       1.0  0.57418  0.34677  0.83255  1.0000
  N   N1        1.0  0.25782  0.38093  0.11996  1.0000
  N   N2        1.0  0.74218  0.61907  0.88004  1.0000
  N   N3        1.0  0.12098  0.47165  0.31517  1.0000
  N   N4        1.0  0.87902  0.52835  0.68483  1.0000
  N   N5        1.0  0.82954  0.86042  0.41048  1.0000
  N   N6        1.0  0.17046  0.13958  0.58952  1.0000
  N   N7        1.0  0.67754  0.07506  0.82495  1.0000
  N   N8        1.0  0.32246  0.92494  0.17505  1.0000
  N   N9        1.0  0.39211  0.99606  0.77856  1.0000
  N   N10       1.0  0.60789  0.00394  0.22144  1.0000
  O   O1        1.0  0.46068  0.86366  0.36838  1.0000
  O   O2        1.0  0.53932  0.13634  0.63162  1.0000
  O   O3        1.0  0.43393  0.71694  0.44908  1.0000
  O   O4        1.0  0.56607  0.28305  0.55092  1.0000
  O   O5        1.0  0.51405  0.41720  0.33667  1.0000
  O   O6        1.0  0.48595  0.58280  0.66333  1.0000
  O   O7        1.0  0.38568  0.20125  0.31423  1.0000
  O   O8        1.0  0.61432  0.79875  0.68577  1.0000
  O   O9        1.0  0.27812  0.89467  0.52281  1.0000
  O   O10       1.0  0.72188  0.10533  0.47719  1.0000
  O   O11       1.0  0.28514  0.00868  0.41184  1.0000
  O   O12       1.0  0.71486  0.99132  0.58816  1.0000
  O   O13       1.0  0.31144  0.70222  0.61518  1.0000
  O   O14       1.0  0.68856  0.29778  0.38482  1.0000
