data_image0
_chemical_formula_structural       Sm2H38C60N10O14
_chemical_formula_sum              "Sm2 H38 C60 N10 O14"
_cell_length_a       10.5456
_cell_length_b       11.1581
_cell_length_c       13.592
_cell_angle_alpha    110.22
_cell_angle_beta     101.263
_cell_angle_gamma    107.848

_space_group_name_H-M_alt    "P 1"
_space_group_IT_number       1

loop_
  _space_group_symop_operation_xyz
  'x, y, z'

loop_
  _atom_site_type_symbol
  _atom_site_label
  _atom_site_symmetry_multiplicity
  _atom_site_fract_x
  _atom_site_fract_y
  _atom_site_fract_z
  _atom_site_occupancy
  Sm  Sm1       1.0  0.49960  0.91735  0.62162  1.0000
  Sm  Sm2       1.0  0.50040  0.08265  0.37838  1.0000
  H   H1        1.0  0.42176  0.57188  0.99921  1.0000
  H   H2        1.0  0.57824  0.42812  0.00079  1.0000
  H   H3        1.0  0.26949  0.32753  0.95991  1.0000
  H   H4        1.0  0.73051  0.67247  0.04009  1.0000
  H   H5        1.0  0.96020  0.44952  0.38288  1.0000
  H   H6        1.0  0.03980  0.55048  0.61712  1.0000
  H   H7        1.0  0.02977  0.30736  0.47310  1.0000
  H   H8        1.0  0.97023  0.69264  0.52690  1.0000
  H   H9        1.0  0.23423  0.24431  0.44273  1.0000
  H   H10       1.0  0.76576  0.75569  0.55727  1.0000
  H   H11       1.0  0.06029  0.67839  0.29326  1.0000
  H   H12       1.0  0.93971  0.32161  0.70674  1.0000
  H   H13       1.0  0.79534  0.55514  0.21778  1.0000
  H   H14       1.0  0.20466  0.44487  0.78222  1.0000
  H   H15       1.0  0.65460  0.67877  0.30249  1.0000
  H   H16       1.0  0.34540  0.32123  0.69751  1.0000
  H   H17       1.0  0.84859  0.07848  0.77477  1.0000
  H   H18       1.0  0.15141  0.92152  0.22523  1.0000
  H   H19       1.0  0.02899  0.23161  0.96872  1.0000
  H   H20       1.0  0.97101  0.76839  0.03128  1.0000
  H   H21       1.0  0.94533  0.31803  0.12739  1.0000
  H   H22       1.0  0.05467  0.68197  0.87261  1.0000
  H   H23       1.0  0.73883  0.31480  0.19641  1.0000
  H   H24       1.0  0.26117  0.68520  0.80359  1.0000
  H   H25       1.0  0.48214  0.24473  0.15544  1.0000
  H   H26       1.0  0.51786  0.75527  0.84456  1.0000
  H   H27       1.0  0.23589  0.11485  0.01609  1.0000
  H   H28       1.0  0.76411  0.88515  0.98391  1.0000
  H   H29       1.0  0.07757  0.96242  0.81568  1.0000
  H   H30       1.0  0.92243  0.03759  0.18432  1.0000
  H   H31       1.0  0.18938  0.89699  0.66993  1.0000
  H   H32       1.0  0.81062  0.10301  0.33007  1.0000
  H   H33       1.0  0.49780  0.76090  0.19462  1.0000
  H   H34       1.0  0.50221  0.23910  0.80538  1.0000
  H   H35       1.0  0.37117  0.64712  0.63556  1.0000
  H   H36       1.0  0.62883  0.35288  0.36444  1.0000
  H   H37       1.0  0.26016  0.64395  0.53737  1.0000
  H   H38       1.0  0.73984  0.35605  0.46263  1.0000
  C   C1        1.0  0.42695  0.73762  0.36517  1.0000
  C   C2        1.0  0.57305  0.26237  0.63483  1.0000
  C   C3        1.0  0.37949  0.62204  0.25077  1.0000
  C   C4        1.0  0.62051  0.37796  0.74922  1.0000
  C   C5        1.0  0.38719  0.54925  0.06371  1.0000
  C   C6        1.0  0.61281  0.45075  0.93629  1.0000
  C   C7        1.0  0.30215  0.41367  0.04219  1.0000
  C   C8        1.0  0.69785  0.58633  0.95780  1.0000
  C   C9        1.0  0.29252  0.48229  0.22054  1.0000
  C   C10       1.0  0.70748  0.51771  0.77946  1.0000
  C   C11       1.0  0.22837  0.43790  0.29783  1.0000
  C   C12       1.0  0.77163  0.56210  0.70217  1.0000
  C   C13       1.0  0.05015  0.42294  0.37380  1.0000
  C   C14       1.0  0.94985  0.57706  0.62620  1.0000
  C   C15       1.0  0.08832  0.34287  0.42357  1.0000
  C   C16       1.0  0.91168  0.65713  0.57643  1.0000
  C   C17       1.0  0.20161  0.30876  0.40755  1.0000
  C   C18       1.0  0.79839  0.69124  0.59245  1.0000
  C   C19       1.0  0.27474  0.35829  0.34457  1.0000
  C   C20       1.0  0.72526  0.64171  0.65543  1.0000
  C   C21       1.0  0.39875  0.32418  0.32896  1.0000
  C   C22       1.0  0.60125  0.67581  0.67104  1.0000
  C   C23       1.0  0.21861  0.93198  0.45453  1.0000
  C   C24       1.0  0.78139  0.06803  0.54547  1.0000
  C   C25       1.0  0.05918  0.86706  0.41118  1.0000
  C   C26       1.0  0.94082  0.13295  0.58882  1.0000
  C   C27       1.0  0.99500  0.73116  0.32478  1.0000
  C   C28       1.0  0.00500  0.26885  0.67523  1.0000
  C   C29       1.0  0.84818  0.66176  0.28346  1.0000
  C   C30       1.0  0.15182  0.33824  0.71654  1.0000
  C   C31       1.0  0.76960  0.73118  0.33029  1.0000
  C   C32       1.0  0.23040  0.26883  0.66971  1.0000
  C   C33       1.0  0.97107  0.92904  0.45325  1.0000
  C   C34       1.0  0.02894  0.07097  0.54675  1.0000
  C   C35       1.0  0.81672  0.11781  0.84701  1.0000
  C   C36       1.0  0.18328  0.88219  0.15299  1.0000
  C   C37       1.0  0.91645  0.20288  0.95471  1.0000
  C   C38       1.0  0.08355  0.79712  0.04529  1.0000
  C   C39       1.0  0.87008  0.25008  0.04308  1.0000
  C   C40       1.0  0.12991  0.74992  0.95691  1.0000
  C   C41       1.0  0.72345  0.20970  0.02360  1.0000
  C   C42       1.0  0.27655  0.79030  0.97640  1.0000
  C   C43       1.0  0.63038  0.12299  0.91192  1.0000
  C   C44       1.0  0.36962  0.87701  0.08808  1.0000
  C   C45       1.0  0.66648  0.25179  0.11074  1.0000
  C   C46       1.0  0.33352  0.74821  0.88926  1.0000
  C   C47       1.0  0.52393  0.21155  0.08826  1.0000
  C   C48       1.0  0.47607  0.78845  0.91174  1.0000
  C   C49       1.0  0.42717  0.12504  0.97667  1.0000
  C   C50       1.0  0.57283  0.87496  0.02333  1.0000
  C   C51       1.0  0.47967  0.07955  0.88808  1.0000
  C   C52       1.0  0.52034  0.92045  0.11192  1.0000
  C   C53       1.0  0.27900  0.08141  0.94965  1.0000
  C   C54       1.0  0.72100  0.91859  0.05035  1.0000
  C   C55       1.0  0.19232  0.99897  0.83984  1.0000
  C   C56       1.0  0.80768  0.00103  0.16016  1.0000
  C   C57       1.0  0.25384  0.96051  0.75752  1.0000
  C   C58       1.0  0.74616  0.03949  0.24248  1.0000
  C   C59       1.0  0.42736  0.65375  0.17039  1.0000
  C   C60       1.0  0.57264  0.34625  0.82961  1.0000
  N   N1        1.0  0.25590  0.37978  0.11825  1.0000
  N   N2        1.0  0.74410  0.62022  0.88175  1.0000
  N   N3        1.0  0.11760  0.46935  0.31132  1.0000
  N   N4        1.0  0.88240  0.53065  0.68868  1.0000
  N   N5        1.0  0.82912  0.86102  0.41181  1.0000
  N   N6        1.0  0.17088  0.13898  0.58819  1.0000
  N   N7        1.0  0.67792  0.08014  0.82564  1.0000
  N   N8        1.0  0.32208  0.91986  0.17436  1.0000
  N   N9        1.0  0.39300  0.99907  0.78028  1.0000
  N   N10       1.0  0.60700  0.00092  0.21972  1.0000
  O   O1        1.0  0.46325  0.86182  0.37391  1.0000
  O   O2        1.0  0.53675  0.13818  0.62609  1.0000
  O   O3        1.0  0.43143  0.70913  0.44795  1.0000
  O   O4        1.0  0.56856  0.29087  0.55205  1.0000
  O   O5        1.0  0.50878  0.41534  0.33333  1.0000
  O   O6        1.0  0.49122  0.58466  0.66667  1.0000
  O   O7        1.0  0.38175  0.19915  0.31210  1.0000
  O   O8        1.0  0.61825  0.80085  0.68790  1.0000
  O   O9        1.0  0.27447  0.89296  0.52262  1.0000
  O   O10       1.0  0.72553  0.10704  0.47738  1.0000
  O   O11       1.0  0.28120  0.00419  0.41054  1.0000
  O   O12       1.0  0.71880  0.99581  0.58946  1.0000
  O   O13       1.0  0.31377  0.69915  0.61670  1.0000
  O   O14       1.0  0.68623  0.30085  0.38330  1.0000
