data_image0
_chemical_formula_structural       Dy2H38C60N10O14
_chemical_formula_sum              "Dy2 H38 C60 N10 O14"
_cell_length_a       10.4439
_cell_length_b       11.1797
_cell_length_c       13.488
_cell_angle_alpha    110.108
_cell_angle_beta     101.397
_cell_angle_gamma    107.769

_space_group_name_H-M_alt    "P 1"
_space_group_IT_number       1

loop_
  _space_group_symop_operation_xyz
  'x, y, z'

loop_
  _atom_site_type_symbol
  _atom_site_label
  _atom_site_symmetry_multiplicity
  _atom_site_fract_x
  _atom_site_fract_y
  _atom_site_fract_z
  _atom_site_occupancy
  Dy  Dy1       1.0  0.49970  0.91583  0.62365  1.0000
  Dy  Dy2       1.0  0.50030  0.08417  0.37635  1.0000
  H   H1        1.0  0.41488  0.56359  0.99150  1.0000
  H   H2        1.0  0.58512  0.43640  0.00850  1.0000
  H   H3        1.0  0.26880  0.32130  0.96003  1.0000
  H   H4        1.0  0.73120  0.67870  0.03997  1.0000
  H   H5        1.0  0.96167  0.45158  0.38593  1.0000
  H   H6        1.0  0.03833  0.54842  0.61407  1.0000
  H   H7        1.0  0.03159  0.30850  0.47603  1.0000
  H   H8        1.0  0.96841  0.69150  0.52397  1.0000
  H   H9        1.0  0.23985  0.24805  0.44707  1.0000
  H   H10       1.0  0.76015  0.75195  0.55293  1.0000
  H   H11       1.0  0.07165  0.68743  0.29300  1.0000
  H   H12       1.0  0.92835  0.31257  0.70700  1.0000
  H   H13       1.0  0.80497  0.55940  0.21326  1.0000
  H   H14       1.0  0.19503  0.44060  0.78674  1.0000
  H   H15       1.0  0.65684  0.67645  0.29657  1.0000
  H   H16       1.0  0.34316  0.32355  0.70343  1.0000
  H   H17       1.0  0.84944  0.06272  0.77178  1.0000
  H   H18       1.0  0.15056  0.93728  0.22822  1.0000
  H   H19       1.0  0.03365  0.22016  0.96580  1.0000
  H   H20       1.0  0.96635  0.77984  0.03420  1.0000
  H   H21       1.0  0.95189  0.31480  0.12538  1.0000
  H   H22       1.0  0.04811  0.68520  0.87462  1.0000
  H   H23       1.0  0.74467  0.31824  0.19554  1.0000
  H   H24       1.0  0.25533  0.68176  0.80446  1.0000
  H   H25       1.0  0.48546  0.24895  0.15504  1.0000
  H   H26       1.0  0.51454  0.75105  0.84496  1.0000
  H   H27       1.0  0.23586  0.11617  0.01528  1.0000
  H   H28       1.0  0.76414  0.88383  0.98472  1.0000
  H   H29       1.0  0.07509  0.96105  0.81373  1.0000
  H   H30       1.0  0.92491  0.03895  0.18627  1.0000
  H   H31       1.0  0.18716  0.89173  0.66737  1.0000
  H   H32       1.0  0.81284  0.10827  0.33263  1.0000
  H   H33       1.0  0.49201  0.75769  0.18525  1.0000
  H   H34       1.0  0.50799  0.24231  0.81474  1.0000
  H   H35       1.0  0.25880  0.65194  0.53149  1.0000
  H   H36       1.0  0.74120  0.34806  0.46851  1.0000
  H   H37       1.0  0.36391  0.64726  0.63052  1.0000
  H   H38       1.0  0.63609  0.35274  0.36948  1.0000
  C   C1        1.0  0.42700  0.74506  0.36068  1.0000
  C   C2        1.0  0.57300  0.25493  0.63932  1.0000
  C   C3        1.0  0.37997  0.62396  0.24840  1.0000
  C   C4        1.0  0.62003  0.37604  0.75160  1.0000
  C   C5        1.0  0.38328  0.54390  0.05853  1.0000
  C   C6        1.0  0.61672  0.45610  0.94147  1.0000
  C   C7        1.0  0.30182  0.40962  0.04149  1.0000
  C   C8        1.0  0.69818  0.59038  0.95851  1.0000
  C   C9        1.0  0.29648  0.48500  0.22253  1.0000
  C   C10       1.0  0.70352  0.51501  0.77747  1.0000
  C   C11       1.0  0.23396  0.44258  0.30196  1.0000
  C   C12       1.0  0.76604  0.55742  0.69804  1.0000
  C   C13       1.0  0.05293  0.42568  0.37726  1.0000
  C   C14       1.0  0.94707  0.57432  0.62274  1.0000
  C   C15       1.0  0.09131  0.34512  0.42696  1.0000
  C   C16       1.0  0.90869  0.65487  0.57304  1.0000
  C   C17       1.0  0.20647  0.31233  0.41167  1.0000
  C   C18       1.0  0.79353  0.68767  0.58833  1.0000
  C   C19       1.0  0.28077  0.36286  0.34892  1.0000
  C   C20       1.0  0.71923  0.63715  0.65108  1.0000
  C   C21       1.0  0.40574  0.32835  0.33343  1.0000
  C   C22       1.0  0.59426  0.67165  0.66657  1.0000
  C   C23       1.0  0.22596  0.93854  0.45713  1.0000
  C   C24       1.0  0.77404  0.06146  0.54287  1.0000
  C   C25       1.0  0.06486  0.87174  0.41182  1.0000
  C   C26       1.0  0.93514  0.12827  0.58818  1.0000
  C   C27       1.0  0.00332  0.73709  0.32397  1.0000
  C   C28       1.0  0.99668  0.26291  0.67603  1.0000
  C   C29       1.0  0.85543  0.66510  0.28024  1.0000
  C   C30       1.0  0.14457  0.33490  0.71976  1.0000
  C   C31       1.0  0.77286  0.73078  0.32613  1.0000
  C   C32       1.0  0.22714  0.26922  0.67387  1.0000
  C   C33       1.0  0.97277  0.92982  0.45270  1.0000
  C   C34       1.0  0.02723  0.07018  0.54730  1.0000
  C   C35       1.0  0.81863  0.10568  0.84450  1.0000
  C   C36       1.0  0.18138  0.89432  0.15550  1.0000
  C   C37       1.0  0.92034  0.19303  0.95223  1.0000
  C   C38       1.0  0.07966  0.80697  0.04777  1.0000
  C   C39       1.0  0.87512  0.24497  0.04113  1.0000
  C   C40       1.0  0.12489  0.75503  0.95887  1.0000
  C   C41       1.0  0.72740  0.20667  0.02216  1.0000
  C   C42       1.0  0.27260  0.79333  0.97784  1.0000
  C   C43       1.0  0.63247  0.11745  0.91038  1.0000
  C   C44       1.0  0.36753  0.88255  0.08962  1.0000
  C   C45       1.0  0.67081  0.25269  0.10973  1.0000
  C   C46       1.0  0.32919  0.74731  0.89027  1.0000
  C   C47       1.0  0.52693  0.21312  0.08749  1.0000
  C   C48       1.0  0.47307  0.78688  0.91251  1.0000
  C   C49       1.0  0.42837  0.12404  0.97559  1.0000
  C   C50       1.0  0.57163  0.87596  0.02441  1.0000
  C   C51       1.0  0.48057  0.07554  0.88662  1.0000
  C   C52       1.0  0.51943  0.92446  0.11337  1.0000
  C   C53       1.0  0.27883  0.08108  0.94842  1.0000
  C   C54       1.0  0.72117  0.91892  0.05158  1.0000
  C   C55       1.0  0.19096  0.99719  0.83806  1.0000
  C   C56       1.0  0.80904  0.00281  0.16194  1.0000
  C   C57       1.0  0.25253  0.95636  0.75538  1.0000
  C   C58       1.0  0.74747  0.04363  0.24462  1.0000
  C   C59       1.0  0.42409  0.65117  0.16434  1.0000
  C   C60       1.0  0.57591  0.34883  0.83566  1.0000
  N   N1        1.0  0.25979  0.37973  0.12110  1.0000
  N   N2        1.0  0.74021  0.62027  0.87890  1.0000
  N   N3        1.0  0.12169  0.47341  0.31530  1.0000
  N   N4        1.0  0.87830  0.52659  0.68470  1.0000
  N   N5        1.0  0.82978  0.85949  0.40898  1.0000
  N   N6        1.0  0.17022  0.14051  0.59102  1.0000
  N   N7        1.0  0.67885  0.07030  0.82353  1.0000
  N   N8        1.0  0.32115  0.92970  0.17647  1.0000
  N   N9        1.0  0.39290  0.99368  0.77835  1.0000
  N   N10       1.0  0.60710  0.00631  0.22165  1.0000
  O   O1        1.0  0.45811  0.86449  0.36122  1.0000
  O   O2        1.0  0.54189  0.13551  0.63878  1.0000
  O   O3        1.0  0.43521  0.72403  0.44784  1.0000
  O   O4        1.0  0.56479  0.27597  0.55215  1.0000
  O   O5        1.0  0.51742  0.41869  0.33816  1.0000
  O   O6        1.0  0.48258  0.58131  0.66184  1.0000
  O   O7        1.0  0.38771  0.20343  0.31656  1.0000
  O   O8        1.0  0.61229  0.79657  0.68344  1.0000
  O   O9        1.0  0.28220  0.89823  0.52477  1.0000
  O   O10       1.0  0.71780  0.10178  0.47523  1.0000
  O   O11       1.0  0.28935  0.01278  0.41444  1.0000
  O   O12       1.0  0.71065  0.98723  0.58556  1.0000
  O   O13       1.0  0.31065  0.70310  0.61201  1.0000
  O   O14       1.0  0.68935  0.29690  0.38799  1.0000
