data_image0
_chemical_formula_structural       Cd4H36C20N4Cl8O8
_chemical_formula_sum              "Cd4 H36 C20 N4 Cl8 O8"
_cell_length_a       7.09898
_cell_length_b       9.67786
_cell_length_c       13.3618
_cell_angle_alpha    89.9993
_cell_angle_beta     89.9998
_cell_angle_gamma    89.9992

_space_group_name_H-M_alt    "P 1"
_space_group_IT_number       1

loop_
  _space_group_symop_operation_xyz
  'x, y, z'

loop_
  _atom_site_type_symbol
  _atom_site_label
  _atom_site_symmetry_multiplicity
  _atom_site_fract_x
  _atom_site_fract_y
  _atom_site_fract_z
  _atom_site_occupancy
  Cd  Cd1       1.0  0.35499  0.22889  0.00508  1.0000
  Cd  Cd2       1.0  0.64501  0.72890  0.49493  1.0000
  Cd  Cd3       1.0  0.14501  0.77112  0.50507  1.0000
  Cd  Cd4       1.0  0.85500  0.27111  0.99493  1.0000
  H   H1        1.0  0.11550  0.91490  0.27225  1.0000
  H   H2        1.0  0.88450  0.41492  0.22775  1.0000
  H   H3        1.0  0.38449  0.08509  0.77225  1.0000
  H   H4        1.0  0.61550  0.58508  0.72775  1.0000
  H   H5        1.0  0.10378  0.70451  0.18540  1.0000
  H   H6        1.0  0.89621  0.20453  0.31460  1.0000
  H   H7        1.0  0.39621  0.29548  0.68540  1.0000
  H   H8        1.0  0.60378  0.79547  0.81459  1.0000
  H   H9        1.0  0.17611  0.80718  0.08267  1.0000
  H   H10       1.0  0.82390  0.30720  0.41732  1.0000
  H   H11       1.0  0.32388  0.19281  0.58268  1.0000
  H   H12       1.0  0.67610  0.69281  0.91732  1.0000
  H   H13       1.0  0.85009  0.65998  0.06570  1.0000
  H   H14       1.0  0.14990  0.15998  0.43430  1.0000
  H   H15       1.0  0.64990  0.34003  0.56571  1.0000
  H   H16       1.0  0.35009  0.84002  0.93429  1.0000
  H   H17       1.0  0.85140  0.83551  0.02433  1.0000
  H   H18       1.0  0.14861  0.33551  0.47567  1.0000
  H   H19       1.0  0.64859  0.16450  0.52433  1.0000
  H   H20       1.0  0.35139  0.66450  0.97567  1.0000
  H   H21       1.0  0.59403  0.84414  0.14465  1.0000
  H   H22       1.0  0.40597  0.34414  0.35535  1.0000
  H   H23       1.0  0.90596  0.15586  0.64466  1.0000
  H   H24       1.0  0.09403  0.65585  0.85534  1.0000
  H   H25       1.0  0.70955  0.72565  0.22662  1.0000
  H   H26       1.0  0.29045  0.22565  0.27338  1.0000
  H   H27       1.0  0.79045  0.27435  0.72663  1.0000
  H   H28       1.0  0.20954  0.77434  0.77337  1.0000
  H   H29       1.0  0.78638  0.02162  0.19529  1.0000
  H   H30       1.0  0.21364  0.52162  0.30470  1.0000
  H   H31       1.0  0.71362  0.97839  0.69530  1.0000
  H   H32       1.0  0.28637  0.47838  0.80471  1.0000
  H   H33       1.0  0.80589  0.92640  0.30162  1.0000
  H   H34       1.0  0.19411  0.42640  0.19838  1.0000
  H   H35       1.0  0.69411  0.07360  0.80163  1.0000
  H   H36       1.0  0.30589  0.57359  0.69838  1.0000
  C   C1        1.0  0.08977  0.05513  0.14772  1.0000
  C   C2        1.0  0.91026  0.55515  0.35228  1.0000
  C   C3        1.0  0.41024  0.94486  0.64772  1.0000
  C   C4        1.0  0.58976  0.44485  0.85228  1.0000
  C   C5        1.0  0.03645  0.92076  0.20176  1.0000
  C   C6        1.0  0.96356  0.42078  0.29823  1.0000
  C   C7        1.0  0.46355  0.07923  0.70177  1.0000
  C   C8        1.0  0.53645  0.57922  0.79823  1.0000
  C   C9        1.0  0.06348  0.79122  0.13730  1.0000
  C   C10       1.0  0.93652  0.29124  0.36270  1.0000
  C   C11       1.0  0.43651  0.20878  0.63730  1.0000
  C   C12       1.0  0.56348  0.70877  0.86269  1.0000
  C   C13       1.0  0.87004  0.76744  0.08945  1.0000
  C   C14       1.0  0.12995  0.26744  0.41054  1.0000
  C   C15       1.0  0.62995  0.23256  0.58946  1.0000
  C   C16       1.0  0.37004  0.73256  0.91054  1.0000
  C   C17       1.0  0.73123  0.80807  0.17155  1.0000
  C   C18       1.0  0.26877  0.30807  0.32845  1.0000
  C   C19       1.0  0.76875  0.19193  0.67156  1.0000
  C   C20       1.0  0.23124  0.69193  0.82844  1.0000
  N   N1        1.0  0.82788  0.92626  0.22442  1.0000
  N   N2        1.0  0.17213  0.42627  0.27557  1.0000
  N   N3        1.0  0.67211  0.07374  0.72443  1.0000
  N   N4        1.0  0.32788  0.57372  0.77558  1.0000
  Cl  Cl1       1.0  0.12827  0.44492  0.04045  1.0000
  Cl  Cl2       1.0  0.87173  0.94492  0.45954  1.0000
  Cl  Cl3       1.0  0.37173  0.55508  0.54045  1.0000
  Cl  Cl4       1.0  0.62828  0.05508  0.95955  1.0000
  Cl  Cl5       1.0  0.59588  0.36264  0.11878  1.0000
  Cl  Cl6       1.0  0.40414  0.86265  0.38123  1.0000
  Cl  Cl7       1.0  0.90414  0.63737  0.61878  1.0000
  Cl  Cl8       1.0  0.09587  0.13735  0.88123  1.0000
  O   O1        1.0  0.26004  0.06636  0.12119  1.0000
  O   O2        1.0  0.73999  0.56638  0.37882  1.0000
  O   O3        1.0  0.23997  0.93363  0.62118  1.0000
  O   O4        1.0  0.76003  0.43363  0.87882  1.0000
  O   O5        1.0  0.45835  0.35702  0.86362  1.0000
  O   O6        1.0  0.54166  0.85703  0.63638  1.0000
  O   O7        1.0  0.04168  0.64298  0.36362  1.0000
  O   O8        1.0  0.95837  0.14297  0.13639  1.0000
