data_image0
_chemical_formula_structural       Ni4H48C32N32
_chemical_formula_sum              "Ni4 H48 C32 N32"
_cell_length_a       7.04398
_cell_length_b       11.6815
_cell_length_c       15.4448
_cell_angle_alpha    90
_cell_angle_beta     90
_cell_angle_gamma    90

_space_group_name_H-M_alt    "P 1"
_space_group_IT_number       1

loop_
  _space_group_symop_operation_xyz
  'x, y, z'

loop_
  _atom_site_type_symbol
  _atom_site_label
  _atom_site_symmetry_multiplicity
  _atom_site_fract_x
  _atom_site_fract_y
  _atom_site_fract_z
  _atom_site_occupancy
  Ni  Ni1       1.0  0.62378  0.52434  0.65528  1.0000
  Ni  Ni2       1.0  0.87624  0.47567  0.15528  1.0000
  Ni  Ni3       1.0  0.37623  0.02434  0.84472  1.0000
  Ni  Ni4       1.0  0.12377  0.97566  0.34472  1.0000
  H   H1        1.0  0.48988  0.47367  0.80902  1.0000
  H   H2        1.0  0.01012  0.52633  0.30902  1.0000
  H   H3        1.0  0.51012  0.97366  0.69097  1.0000
  H   H4        1.0  0.98988  0.02634  0.19098  1.0000
  H   H5        1.0  0.35809  0.57656  0.76484  1.0000
  H   H6        1.0  0.14192  0.42343  0.26484  1.0000
  H   H7        1.0  0.64193  0.07656  0.73516  1.0000
  H   H8        1.0  0.85808  0.92344  0.23516  1.0000
  H   H9        1.0  0.15162  0.41981  0.76346  1.0000
  H   H10       1.0  0.34839  0.58019  0.26346  1.0000
  H   H11       1.0  0.84839  0.91981  0.73654  1.0000
  H   H12       1.0  0.65161  0.08020  0.23654  1.0000
  H   H13       1.0  0.34236  0.32944  0.73347  1.0000
  H   H14       1.0  0.15765  0.67056  0.23348  1.0000
  H   H15       1.0  0.65764  0.82944  0.76652  1.0000
  H   H16       1.0  0.84236  0.17056  0.26653  1.0000
  H   H17       1.0  0.12484  0.37815  0.60667  1.0000
  H   H18       1.0  0.37517  0.62185  0.10668  1.0000
  H   H19       1.0  0.87515  0.87814  0.89332  1.0000
  H   H20       1.0  0.62483  0.12185  0.39333  1.0000
  H   H21       1.0  0.17586  0.52473  0.62375  1.0000
  H   H22       1.0  0.32415  0.47527  0.12375  1.0000
  H   H23       1.0  0.82415  0.02472  0.87625  1.0000
  H   H24       1.0  0.67586  0.97527  0.37625  1.0000
  H   H25       1.0  0.47261  0.26408  0.61887  1.0000
  H   H26       1.0  0.02739  0.73593  0.11888  1.0000
  H   H27       1.0  0.52737  0.76408  0.88112  1.0000
  H   H28       1.0  0.97261  0.23592  0.38113  1.0000
  H   H29       1.0  0.59877  0.31100  0.52552  1.0000
  H   H30       1.0  0.90122  0.68901  0.02553  1.0000
  H   H31       1.0  0.40121  0.81100  0.97446  1.0000
  H   H32       1.0  0.09877  0.18899  0.47449  1.0000
  H   H33       1.0  0.35486  0.27008  0.51632  1.0000
  H   H34       1.0  0.14514  0.72993  0.01633  1.0000
  H   H35       1.0  0.64512  0.77006  0.98367  1.0000
  H   H36       1.0  0.85485  0.22992  0.48368  1.0000
  H   H37       1.0  0.50058  0.48253  0.45146  1.0000
  H   H38       1.0  0.99941  0.51748  0.95147  1.0000
  H   H39       1.0  0.49941  0.98252  0.04853  1.0000
  H   H40       1.0  0.00057  0.01747  0.54854  1.0000
  H   H41       1.0  0.33766  0.57852  0.50188  1.0000
  H   H42       1.0  0.16234  0.42149  0.00189  1.0000
  H   H43       1.0  0.66235  0.07850  0.99811  1.0000
  H   H44       1.0  0.83765  0.92147  0.49812  1.0000
  H   H45       1.0  0.25423  0.44649  0.45648  1.0000
  H   H46       1.0  0.24576  0.55352  0.95649  1.0000
  H   H47       1.0  0.74577  0.94647  0.04351  1.0000
  H   H48       1.0  0.75422  0.05351  0.54352  1.0000
  C   C1        1.0  0.86333  0.58662  0.48909  1.0000
  C   C2        1.0  0.63666  0.41338  0.98909  1.0000
  C   C3        1.0  0.13665  0.08662  0.01091  1.0000
  C   C4        1.0  0.36335  0.91337  0.51091  1.0000
  C   C5        1.0  0.82560  0.28725  0.70151  1.0000
  C   C6        1.0  0.67441  0.71276  0.20153  1.0000
  C   C7        1.0  0.17440  0.78725  0.79848  1.0000
  C   C8        1.0  0.32561  0.21276  0.29849  1.0000
  C   C9        1.0  0.05091  0.15071  0.73849  1.0000
  C   C10       1.0  0.44910  0.84930  0.23850  1.0000
  C   C11       1.0  0.94910  0.65070  0.76150  1.0000
  C   C12       1.0  0.55092  0.34929  0.26151  1.0000
  C   C13       1.0  0.28259  0.41542  0.72458  1.0000
  C   C14       1.0  0.21742  0.58458  0.22459  1.0000
  C   C15       1.0  0.71742  0.91541  0.77541  1.0000
  C   C16       1.0  0.78259  0.08458  0.27542  1.0000
  C   C17       1.0  0.23455  0.43804  0.63011  1.0000
  C   C18       1.0  0.26546  0.56196  0.13012  1.0000
  C   C19       1.0  0.76545  0.93804  0.86988  1.0000
  C   C20       1.0  0.73455  0.06196  0.36989  1.0000
  C   C21       1.0  0.96530  0.73056  0.39894  1.0000
  C   C22       1.0  0.53471  0.26944  0.89894  1.0000
  C   C23       1.0  0.03469  0.23056  0.10106  1.0000
  C   C24       1.0  0.46531  0.76944  0.60106  1.0000
  C   C25       1.0  0.46084  0.31219  0.55833  1.0000
  C   C26       1.0  0.03916  0.68782  0.05834  1.0000
  C   C27       1.0  0.53915  0.81218  0.94166  1.0000
  C   C28       1.0  0.96084  0.18781  0.44167  1.0000
  C   C29       1.0  0.37228  0.48830  0.49135  1.0000
  C   C30       1.0  0.12771  0.51171  0.99135  1.0000
  C   C31       1.0  0.62771  0.98829  0.00865  1.0000
  C   C32       1.0  0.87227  0.01169  0.50866  1.0000
  N   N1        1.0  0.79704  0.54350  0.55096  1.0000
  N   N2        1.0  0.70297  0.45650  0.05096  1.0000
  N   N3        1.0  0.20296  0.04350  0.94904  1.0000
  N   N4        1.0  0.29704  0.95650  0.44904  1.0000
  N   N5        1.0  0.94011  0.62336  0.41783  1.0000
  N   N6        1.0  0.55988  0.37665  0.91783  1.0000
  N   N7        1.0  0.05989  0.12336  0.08217  1.0000
  N   N8        1.0  0.44011  0.87665  0.58217  1.0000
  N   N9        1.0  0.75014  0.37583  0.69026  1.0000
  N   N10       1.0  0.74988  0.62418  0.19027  1.0000
  N   N11       1.0  0.24987  0.87583  0.80973  1.0000
  N   N12       1.0  0.25015  0.12417  0.30974  1.0000
  N   N13       1.0  0.88722  0.18318  0.70891  1.0000
  N   N14       1.0  0.61279  0.81683  0.20892  1.0000
  N   N15       1.0  0.11277  0.68318  0.79109  1.0000
  N   N16       1.0  0.38722  0.31683  0.29110  1.0000
  N   N17       1.0  0.42455  0.50001  0.75307  1.0000
  N   N18       1.0  0.07546  0.49999  0.25308  1.0000
  N   N19       1.0  0.57546  0.00001  0.74692  1.0000
  N   N20       1.0  0.92454  1.00000  0.24692  1.0000
  N   N21       1.0  0.40656  0.43179  0.57515  1.0000
  N   N22       1.0  0.09343  0.56822  0.07516  1.0000
  N   N23       1.0  0.59343  0.93178  0.92484  1.0000
  N   N24       1.0  0.90656  0.06821  0.42485  1.0000
  N   N25       1.0  0.99315  0.82443  0.37422  1.0000
  N   N26       1.0  0.50686  0.17557  0.87423  1.0000
  N   N27       1.0  0.00683  0.32443  0.12577  1.0000
  N   N28       1.0  0.49317  0.67557  0.62577  1.0000
  N   N29       1.0  0.19434  0.10998  0.76273  1.0000
  N   N30       1.0  0.30566  0.89003  0.26274  1.0000
  N   N31       1.0  0.80567  0.60997  0.73726  1.0000
  N   N32       1.0  0.69435  0.39002  0.23727  1.0000
