data_image0
_chemical_formula_structural       Cu4P16H72C24N24Cl4
_chemical_formula_sum              "Cu4 P16 H72 C24 N24 Cl4"
_cell_length_a       10.7562
_cell_length_b       11.1118
_cell_length_c       12.6817
_cell_angle_alpha    104.002
_cell_angle_beta     91.2441
_cell_angle_gamma    102.692

_space_group_name_H-M_alt    "P 1"
_space_group_IT_number       1

loop_
  _space_group_symop_operation_xyz
  'x, y, z'

loop_
  _atom_site_type_symbol
  _atom_site_label
  _atom_site_symmetry_multiplicity
  _atom_site_fract_x
  _atom_site_fract_y
  _atom_site_fract_z
  _atom_site_occupancy
  Cu  Cu1       1.0  0.79020  0.16422  0.37911  1.0000
  Cu  Cu2       1.0  0.20980  0.83578  0.62089  1.0000
  Cu  Cu3       1.0  0.71727  0.32984  0.62611  1.0000
  Cu  Cu4       1.0  0.28273  0.67016  0.37389  1.0000
  P   P1        1.0  0.96346  0.24472  0.30128  1.0000
  P   P2        1.0  0.03654  0.75528  0.69872  1.0000
  P   P3        1.0  0.06296  0.27536  0.08674  1.0000
  P   P4        1.0  0.93704  0.72464  0.91326  1.0000
  P   P5        1.0  0.18006  0.46790  0.29591  1.0000
  P   P6        1.0  0.81994  0.53210  0.70409  1.0000
  P   P7        1.0  0.22440  0.20195  0.24811  1.0000
  P   P8        1.0  0.77560  0.79805  0.75189  1.0000
  P   P9        1.0  0.56186  0.23855  0.71597  1.0000
  P   P10       1.0  0.43814  0.76145  0.28403  1.0000
  P   P11       1.0  0.34540  0.28462  0.85681  1.0000
  P   P12       1.0  0.65460  0.71538  0.14319  1.0000
  P   P13       1.0  0.33402  0.02224  0.71537  1.0000
  P   P14       1.0  0.66598  0.97776  0.28463  1.0000
  P   P15       1.0  0.52540  0.13022  0.91187  1.0000
  P   P16       1.0  0.47460  0.86978  0.08813  1.0000
  H   H1        1.0  0.74285  0.14952  0.11352  1.0000
  H   H2        1.0  0.25715  0.85048  0.88647  1.0000
  H   H3        1.0  0.82210  0.26699  0.04809  1.0000
  H   H4        1.0  0.17790  0.73301  0.95191  1.0000
  H   H5        1.0  0.77988  0.31500  0.18357  1.0000
  H   H6        1.0  0.22012  0.68500  0.81643  1.0000
  H   H7        1.0  0.00635  0.58394  0.42290  1.0000
  H   H8        1.0  0.99365  0.41606  0.57710  1.0000
  H   H9        1.0  0.87387  0.45093  0.41207  1.0000
  H   H10       1.0  0.12613  0.54907  0.58793  1.0000
  H   H11       1.0  0.91791  0.50840  0.29494  1.0000
  H   H12       1.0  0.08209  0.49160  0.70506  1.0000
  H   H13       1.0  0.13070  0.20267  0.47987  1.0000
  H   H14       1.0  0.86930  0.79732  0.52013  1.0000
  H   H15       1.0  0.15955  0.05856  0.39533  1.0000
  H   H16       1.0  0.84045  0.94144  0.60467  1.0000
  H   H17       1.0  0.00145  0.07113  0.42464  1.0000
  H   H18       1.0  0.99855  0.92887  0.57536  1.0000
  H   H19       1.0  0.15532  0.59770  0.10509  1.0000
  H   H20       1.0  0.84468  0.40230  0.89491  1.0000
  H   H21       1.0  0.17711  0.46056  0.00677  1.0000
  H   H22       1.0  0.82289  0.53944  0.99323  1.0000
  H   H23       1.0  0.29901  0.54383  0.11182  1.0000
  H   H24       1.0  0.70099  0.45617  0.88818  1.0000
  H   H25       1.0  0.26016  0.04794  0.04054  1.0000
  H   H26       1.0  0.73984  0.95206  0.95946  1.0000
  H   H27       1.0  0.13917  0.07560  0.95918  1.0000
  H   H28       1.0  0.86083  0.92440  0.04082  1.0000
  H   H29       1.0  0.09523  0.99268  0.06155  1.0000
  H   H30       1.0  0.90477  0.00732  0.93845  1.0000
  H   H31       1.0  0.39896  0.48880  0.43604  1.0000
  H   H32       1.0  0.60104  0.51120  0.56396  1.0000
  H   H33       1.0  0.41116  0.32682  0.40583  1.0000
  H   H34       1.0  0.58884  0.67318  0.59417  1.0000
  H   H35       1.0  0.27944  0.37495  0.47528  1.0000
  H   H36       1.0  0.72056  0.62505  0.52472  1.0000
  H   H37       1.0  0.52282  0.50135  0.71972  1.0000
  H   H38       1.0  0.47718  0.49865  0.28028  1.0000
  H   H39       1.0  0.36299  0.46959  0.75806  1.0000
  H   H40       1.0  0.63701  0.53041  0.24194  1.0000
  H   H41       1.0  0.40146  0.37884  0.63304  1.0000
  H   H42       1.0  0.59854  0.62116  0.36696  1.0000
  H   H43       1.0  0.35985  0.00412  0.49253  1.0000
  H   H44       1.0  0.64015  0.99588  0.50747  1.0000
  H   H45       1.0  0.48919  0.13770  0.49526  1.0000
  H   H46       1.0  0.51081  0.86230  0.50474  1.0000
  H   H47       1.0  0.33875  0.16210  0.54005  1.0000
  H   H48       1.0  0.66125  0.83790  0.45995  1.0000
  H   H49       1.0  0.72896  0.06321  0.73952  1.0000
  H   H50       1.0  0.27104  0.93679  0.26048  1.0000
  H   H51       1.0  0.77106  0.12952  0.88145  1.0000
  H   H52       1.0  0.22894  0.87048  0.11855  1.0000
  H   H53       1.0  0.81714  0.22339  0.78638  1.0000
  H   H54       1.0  0.18286  0.77661  0.21362  1.0000
  H   H55       1.0  0.10676  0.13711  0.66822  1.0000
  H   H56       1.0  0.89325  0.86289  0.33178  1.0000
  H   H57       1.0  0.09422  0.20466  0.80867  1.0000
  H   H58       1.0  0.90578  0.79534  0.19133  1.0000
  H   H59       1.0  0.06818  0.03664  0.75942  1.0000
  H   H60       1.0  0.93182  0.96336  0.24058  1.0000
  H   H61       1.0  0.55984  0.41715  0.02367  1.0000
  H   H62       1.0  0.44017  0.58285  0.97633  1.0000
  H   H63       1.0  0.53254  0.30283  0.10282  1.0000
  H   H64       1.0  0.46746  0.69717  0.89718  1.0000
  H   H65       1.0  0.41083  0.38212  0.08319  1.0000
  H   H66       1.0  0.58917  0.61788  0.91681  1.0000
  H   H67       1.0  0.40968  0.80626  0.76569  1.0000
  H   H68       1.0  0.59032  0.19374  0.23431  1.0000
  H   H69       1.0  0.53865  0.89394  0.86527  1.0000
  H   H70       1.0  0.46135  0.10606  0.13473  1.0000
  H   H71       1.0  0.54583  0.90370  0.72742  1.0000
  H   H72       1.0  0.45417  0.09630  0.27258  1.0000
  C   C1        1.0  0.81408  0.24013  0.12608  1.0000
  C   C2        1.0  0.18592  0.75987  0.87392  1.0000
  C   C3        1.0  0.95502  0.49164  0.37070  1.0000
  C   C4        1.0  0.04497  0.50836  0.62930  1.0000
  C   C5        1.0  0.09451  0.12334  0.40759  1.0000
  C   C6        1.0  0.90549  0.87666  0.59241  1.0000
  C   C7        1.0  0.19502  0.51287  0.09322  1.0000
  C   C8        1.0  0.80498  0.48713  0.90678  1.0000
  C   C9        1.0  0.16585  0.07062  0.04174  1.0000
  C   C10       1.0  0.83415  0.92938  0.95826  1.0000
  C   C11       1.0  0.34435  0.38957  0.41124  1.0000
  C   C12       1.0  0.65565  0.61043  0.58876  1.0000
  C   C13       1.0  0.43767  0.42558  0.71820  1.0000
  C   C14       1.0  0.56233  0.57442  0.28180  1.0000
  C   C15       1.0  0.40740  0.10125  0.53816  1.0000
  C   C16       1.0  0.59260  0.89875  0.46184  1.0000
  C   C17       1.0  0.74099  0.15042  0.80583  1.0000
  C   C18       1.0  0.25901  0.84958  0.19417  1.0000
  C   C19       1.0  0.12571  0.12803  0.75113  1.0000
  C   C20       1.0  0.87429  0.87197  0.24887  1.0000
  C   C21       1.0  0.48718  0.34103  0.04393  1.0000
  C   C22       1.0  0.51282  0.65897  0.95607  1.0000
  C   C23       1.0  0.48178  0.89614  0.79297  1.0000
  C   C24       1.0  0.51822  0.10386  0.20703  1.0000
  N   N1        1.0  0.94037  0.22751  0.16353  1.0000
  N   N2        1.0  0.05963  0.77249  0.83647  1.0000
  N   N3        1.0  0.04221  0.40380  0.34959  1.0000
  N   N4        1.0  0.95779  0.59620  0.65042  1.0000
  N   N5        1.0  0.08141  0.16627  0.30742  1.0000
  N   N6        1.0  0.91858  0.83373  0.69258  1.0000
  N   N7        1.0  0.13372  0.42862  0.15994  1.0000
  N   N8        1.0  0.86628  0.57138  0.84006  1.0000
  N   N9        1.0  0.17249  0.19534  0.11814  1.0000
  N   N10       1.0  0.82751  0.80466  0.88186  1.0000
  N   N11       1.0  0.27523  0.36491  0.30323  1.0000
  N   N12       1.0  0.72477  0.63509  0.69677  1.0000
  N   N13       1.0  0.46682  0.33635  0.77923  1.0000
  N   N14       1.0  0.53318  0.66365  0.22077  1.0000
  N   N15       1.0  0.45305  0.09942  0.64836  1.0000
  N   N16       1.0  0.54695  0.90058  0.35164  1.0000
  N   N17       1.0  0.62270  0.19623  0.82306  1.0000
  N   N18       1.0  0.37730  0.80376  0.17694  1.0000
  N   N19       1.0  0.26203  0.13921  0.77882  1.0000
  N   N20       1.0  0.73797  0.86079  0.22118  1.0000
  N   N21       1.0  0.43153  0.23631  0.94797  1.0000
  N   N22       1.0  0.56847  0.76369  0.05203  1.0000
  N   N23       1.0  0.41951  0.00433  0.82345  1.0000
  N   N24       1.0  0.58049  0.99567  0.17655  1.0000
  Cl  Cl1       1.0  0.65958  0.31322  0.43812  1.0000
  Cl  Cl2       1.0  0.34042  0.68678  0.56188  1.0000
  Cl  Cl3       1.0  0.85106  0.18438  0.56627  1.0000
  Cl  Cl4       1.0  0.14894  0.81561  0.43373  1.0000
