data_image0
_chemical_formula_structural       Cd2H44C60N16O8
_chemical_formula_sum              "Cd2 H44 C60 N16 O8"
_cell_length_a       9.25163
_cell_length_b       11.4153
_cell_length_c       13.4577
_cell_angle_alpha    75.8318
_cell_angle_beta     83.328
_cell_angle_gamma    80.2931

_space_group_name_H-M_alt    "P 1"
_space_group_IT_number       1

loop_
  _space_group_symop_operation_xyz
  'x, y, z'

loop_
  _atom_site_type_symbol
  _atom_site_label
  _atom_site_symmetry_multiplicity
  _atom_site_fract_x
  _atom_site_fract_y
  _atom_site_fract_z
  _atom_site_occupancy
  Cd  Cd1       1.0  0.27550  0.65051  0.81205  1.0000
  Cd  Cd2       1.0  0.72449  0.34949  0.18795  1.0000
  H   H1        1.0  0.59393  0.76775  0.98992  1.0000
  H   H2        1.0  0.40607  0.23225  0.01008  1.0000
  H   H3        1.0  0.70443  0.83120  0.12524  1.0000
  H   H4        1.0  0.29557  0.16880  0.87476  1.0000
  H   H5        1.0  0.27314  0.98726  0.22818  1.0000
  H   H6        1.0  0.72685  0.01274  0.77182  1.0000
  H   H7        1.0  0.16403  0.91846  0.09432  1.0000
  H   H8        1.0  0.83597  0.08154  0.90568  1.0000
  H   H9        1.0  0.62296  0.86641  0.31913  1.0000
  H   H10       1.0  0.37704  0.13359  0.68087  1.0000
  H   H11       1.0  0.64609  0.00868  0.23292  1.0000
  H   H12       1.0  0.35391  0.99132  0.76708  1.0000
  H   H13       1.0  0.44797  0.19148  0.24402  1.0000
  H   H14       1.0  0.55203  0.80852  0.75598  1.0000
  H   H15       1.0  0.22875  0.23237  0.39756  1.0000
  H   H16       1.0  0.77125  0.76763  0.60244  1.0000
  H   H17       1.0  0.93386  0.10604  0.69549  1.0000
  H   H18       1.0  0.06613  0.89396  0.30451  1.0000
  H   H19       1.0  0.99438  0.89469  0.80841  1.0000
  H   H20       1.0  0.00562  0.10531  0.19159  1.0000
  H   H21       1.0  0.32729  0.81058  0.59095  1.0000
  H   H22       1.0  0.67270  0.18942  0.40905  1.0000
  H   H23       1.0  0.60097  0.67586  0.51882  1.0000
  H   H24       1.0  0.39903  0.32414  0.48118  1.0000
  H   H25       1.0  0.79714  0.61878  0.38856  1.0000
  H   H26       1.0  0.20286  0.38122  0.61144  1.0000
  H   H27       1.0  0.82201  0.24143  0.55151  1.0000
  H   H28       1.0  0.17799  0.75857  0.44849  1.0000
  H   H29       1.0  0.63131  0.30160  0.68478  1.0000
  H   H30       1.0  0.36869  0.69840  0.31522  1.0000
  H   H31       1.0  0.05778  0.38109  0.42623  1.0000
  H   H32       1.0  0.94222  0.61891  0.57376  1.0000
  H   H33       1.0  0.94693  0.30072  0.37570  1.0000
  H   H34       1.0  0.05307  0.69928  0.62430  1.0000
  H   H35       1.0  0.10915  0.59046  0.32066  1.0000
  H   H36       1.0  0.89085  0.40954  0.67934  1.0000
  H   H37       1.0  0.05855  0.71353  0.12019  1.0000
  H   H38       1.0  0.94144  0.28647  0.87981  1.0000
  H   H39       1.0  0.95715  0.73992  0.95851  1.0000
  H   H40       1.0  0.04285  0.26008  0.04149  1.0000
  H   H41       1.0  0.68609  0.62161  0.78877  1.0000
  H   H42       1.0  0.31391  0.37839  0.21123  1.0000
  H   H43       1.0  0.63130  0.45365  0.94020  1.0000
  H   H44       1.0  0.36870  0.54635  0.05980  1.0000
  C   C1        1.0  0.30949  0.79120  0.95704  1.0000
  C   C2        1.0  0.69051  0.20880  0.04297  1.0000
  C   C3        1.0  0.37282  0.83737  0.03505  1.0000
  C   C4        1.0  0.62718  0.16263  0.96495  1.0000
  C   C5        1.0  0.52507  0.81493  0.04332  1.0000
  C   C6        1.0  0.47493  0.18507  0.95667  1.0000
  C   C7        1.0  0.58573  0.85079  0.11874  1.0000
  C   C8        1.0  0.41427  0.14921  0.88126  1.0000
  C   C9        1.0  0.49518  0.91131  0.18693  1.0000
  C   C10       1.0  0.50482  0.08869  0.81307  1.0000
  C   C11       1.0  0.34342  0.93692  0.17714  1.0000
  C   C12       1.0  0.65658  0.06308  0.82286  1.0000
  C   C13       1.0  0.28232  0.89942  0.10224  1.0000
  C   C14       1.0  0.71768  0.10057  0.89776  1.0000
  C   C15       1.0  0.56522  0.94745  0.26902  1.0000
  C   C16       1.0  0.43478  0.05255  0.73097  1.0000
  C   C17       1.0  0.40451  0.13075  0.31197  1.0000
  C   C18       1.0  0.59550  0.86925  0.68803  1.0000
  C   C19       1.0  0.29563  0.14774  0.38867  1.0000
  C   C20       1.0  0.70437  0.85226  0.61133  1.0000
  C   C21       1.0  0.29369  0.03046  0.45474  1.0000
  C   C22       1.0  0.70631  0.96954  0.54526  1.0000
  C   C23       1.0  0.20590  0.99492  0.55121  1.0000
  C   C24       1.0  0.79410  0.00508  0.44879  1.0000
  C   C25       1.0  0.02246  0.04000  0.67138  1.0000
  C   C26       1.0  0.97754  0.96000  0.32861  1.0000
  C   C27       1.0  0.05404  0.92349  0.73412  1.0000
  C   C28       1.0  0.94596  0.07651  0.26588  1.0000
  C   C29       1.0  0.23813  0.87666  0.61382  1.0000
  C   C30       1.0  0.76187  0.12334  0.38618  1.0000
  C   C31       1.0  0.49969  0.52996  0.69400  1.0000
  C   C32       1.0  0.50031  0.47004  0.30600  1.0000
  C   C33       1.0  0.60848  0.49285  0.61144  1.0000
  C   C34       1.0  0.39152  0.50715  0.38856  1.0000
  C   C35       1.0  0.65295  0.58136  0.52649  1.0000
  C   C36       1.0  0.34705  0.41864  0.47350  1.0000
  C   C37       1.0  0.76224  0.54866  0.45365  1.0000
  C   C38       1.0  0.23776  0.45133  0.54635  1.0000
  C   C39       1.0  0.82633  0.42669  0.46345  1.0000
  C   C40       1.0  0.17367  0.57331  0.53655  1.0000
  C   C41       1.0  0.77595  0.33717  0.54540  1.0000
  C   C42       1.0  0.22405  0.66283  0.45460  1.0000
  C   C43       1.0  0.66872  0.37007  0.61935  1.0000
  C   C44       1.0  0.33128  0.62993  0.38065  1.0000
  C   C45       1.0  0.95386  0.38957  0.39094  1.0000
  C   C46       1.0  0.04614  0.61043  0.60905  1.0000
  C   C47       1.0  0.04019  0.57394  0.26706  1.0000
  C   C48       1.0  0.95981  0.42606  0.73294  1.0000
  C   C49       1.0  0.01164  0.63510  0.16724  1.0000
  C   C50       1.0  0.98836  0.36490  0.83276  1.0000
  C   C51       1.0  0.91585  0.56756  0.13765  1.0000
  C   C52       1.0  0.08415  0.43244  0.86235  1.0000
  C   C53       1.0  0.85137  0.58425  0.04034  1.0000
  C   C54       1.0  0.14863  0.41575  0.95966  1.0000
  C   C55       1.0  0.88160  0.67750  0.95455  1.0000
  C   C56       1.0  0.11840  0.32250  0.04545  1.0000
  C   C57       1.0  0.73459  0.61186  0.86089  1.0000
  C   C58       1.0  0.26541  0.38815  0.13911  1.0000
  C   C59       1.0  0.70354  0.51796  0.94528  1.0000
  C   C60       1.0  0.29646  0.48204  0.05472  1.0000
  N   N1        1.0  0.46042  0.00974  0.33441  1.0000
  N   N2        1.0  0.53958  0.99026  0.66559  1.0000
  N   N3        1.0  0.39461  0.94602  0.42007  1.0000
  N   N4        1.0  0.60539  0.05398  0.57993  1.0000
  N   N5        1.0  0.09714  0.07718  0.58066  1.0000
  N   N6        1.0  0.90286  0.92282  0.41934  1.0000
  N   N7        1.0  0.16319  0.84187  0.70458  1.0000
  N   N8        1.0  0.83681  0.15813  0.29542  1.0000
  N   N9        1.0  0.96523  0.47659  0.29251  1.0000
  N   N10       1.0  0.03477  0.52341  0.70749  1.0000
  N   N11       1.0  0.88872  0.47196  0.21510  1.0000
  N   N12       1.0  0.11128  0.52805  0.78490  1.0000
  N   N13       1.0  0.76260  0.50403  0.03410  1.0000
  N   N14       1.0  0.23740  0.49597  0.96590  1.0000
  N   N15       1.0  0.82423  0.69109  0.86474  1.0000
  N   N16       1.0  0.17577  0.30891  0.13526  1.0000
  O   O1        1.0  0.40367  0.74385  0.89362  1.0000
  O   O2        1.0  0.59633  0.25614  0.10638  1.0000
  O   O3        1.0  0.17203  0.79640  0.95717  1.0000
  O   O4        1.0  0.82797  0.20360  0.04283  1.0000
  O   O5        1.0  0.48049  0.45603  0.77899  1.0000
  O   O6        1.0  0.51950  0.54397  0.22101  1.0000
  O   O7        1.0  0.43310  0.64106  0.67212  1.0000
  O   O8        1.0  0.56690  0.35894  0.32788  1.0000
