data_image0
_chemical_formula_structural       Cd2H36C52N12O16
_chemical_formula_sum              "Cd2 H36 C52 N12 O16"
_cell_length_a       8.51741
_cell_length_b       11.6505
_cell_length_c       14.916
_cell_angle_alpha    98.7988
_cell_angle_beta     100.273
_cell_angle_gamma    104.679

_space_group_name_H-M_alt    "P 1"
_space_group_IT_number       1

loop_
  _space_group_symop_operation_xyz
  'x, y, z'

loop_
  _atom_site_type_symbol
  _atom_site_label
  _atom_site_symmetry_multiplicity
  _atom_site_fract_x
  _atom_site_fract_y
  _atom_site_fract_z
  _atom_site_occupancy
  Cd  Cd1       1.0  0.11872  0.41835  0.41833  1.0000
  Cd  Cd2       1.0  0.88128  0.58165  0.58167  1.0000
  H   H1        1.0  0.75906  0.31832  0.28169  1.0000
  H   H2        1.0  0.24093  0.68168  0.71830  1.0000
  H   H3        1.0  0.61611  0.32800  0.12077  1.0000
  H   H4        1.0  0.38389  0.67200  0.87922  1.0000
  H   H5        1.0  0.04860  0.61966  0.12338  1.0000
  H   H6        1.0  0.95140  0.38034  0.87662  1.0000
  H   H7        1.0  0.17497  0.59467  0.28116  1.0000
  H   H8        1.0  0.82503  0.40533  0.71884  1.0000
  H   H9        1.0  0.81419  0.55569  0.98531  1.0000
  H   H10       1.0  0.18582  0.44431  0.01469  1.0000
  H   H11       1.0  0.37607  0.26280  0.85474  1.0000
  H   H12       1.0  0.62393  0.73721  0.14526  1.0000
  H   H13       1.0  0.44593  0.52864  0.57596  1.0000
  H   H14       1.0  0.55407  0.47136  0.42404  1.0000
  H   H15       1.0  0.57358  0.51081  0.73378  1.0000
  H   H16       1.0  0.42642  0.48919  0.26622  1.0000
  H   H17       1.0  0.14991  0.19938  0.70811  1.0000
  H   H18       1.0  0.85009  0.80062  0.29189  1.0000
  H   H19       1.0  0.03729  0.23198  0.55060  1.0000
  H   H20       1.0  0.96271  0.76802  0.44940  1.0000
  H   H21       1.0  0.39607  0.23942  0.19873  1.0000
  H   H22       1.0  0.60393  0.76058  0.80127  1.0000
  H   H23       1.0  0.41039  0.07971  0.06725  1.0000
  H   H24       1.0  0.58962  0.92029  0.93275  1.0000
  H   H25       1.0  0.94975  0.84534  0.09514  1.0000
  H   H26       1.0  0.05025  0.15466  0.90486  1.0000
  H   H27       1.0  0.93788  0.00636  0.22667  1.0000
  H   H28       1.0  0.06213  0.99364  0.77333  1.0000
  H   H29       1.0  0.57598  0.77220  0.48466  1.0000
  H   H30       1.0  0.42402  0.22780  0.51534  1.0000
  H   H31       1.0  0.77210  0.97688  0.56702  1.0000
  H   H32       1.0  0.22790  0.02311  0.43298  1.0000
  H   H33       1.0  0.39726  0.04821  0.70807  1.0000
  H   H34       1.0  0.60274  0.95179  0.29193  1.0000
  H   H35       1.0  0.20148  0.84416  0.62606  1.0000
  H   H36       1.0  0.79852  0.15584  0.37394  1.0000
  C   C1        1.0  0.81745  0.38316  0.24334  1.0000
  C   C2        1.0  0.18255  0.61684  0.75666  1.0000
  C   C3        1.0  0.73886  0.38897  0.15531  1.0000
  C   C4        1.0  0.26114  0.61103  0.84468  1.0000
  C   C5        1.0  0.82175  0.47421  0.10955  1.0000
  C   C6        1.0  0.17826  0.52579  0.89045  1.0000
  C   C7        1.0  0.98006  0.55130  0.15568  1.0000
  C   C8        1.0  0.01994  0.44870  0.84432  1.0000
  C   C9        1.0  0.05111  0.53819  0.24353  1.0000
  C   C10       1.0  0.94890  0.46181  0.75647  1.0000
  C   C11       1.0  0.74957  0.48206  0.01559  1.0000
  C   C12       1.0  0.25044  0.51795  0.98441  1.0000
  C   C13       1.0  0.43786  0.34143  0.82829  1.0000
  C   C14       1.0  0.56214  0.65857  0.17171  1.0000
  C   C15       1.0  0.38390  0.45704  0.60764  1.0000
  C   C16       1.0  0.61610  0.54296  0.39236  1.0000
  C   C17       1.0  0.45518  0.44657  0.69577  1.0000
  C   C18       1.0  0.54482  0.55343  0.30423  1.0000
  C   C19       1.0  0.37190  0.35300  0.73427  1.0000
  C   C20       1.0  0.62810  0.64700  0.26573  1.0000
  C   C21       1.0  0.22053  0.27249  0.68079  1.0000
  C   C22       1.0  0.77947  0.72751  0.31921  1.0000
  C   C23       1.0  0.15669  0.29018  0.59323  1.0000
  C   C24       1.0  0.84331  0.70982  0.40677  1.0000
  C   C25       1.0  0.15788  0.22657  0.29727  1.0000
  C   C26       1.0  0.84212  0.77343  0.70273  1.0000
  C   C27       1.0  0.16689  0.13081  0.21981  1.0000
  C   C28       1.0  0.83311  0.86919  0.78018  1.0000
  C   C29       1.0  0.29996  0.15250  0.17523  1.0000
  C   C30       1.0  0.70004  0.84750  0.82477  1.0000
  C   C31       1.0  0.30790  0.06513  0.10262  1.0000
  C   C32       1.0  0.69210  0.93487  0.89738  1.0000
  C   C33       1.0  0.18015  0.95583  0.07571  1.0000
  C   C34       1.0  0.81985  0.04417  0.92429  1.0000
  C   C35       1.0  0.04629  0.93179  0.11902  1.0000
  C   C36       1.0  0.95371  0.06821  0.88098  1.0000
  C   C37       1.0  0.04039  0.02030  0.19122  1.0000
  C   C38       1.0  0.95961  0.97970  0.80878  1.0000
  C   C39       1.0  0.26820  0.67125  0.50397  1.0000
  C   C40       1.0  0.73179  0.32875  0.49603  1.0000
  C   C41       1.0  0.37861  0.79670  0.55033  1.0000
  C   C42       1.0  0.62139  0.20330  0.44967  1.0000
  C   C43       1.0  0.53828  0.83407  0.53301  1.0000
  C   C44       1.0  0.46172  0.16592  0.46698  1.0000
  C   C45       1.0  0.64684  0.94683  0.57828  1.0000
  C   C46       1.0  0.35316  0.05317  0.42172  1.0000
  C   C47       1.0  0.59245  0.02129  0.64090  1.0000
  C   C48       1.0  0.40755  0.97871  0.35910  1.0000
  C   C49       1.0  0.43358  0.98670  0.65872  1.0000
  C   C50       1.0  0.56642  0.01330  0.34128  1.0000
  C   C51       1.0  0.32594  0.87352  0.61287  1.0000
  C   C52       1.0  0.67406  0.12648  0.38713  1.0000
  N   N1        1.0  0.97139  0.45585  0.28651  1.0000
  N   N2        1.0  0.02860  0.54415  0.71348  1.0000
  N   N3        1.0  0.61346  0.40210  0.96761  1.0000
  N   N4        1.0  0.38654  0.59791  0.03239  1.0000
  N   N5        1.0  0.56685  0.42444  0.88005  1.0000
  N   N6        1.0  0.43315  0.57556  0.11995  1.0000
  N   N7        1.0  0.23670  0.38117  0.55738  1.0000
  N   N8        1.0  0.76330  0.61883  0.44262  1.0000
  N   N9        1.0  0.18498  0.86286  0.99845  1.0000
  N   N10       1.0  0.81502  0.13714  0.00155  1.0000
  N   N11       1.0  0.70731  0.13908  0.69056  1.0000
  N   N12       1.0  0.29269  0.86092  0.30944  1.0000
  O   O1        1.0  0.03665  0.20227  0.33719  1.0000
  O   O2        1.0  0.96335  0.79773  0.66281  1.0000
  O   O3        1.0  0.27056  0.32800  0.31803  1.0000
  O   O4        1.0  0.72944  0.67200  0.68197  1.0000
  O   O5        1.0  0.29395  0.89003  0.95372  1.0000
  O   O6        1.0  0.70605  0.10996  0.04628  1.0000
  O   O7        1.0  0.07881  0.76230  0.98157  1.0000
  O   O8        1.0  0.92119  0.23770  0.01843  1.0000
  O   O9        1.0  0.31767  0.61010  0.44228  1.0000
  O   O10       1.0  0.68233  0.38990  0.55772  1.0000
  O   O11       1.0  0.13493  0.62974  0.53012  1.0000
  O   O12       1.0  0.86507  0.37027  0.46988  1.0000
  O   O13       1.0  0.84282  0.17275  0.66809  1.0000
  O   O14       1.0  0.15718  0.82725  0.33191  1.0000
  O   O15       1.0  0.66481  0.19957  0.75309  1.0000
  O   O16       1.0  0.33519  0.80042  0.24691  1.0000
