data_image0
_chemical_formula_structural       Cd2H32C32N8O8
_chemical_formula_sum              "Cd2 H32 C32 N8 O8"
_cell_length_a       8.96719
_cell_length_b       9.83749
_cell_length_c       12.0115
_cell_angle_alpha    79.0633
_cell_angle_beta     86.5412
_cell_angle_gamma    65.5415

_space_group_name_H-M_alt    "P 1"
_space_group_IT_number       1

loop_
  _space_group_symop_operation_xyz
  'x, y, z'

loop_
  _atom_site_type_symbol
  _atom_site_label
  _atom_site_symmetry_multiplicity
  _atom_site_fract_x
  _atom_site_fract_y
  _atom_site_fract_z
  _atom_site_occupancy
  Cd  Cd1       1.0  0.83997  0.13421  0.38416  1.0000
  Cd  Cd2       1.0  0.16004  0.86579  0.61584  1.0000
  H   H1        1.0  0.03941  0.20872  0.18357  1.0000
  H   H2        1.0  0.96059  0.79128  0.81643  1.0000
  H   H3        1.0  0.26650  0.84604  0.99198  1.0000
  H   H4        1.0  0.73351  0.15397  0.00802  1.0000
  H   H5        1.0  0.15139  0.69141  0.13264  1.0000
  H   H6        1.0  0.84863  0.30859  0.86736  1.0000
  H   H7        1.0  0.98443  0.80777  0.29224  1.0000
  H   H8        1.0  0.01558  0.19222  0.70776  1.0000
  H   H9        1.0  0.18937  0.25391  0.01615  1.0000
  H   H10       1.0  0.81063  0.74610  0.98385  1.0000
  H   H11       1.0  0.43810  0.05908  0.73568  1.0000
  H   H12       1.0  0.56190  0.94091  0.26432  1.0000
  H   H13       1.0  0.43893  0.43918  0.77863  1.0000
  H   H14       1.0  0.56106  0.56081  0.22137  1.0000
  H   H15       1.0  0.59728  0.56038  0.65028  1.0000
  H   H16       1.0  0.40271  0.43962  0.34972  1.0000
  H   H17       1.0  0.75859  0.43112  0.49343  1.0000
  H   H18       1.0  0.24140  0.56889  0.50657  1.0000
  H   H19       1.0  0.61426  0.07720  0.58352  1.0000
  H   H20       1.0  0.38574  0.92280  0.41648  1.0000
  H   H21       1.0  0.37997  0.38417  0.12638  1.0000
  H   H22       1.0  0.62002  0.61582  0.87362  1.0000
  H   H23       1.0  0.31558  0.25119  0.21764  1.0000
  H   H24       1.0  0.68441  0.74880  0.78236  1.0000
  H   H25       1.0  0.45698  0.19234  0.10750  1.0000
  H   H26       1.0  0.54302  0.80765  0.89251  1.0000
  H   H27       1.0  0.19231  0.38532  0.45016  1.0000
  H   H28       1.0  0.80770  0.61469  0.54983  1.0000
  H   H29       1.0  0.33586  0.19276  0.45507  1.0000
  H   H30       1.0  0.66414  0.80724  0.54493  1.0000
  H   H31       1.0  0.21989  0.24542  0.57633  1.0000
  H   H32       1.0  0.78012  0.75459  0.42367  1.0000
  C   C1        1.0  0.06782  0.09448  0.16860  1.0000
  C   C2        1.0  0.93218  0.90552  0.83140  1.0000
  C   C3        1.0  0.16296  0.03963  0.07695  1.0000
  C   C4        1.0  0.83705  0.96037  0.92305  1.0000
  C   C5        1.0  0.19431  0.89133  0.06317  1.0000
  C   C6        1.0  0.80570  0.10867  0.93683  1.0000
  C   C7        1.0  0.13038  0.80647  0.14052  1.0000
  C   C8        1.0  0.86963  0.19353  0.85948  1.0000
  C   C9        1.0  0.03703  0.87037  0.22961  1.0000
  C   C10       1.0  0.96298  0.12962  0.77039  1.0000
  C   C11       1.0  0.22560  0.13737  0.00166  1.0000
  C   C12       1.0  0.77440  0.86263  0.99834  1.0000
  C   C13       1.0  0.44050  0.15761  0.76524  1.0000
  C   C14       1.0  0.55949  0.84239  0.23475  1.0000
  C   C15       1.0  0.51815  0.24503  0.69330  1.0000
  C   C16       1.0  0.48185  0.75497  0.30670  1.0000
  C   C17       1.0  0.51227  0.38435  0.71118  1.0000
  C   C18       1.0  0.48772  0.61565  0.28882  1.0000
  C   C19       1.0  0.60001  0.45198  0.63987  1.0000
  C   C20       1.0  0.39999  0.54802  0.36013  1.0000
  C   C21       1.0  0.68920  0.38160  0.55227  1.0000
  C   C22       1.0  0.31079  0.61841  0.44773  1.0000
  C   C23       1.0  0.60853  0.18384  0.60167  1.0000
  C   C24       1.0  0.39147  0.81616  0.39833  1.0000
  C   C25       1.0  0.56375  0.22026  0.24963  1.0000
  C   C26       1.0  0.43625  0.77973  0.75038  1.0000
  C   C27       1.0  0.41822  0.26669  0.17123  1.0000
  C   C28       1.0  0.58178  0.73330  0.82878  1.0000
  C   C29       1.0  0.08410  0.22890  0.44118  1.0000
  C   C30       1.0  0.91590  0.77111  0.55882  1.0000
  C   C31       1.0  0.21518  0.26677  0.48328  1.0000
  C   C32       1.0  0.78482  0.73324  0.51671  1.0000
  N   N1        1.0  0.00730  0.01143  0.24337  1.0000
  N   N2        1.0  0.99270  0.98857  0.75663  1.0000
  N   N3        1.0  0.32310  0.08818  0.92072  1.0000
  N   N4        1.0  0.67689  0.91182  0.07928  1.0000
  N   N5        1.0  0.37957  0.19215  0.86186  1.0000
  N   N6        1.0  0.62043  0.80785  0.13813  1.0000
  N   N7        1.0  0.69192  0.25032  0.53311  1.0000
  N   N8        1.0  0.30808  0.74968  0.46689  1.0000
  O   O1        1.0  0.66108  0.28599  0.22576  1.0000
  O   O2        1.0  0.33891  0.71400  0.77425  1.0000
  O   O3        1.0  0.58602  0.11479  0.33598  1.0000
  O   O4        1.0  0.41398  0.88521  0.66402  1.0000
  O   O5        1.0  0.07597  0.10316  0.48880  1.0000
  O   O6        1.0  0.92402  0.89685  0.51120  1.0000
  O   O7        1.0  0.98597  0.31782  0.36170  1.0000
  O   O8        1.0  0.01403  0.68218  0.63829  1.0000
