data_image0
_chemical_formula_structural       H32Pb2C8N8Cl4
_chemical_formula_sum              "H32 Pb2 C8 N8 Cl4"
_cell_length_a       7.37146
_cell_length_b       7.3742
_cell_length_c       11.7551
_cell_angle_alpha    99.167
_cell_angle_beta     99.3289
_cell_angle_gamma    119.109

_space_group_name_H-M_alt    "P 1"
_space_group_IT_number       1

loop_
  _space_group_symop_operation_xyz
  'x, y, z'

loop_
  _atom_site_type_symbol
  _atom_site_label
  _atom_site_symmetry_multiplicity
  _atom_site_fract_x
  _atom_site_fract_y
  _atom_site_fract_z
  _atom_site_occupancy
  H   H1        1.0  0.10936  0.15138  0.41827  1.0000
  H   H2        1.0  0.73296  0.19091  0.08178  1.0000
  H   H3        1.0  0.89064  0.84864  0.58174  1.0000
  H   H4        1.0  0.26703  0.80908  0.91822  1.0000
  H   H5        1.0  0.12916  0.05899  0.28422  1.0000
  H   H6        1.0  0.77462  0.34480  0.21581  1.0000
  H   H7        1.0  0.87084  0.94102  0.71578  1.0000
  H   H8        1.0  0.22538  0.65519  0.78419  1.0000
  H   H9        1.0  0.72992  0.83493  0.99094  1.0000
  H   H10       1.0  0.84405  0.23958  0.50951  1.0000
  H   H11       1.0  0.27008  0.16507  0.00906  1.0000
  H   H12       1.0  0.15595  0.76043  0.49049  1.0000
  H   H13       1.0  0.91540  0.82052  0.08373  1.0000
  H   H14       1.0  0.73693  0.33211  0.41652  1.0000
  H   H15       1.0  0.08460  0.17948  0.91627  1.0000
  H   H16       1.0  0.26307  0.66790  0.58348  1.0000
  H   H17       1.0  0.33591  0.43693  0.32102  1.0000
  H   H18       1.0  0.11573  0.51485  0.17888  1.0000
  H   H19       1.0  0.66409  0.56307  0.67899  1.0000
  H   H20       1.0  0.88427  0.48512  0.82110  1.0000
  H   H21       1.0  0.13782  0.45581  0.38178  1.0000
  H   H22       1.0  0.07419  0.25622  0.11815  1.0000
  H   H23       1.0  0.86218  0.54420  0.61821  1.0000
  H   H24       1.0  0.92580  0.74375  0.88186  1.0000
  H   H25       1.0  0.63484  0.48139  0.10612  1.0000
  H   H26       1.0  0.37548  0.02854  0.39367  1.0000
  H   H27       1.0  0.36517  0.51861  0.89388  1.0000
  H   H28       1.0  0.62453  0.97147  0.60633  1.0000
  H   H29       1.0  0.66827  0.45894  0.95968  1.0000
  H   H30       1.0  0.49818  0.20789  0.54015  1.0000
  H   H31       1.0  0.33174  0.54106  0.04032  1.0000
  H   H32       1.0  0.50183  0.79213  0.45985  1.0000
  Pb  Pb1       1.0  0.66834  0.91842  0.25018  1.0000
  Pb  Pb2       1.0  0.33167  0.08157  0.74982  1.0000
  C   C1        1.0  0.16095  0.35851  0.31134  1.0000
  C   C2        1.0  0.04709  0.34961  0.18857  1.0000
  C   C3        1.0  0.83904  0.64149  0.68866  1.0000
  C   C4        1.0  0.95290  0.65037  0.81143  1.0000
  C   C5        1.0  0.61768  0.53629  0.02546  1.0000
  C   C6        1.0  0.51072  0.09214  0.47451  1.0000
  C   C7        1.0  0.38232  0.46371  0.97454  1.0000
  C   C8        1.0  0.48928  0.90787  0.52549  1.0000
  N   N1        1.0  0.06994  0.14091  0.32862  1.0000
  N   N2        1.0  0.81218  0.24124  0.17141  1.0000
  N   N3        1.0  0.93005  0.85910  0.67138  1.0000
  N   N4        1.0  0.18782  0.75876  0.82858  1.0000
  N   N5        1.0  0.75448  0.77250  0.06034  1.0000
  N   N6        1.0  0.71244  0.19470  0.43998  1.0000
  N   N7        1.0  0.24552  0.22750  0.93966  1.0000
  N   N8        1.0  0.28756  0.80531  0.56002  1.0000
  Cl  Cl1       1.0  0.81329  0.64383  0.36704  1.0000
  Cl  Cl2       1.0  0.27689  0.94649  0.13289  1.0000
  Cl  Cl3       1.0  0.18671  0.35617  0.63296  1.0000
  Cl  Cl4       1.0  0.72311  0.05351  0.86712  1.0000
