data_image0
_chemical_formula_structural       Cd2H48C66N4O12
_chemical_formula_sum              "Cd2 H48 C66 N4 O12"
_cell_length_a       11.634
_cell_length_b       12.074
_cell_length_c       12.835
_cell_angle_alpha    64.4094
_cell_angle_beta     73.9039
_cell_angle_gamma    82.4444

_space_group_name_H-M_alt    "P 1"
_space_group_IT_number       1

loop_
  _space_group_symop_operation_xyz
  'x, y, z'

loop_
  _atom_site_type_symbol
  _atom_site_label
  _atom_site_symmetry_multiplicity
  _atom_site_fract_x
  _atom_site_fract_y
  _atom_site_fract_z
  _atom_site_occupancy
  Cd  Cd1       1.0  0.74929  0.59168  0.21098  1.0000
  Cd  Cd2       1.0  0.25071  0.40832  0.78902  1.0000
  H   H1        1.0  0.93442  0.71462  0.44675  1.0000
  H   H2        1.0  0.06558  0.28538  0.55324  1.0000
  H   H3        1.0  0.00536  0.78451  0.57090  1.0000
  H   H4        1.0  0.99464  0.21549  0.42909  1.0000
  H   H5        1.0  0.13218  0.92046  0.59104  1.0000
  H   H6        1.0  0.86782  0.07954  0.40895  1.0000
  H   H7        1.0  0.26765  0.06965  0.40814  1.0000
  H   H8        1.0  0.73235  0.93035  0.59186  1.0000
  H   H9        1.0  0.28249  0.07765  0.21190  1.0000
  H   H10       1.0  0.71751  0.92235  0.78809  1.0000
  H   H11       1.0  0.29012  0.07700  0.06237  1.0000
  H   H12       1.0  0.70988  0.92299  0.93763  1.0000
  H   H13       1.0  0.18981  0.07922  0.98147  1.0000
  H   H14       1.0  0.81019  0.92079  0.01853  1.0000
  H   H15       1.0  0.19413  0.07765  0.83152  1.0000
  H   H16       1.0  0.80587  0.92235  0.16848  1.0000
  H   H17       1.0  0.21602  0.08480  0.63413  1.0000
  H   H18       1.0  0.78398  0.91520  0.36587  1.0000
  H   H19       1.0  0.37513  0.95831  0.55520  1.0000
  H   H20       1.0  0.62486  0.04170  0.44480  1.0000
  H   H21       1.0  0.51016  0.82498  0.68046  1.0000
  H   H22       1.0  0.48984  0.17503  0.31954  1.0000
  H   H23       1.0  0.57687  0.74373  0.86507  1.0000
  H   H24       1.0  0.42312  0.25627  0.13493  1.0000
  H   H25       1.0  0.02635  0.50221  0.16508  1.0000
  H   H26       1.0  0.97365  0.49779  0.83493  1.0000
  H   H27       1.0  0.14989  0.32636  0.13390  1.0000
  H   H28       1.0  0.85011  0.67364  0.86610  1.0000
  H   H29       1.0  0.04599  0.16362  0.12282  1.0000
  H   H30       1.0  0.95402  0.83639  0.87717  1.0000
  H   H31       1.0  0.82642  0.18883  0.13144  1.0000
  H   H32       1.0  0.17359  0.81117  0.86856  1.0000
  H   H33       1.0  0.71712  0.36906  0.16220  1.0000
  H   H34       1.0  0.28288  0.63093  0.83780  1.0000
  H   H35       1.0  0.77852  0.37800  0.44474  1.0000
  H   H36       1.0  0.22148  0.62200  0.55526  1.0000
  H   H37       1.0  0.67016  0.20250  0.62357  1.0000
  H   H38       1.0  0.32984  0.79750  0.37644  1.0000
  H   H39       1.0  0.45118  0.17844  0.64865  1.0000
  H   H40       1.0  0.54882  0.82155  0.35135  1.0000
  H   H41       1.0  0.34895  0.33508  0.49793  1.0000
  H   H42       1.0  0.65105  0.66492  0.50207  1.0000
  H   H43       1.0  0.47176  0.50565  0.32202  1.0000
  H   H44       1.0  0.52824  0.49435  0.67798  1.0000
  H   H45       1.0  0.01576  0.81352  0.06015  1.0000
  H   H46       1.0  0.98424  0.18648  0.93985  1.0000
  H   H47       1.0  0.47951  0.81897  0.18583  1.0000
  H   H48       1.0  0.52049  0.18103  0.81417  1.0000
  C   C1        1.0  0.91142  0.70880  0.24877  1.0000
  C   C2        1.0  0.08858  0.29120  0.75123  1.0000
  C   C3        1.0  0.99679  0.78344  0.25760  1.0000
  C   C4        1.0  0.00321  0.21656  0.74239  1.0000
  C   C5        1.0  0.99578  0.77779  0.36789  1.0000
  C   C6        1.0  0.00422  0.22221  0.63210  1.0000
  C   C7        1.0  0.07030  0.85300  0.37903  1.0000
  C   C8        1.0  0.92970  0.14700  0.62097  1.0000
  C   C9        1.0  0.06665  0.84845  0.49249  1.0000
  C   C10       1.0  0.93336  0.15155  0.50750  1.0000
  C   C11       1.0  0.13636  0.92431  0.50372  1.0000
  C   C12       1.0  0.86365  0.07570  0.49627  1.0000
  C   C13       1.0  0.21251  0.00857  0.40016  1.0000
  C   C14       1.0  0.78748  0.99144  0.59984  1.0000
  C   C15       1.0  0.22011  0.01406  0.28880  1.0000
  C   C16       1.0  0.77989  0.98594  0.71119  1.0000
  C   C17       1.0  0.15025  0.93645  0.27314  1.0000
  C   C18       1.0  0.84975  0.06354  0.72686  1.0000
  C   C19       1.0  0.15580  0.93848  0.15987  1.0000
  C   C20       1.0  0.84420  0.06152  0.84013  1.0000
  C   C21       1.0  0.07811  0.86449  0.15290  1.0000
  C   C22       1.0  0.92189  0.13551  0.84710  1.0000
  C   C23       1.0  0.24141  0.01780  0.04474  1.0000
  C   C24       1.0  0.75859  0.98220  0.95526  1.0000
  C   C25       1.0  0.33272  0.94504  0.98819  1.0000
  C   C26       1.0  0.66728  0.05497  0.01181  1.0000
  C   C27       1.0  0.34147  0.94941  0.87352  1.0000
  C   C28       1.0  0.65853  0.05059  0.12648  1.0000
  C   C29       1.0  0.26499  0.02367  0.79900  1.0000
  C   C30       1.0  0.73501  0.97633  0.20100  1.0000
  C   C31       1.0  0.27725  0.02700  0.68756  1.0000
  C   C32       1.0  0.72275  0.97300  0.31244  1.0000
  C   C33       1.0  0.36646  0.95571  0.64297  1.0000
  C   C34       1.0  0.63354  0.04430  0.35703  1.0000
  C   C35       1.0  0.44142  0.88161  0.71259  1.0000
  C   C36       1.0  0.55858  0.11839  0.28741  1.0000
  C   C37       1.0  0.43167  0.87639  0.82754  1.0000
  C   C38       1.0  0.56832  0.12361  0.17246  1.0000
  C   C39       1.0  0.50941  0.80091  0.89751  1.0000
  C   C40       1.0  0.49059  0.19909  0.10249  1.0000
  C   C41       1.0  0.50334  0.79857  0.00757  1.0000
  C   C42       1.0  0.49666  0.20143  0.99243  1.0000
  C   C43       1.0  0.41509  0.87282  0.05208  1.0000
  C   C44       1.0  0.58491  0.12719  0.94792  1.0000
  C   C45       1.0  0.59028  0.72227  0.07633  1.0000
  C   C46       1.0  0.40972  0.27773  0.92367  1.0000
  C   C47       1.0  0.98605  0.42929  0.15889  1.0000
  C   C48       1.0  0.01395  0.57071  0.84111  1.0000
  C   C49       1.0  0.05372  0.33144  0.14245  1.0000
  C   C50       1.0  0.94628  0.66856  0.85755  1.0000
  C   C51       1.0  0.99619  0.24228  0.13405  1.0000
  C   C52       1.0  0.00380  0.75772  0.86595  1.0000
  C   C53       1.0  0.87391  0.25518  0.13987  1.0000
  C   C54       1.0  0.12608  0.74482  0.86013  1.0000
  C   C55       1.0  0.81287  0.35550  0.15665  1.0000
  C   C56       1.0  0.18713  0.64450  0.84335  1.0000
  C   C57       1.0  0.68368  0.36405  0.45908  1.0000
  C   C58       1.0  0.31632  0.63595  0.54092  1.0000
  C   C59       1.0  0.62305  0.26659  0.55836  1.0000
  C   C60       1.0  0.37695  0.73341  0.44165  1.0000
  C   C61       1.0  0.50163  0.25383  0.57221  1.0000
  C   C62       1.0  0.49837  0.74616  0.42779  1.0000
  C   C63       1.0  0.44464  0.33999  0.48734  1.0000
  C   C64       1.0  0.55536  0.66000  0.51266  1.0000
  C   C65       1.0  0.51182  0.43495  0.39036  1.0000
  C   C66       1.0  0.48818  0.56504  0.60964  1.0000
  N   N1        1.0  0.86756  0.44049  0.16697  1.0000
  N   N2        1.0  0.13244  0.55950  0.83304  1.0000
  N   N3        1.0  0.62946  0.44618  0.37610  1.0000
  N   N4        1.0  0.37054  0.55383  0.62390  1.0000
  O   O1        1.0  0.83833  0.63764  0.33975  1.0000
  O   O2        1.0  0.16167  0.36236  0.66026  1.0000
  O   O3        1.0  0.91214  0.72113  0.14233  1.0000
  O   O4        1.0  0.08786  0.27887  0.85767  1.0000
  O   O5        1.0  0.08094  0.87085  0.04461  1.0000
  O   O6        1.0  0.91906  0.12915  0.95539  1.0000
  O   O7        1.0  0.41091  0.87470  0.15740  1.0000
  O   O8        1.0  0.58909  0.12530  0.84260  1.0000
  O   O9        1.0  0.58570  0.72748  0.17660  1.0000
  O   O10       1.0  0.41430  0.27252  0.82340  1.0000
  O   O11       1.0  0.66792  0.65517  0.03876  1.0000
  O   O12       1.0  0.33208  0.34483  0.96124  1.0000
