data_image0
_chemical_formula_structural       CoH22C26N6O10
_chemical_formula_sum              "Co1 H22 C26 N6 O10"
_cell_length_a       7.635
_cell_length_b       9.41239
_cell_length_c       9.51718
_cell_angle_alpha    75.0221
_cell_angle_beta     83.0849
_cell_angle_gamma    90.7346

_space_group_name_H-M_alt    "P 1"
_space_group_IT_number       1

loop_
  _space_group_symop_operation_xyz
  'x, y, z'

loop_
  _atom_site_type_symbol
  _atom_site_label
  _atom_site_symmetry_multiplicity
  _atom_site_fract_x
  _atom_site_fract_y
  _atom_site_fract_z
  _atom_site_occupancy
  Co  Co1       1.0  0.50000  0.50001  0.50000  1.0000
  H   H1        1.0  0.26476  0.55534  0.68172  1.0000
  H   H2        1.0  0.73524  0.44467  0.31829  1.0000
  H   H3        1.0  0.15941  0.41844  0.65776  1.0000
  H   H4        1.0  0.84060  0.58156  0.34225  1.0000
  H   H5        1.0  0.24989  0.27130  0.49840  1.0000
  H   H6        1.0  0.75011  0.72872  0.50160  1.0000
  H   H7        1.0  0.43747  0.86893  0.75277  1.0000
  H   H8        1.0  0.56253  0.13107  0.24721  1.0000
  H   H9        1.0  0.70649  0.01744  0.77806  1.0000
  H   H10       1.0  0.29351  0.98255  0.22193  1.0000
  H   H11       1.0  0.73131  0.28689  0.65776  1.0000
  H   H12       1.0  0.26869  0.71311  0.34224  1.0000
  H   H13       1.0  0.15872  0.86028  0.64484  1.0000
  H   H14       1.0  0.84129  0.13973  0.35516  1.0000
  H   H15       1.0  0.10089  0.42425  0.27507  1.0000
  H   H16       1.0  0.89909  0.57573  0.72494  1.0000
  H   H17       1.0  0.88488  0.33665  0.13325  1.0000
  H   H18       1.0  0.11511  0.66335  0.86674  1.0000
  H   H19       1.0  0.31617  0.20943  0.86219  1.0000
  H   H20       1.0  0.68384  0.79055  0.13782  1.0000
  H   H21       1.0  0.53152  0.29185  0.00693  1.0000
  H   H22       1.0  0.46848  0.70814  0.99309  1.0000
  C   C1        1.0  0.34902  0.21168  0.56011  1.0000
  C   C2        1.0  0.65098  0.78834  0.43990  1.0000
  C   C3        1.0  0.32689  0.05938  0.61996  1.0000
  C   C4        1.0  0.67311  0.94063  0.38004  1.0000
  C   C5        1.0  0.45489  0.98708  0.70280  1.0000
  C   C6        1.0  0.54511  0.01293  0.29719  1.0000
  C   C7        1.0  0.60214  0.06882  0.71688  1.0000
  C   C8        1.0  0.39786  0.93118  0.28312  1.0000
  C   C9        1.0  0.61757  0.21940  0.65108  1.0000
  C   C10       1.0  0.38242  0.78061  0.34892  1.0000
  C   C11       1.0  0.17562  0.97910  0.59351  1.0000
  C   C12       1.0  0.82438  0.02090  0.40648  1.0000
  C   C13       1.0  0.45959  0.40938  0.23758  1.0000
  C   C14       1.0  0.54041  0.59062  0.76242  1.0000
  C   C15       1.0  0.32955  0.36510  0.14832  1.0000
  C   C16       1.0  0.67046  0.63489  0.85168  1.0000
  C   C17       1.0  0.14761  0.37779  0.18439  1.0000
  C   C18       1.0  0.85239  0.62220  0.81561  1.0000
  C   C19       1.0  0.02674  0.32841  0.10732  1.0000
  C   C20       1.0  0.97326  0.67159  0.89268  1.0000
  C   C21       1.0  0.09133  0.27013  0.99146  1.0000
  C   C22       1.0  0.90867  0.72987  0.00853  1.0000
  C   C23       1.0  0.27154  0.25768  0.95177  1.0000
  C   C24       1.0  0.72846  0.74232  0.04823  1.0000
  C   C25       1.0  0.39030  0.30369  0.03257  1.0000
  C   C26       1.0  0.60970  0.69630  0.96743  1.0000
  N   N1        1.0  0.49014  0.29021  0.57577  1.0000
  N   N2        1.0  0.50985  0.70980  0.42422  1.0000
  N   N3        1.0  0.06648  0.04676  0.50766  1.0000
  N   N4        1.0  0.93352  0.95323  0.49234  1.0000
  N   N5        1.0  0.96517  0.22157  0.90851  1.0000
  N   N6        1.0  0.03484  0.77843  0.09147  1.0000
  O   O1        1.0  0.39539  0.47908  0.33090  1.0000
  O   O2        1.0  0.60461  0.52094  0.66910  1.0000
  O   O3        1.0  0.61783  0.37314  0.21921  1.0000
  O   O4        1.0  0.38216  0.62685  0.78081  1.0000
  O   O5        1.0  0.81800  0.16992  0.97359  1.0000
  O   O6        1.0  0.18201  0.83008  0.02639  1.0000
  O   O7        1.0  0.01122  0.23506  0.77470  1.0000
  O   O8        1.0  0.98881  0.76494  0.22529  1.0000
  O   O9        1.0  0.21724  0.51417  0.60530  1.0000
  O   O10       1.0  0.78276  0.48584  0.39471  1.0000
