data_image0
_chemical_formula_structural       Ni2H52C66N4O16
_chemical_formula_sum              "Ni2 H52 C66 N4 O16"
_cell_length_a       7.7814
_cell_length_b       13.934
_cell_length_c       16.168
_cell_angle_alpha    108.852
_cell_angle_beta     90
_cell_angle_gamma    90

_space_group_name_H-M_alt    "P 1"
_space_group_IT_number       1

loop_
  _space_group_symop_operation_xyz
  'x, y, z'

loop_
  _atom_site_type_symbol
  _atom_site_label
  _atom_site_symmetry_multiplicity
  _atom_site_fract_x
  _atom_site_fract_y
  _atom_site_fract_z
  _atom_site_occupancy
  Ni  Ni1       1.0  0.00791  0.50005  0.75001  1.0000
  Ni  Ni2       1.0  0.99212  0.50000  0.25000  1.0000
  H   H1        1.0  0.96256  0.82965  0.64738  1.0000
  H   H2        1.0  0.96256  0.17035  0.85262  1.0000
  H   H3        1.0  0.03744  0.17035  0.35262  1.0000
  H   H4        1.0  0.03743  0.82965  0.14738  1.0000
  H   H5        1.0  0.78595  0.71619  0.53114  1.0000
  H   H6        1.0  0.78594  0.28381  0.96885  1.0000
  H   H7        1.0  0.21406  0.28381  0.46886  1.0000
  H   H8        1.0  0.21405  0.71619  0.03115  1.0000
  H   H9        1.0  0.61532  0.78367  0.43019  1.0000
  H   H10       1.0  0.61531  0.21633  0.06980  1.0000
  H   H11       1.0  0.38469  0.21634  0.56980  1.0000
  H   H12       1.0  0.38468  0.78366  0.93020  1.0000
  H   H13       1.0  0.62986  0.96653  0.44686  1.0000
  H   H14       1.0  0.62985  0.03347  0.05313  1.0000
  H   H15       1.0  0.37015  0.03347  0.55314  1.0000
  H   H16       1.0  0.37014  0.96653  0.94686  1.0000
  H   H17       1.0  0.72916  0.13786  0.52549  1.0000
  H   H18       1.0  0.72915  0.86213  0.97450  1.0000
  H   H19       1.0  0.27085  0.86213  0.47451  1.0000
  H   H20       1.0  0.27084  0.13786  0.02549  1.0000
  H   H21       1.0  0.18641  0.93730  0.71401  1.0000
  H   H22       1.0  0.18641  0.06270  0.78599  1.0000
  H   H23       1.0  0.81360  0.06270  0.28599  1.0000
  H   H24       1.0  0.81359  0.93731  0.21402  1.0000
  H   H25       1.0  0.31967  0.38447  0.68099  1.0000
  H   H26       1.0  0.31966  0.61555  0.81899  1.0000
  H   H27       1.0  0.68033  0.61553  0.31900  1.0000
  H   H28       1.0  0.68034  0.38446  0.18100  1.0000
  H   H29       1.0  0.54051  0.37444  0.56953  1.0000
  H   H30       1.0  0.54044  0.62554  0.93044  1.0000
  H   H31       1.0  0.45952  0.62555  0.43045  1.0000
  H   H32       1.0  0.45952  0.37445  0.06954  1.0000
  H   H33       1.0  0.28232  0.62699  0.51919  1.0000
  H   H34       1.0  0.28226  0.37304  0.98077  1.0000
  H   H35       1.0  0.71771  0.37302  0.48079  1.0000
  H   H36       1.0  0.71771  0.62698  0.01921  1.0000
  H   H37       1.0  0.06831  0.62053  0.62920  1.0000
  H   H38       1.0  0.06825  0.37947  0.87079  1.0000
  H   H39       1.0  0.93172  0.37947  0.37080  1.0000
  H   H40       1.0  0.93172  0.62053  0.12920  1.0000
  H   H41       1.0  0.80255  0.43336  0.63017  1.0000
  H   H42       1.0  0.80239  0.56655  0.86985  1.0000
  H   H43       1.0  0.19753  0.56659  0.36984  1.0000
  H   H44       1.0  0.19754  0.43341  0.13016  1.0000
  H   H45       1.0  0.09861  0.26741  0.73862  1.0000
  H   H46       1.0  0.09864  0.73259  0.76137  1.0000
  H   H47       1.0  0.90137  0.73259  0.26137  1.0000
  H   H48       1.0  0.90137  0.26741  0.23863  1.0000
  H   H49       1.0  0.71320  0.54086  0.68376  1.0000
  H   H50       1.0  0.71291  0.45915  0.81630  1.0000
  H   H51       1.0  0.28695  0.45915  0.31627  1.0000
  H   H52       1.0  0.28696  0.54085  0.18373  1.0000
  C   C1        1.0  0.90230  0.28430  0.64244  1.0000
  C   C2        1.0  0.90229  0.71572  0.85758  1.0000
  C   C3        1.0  0.09771  0.71570  0.35757  1.0000
  C   C4        1.0  0.09771  0.28430  0.14243  1.0000
  C   C5        1.0  0.90663  0.17448  0.63194  1.0000
  C   C6        1.0  0.90663  0.82553  0.86805  1.0000
  C   C7        1.0  0.09337  0.82552  0.36806  1.0000
  C   C8        1.0  0.09336  0.17448  0.13195  1.0000
  C   C9        1.0  0.00905  0.13585  0.68820  1.0000
  C   C10       1.0  0.00905  0.86415  0.81180  1.0000
  C   C11       1.0  0.99095  0.86415  0.31180  1.0000
  C   C12       1.0  0.99095  0.13585  0.18820  1.0000
  C   C13       1.0  0.99840  0.03484  0.68503  1.0000
  C   C14       1.0  0.99841  0.96516  0.81496  1.0000
  C   C15       1.0  0.00160  0.96515  0.31497  1.0000
  C   C16       1.0  0.00160  0.03484  0.18504  1.0000
  C   C17       1.0  0.89603  0.96685  0.61818  1.0000
  C   C18       1.0  0.89603  0.03316  0.88182  1.0000
  C   C19       1.0  0.10397  0.03315  0.38183  1.0000
  C   C20       1.0  0.10397  0.96684  0.11817  1.0000
  C   C21       1.0  0.88755  0.86105  0.60543  1.0000
  C   C22       1.0  0.88755  0.13895  0.89457  1.0000
  C   C23       1.0  0.11245  0.13894  0.39457  1.0000
  C   C24       1.0  0.11244  0.86105  0.10543  1.0000
  C   C25       1.0  0.78876  0.79713  0.53947  1.0000
  C   C26       1.0  0.78875  0.20288  0.96053  1.0000
  C   C27       1.0  0.21124  0.20287  0.46054  1.0000
  C   C28       1.0  0.21124  0.79712  0.03947  1.0000
  C   C29       1.0  0.69313  0.83455  0.48203  1.0000
  C   C30       1.0  0.69313  0.16545  0.01797  1.0000
  C   C31       1.0  0.30688  0.16545  0.51797  1.0000
  C   C32       1.0  0.30687  0.83455  0.98203  1.0000
  C   C33       1.0  0.70025  0.93625  0.49132  1.0000
  C   C34       1.0  0.70025  0.06375  0.00868  1.0000
  C   C35       1.0  0.29975  0.06375  0.50868  1.0000
  C   C36       1.0  0.29974  0.93625  0.99132  1.0000
  C   C37       1.0  0.79974  0.00417  0.55875  1.0000
  C   C38       1.0  0.79974  0.99583  0.94125  1.0000
  C   C39       1.0  0.20027  0.99582  0.44126  1.0000
  C   C40       1.0  0.20025  0.00417  0.05875  1.0000
  C   C41       1.0  0.80524  0.10832  0.56853  1.0000
  C   C42       1.0  0.80523  0.89168  0.93147  1.0000
  C   C43       1.0  0.19477  0.89168  0.43147  1.0000
  C   C44       1.0  0.19476  0.10832  0.06853  1.0000
  C   C45       1.0  0.10183  0.00000  0.75000  1.0000
  C   C46       1.0  0.89817  0.00000  0.25001  1.0000
  C   C47       1.0  0.31764  0.43692  0.64352  1.0000
  C   C48       1.0  0.31755  0.56309  0.85645  1.0000
  C   C49       1.0  0.68241  0.56308  0.35646  1.0000
  C   C50       1.0  0.68240  0.43691  0.14353  1.0000
  C   C51       1.0  0.44132  0.43235  0.58073  1.0000
  C   C52       1.0  0.44124  0.56765  0.91924  1.0000
  C   C53       1.0  0.55872  0.56765  0.41926  1.0000
  C   C54       1.0  0.55872  0.43235  0.08074  1.0000
  C   C55       1.0  0.43497  0.50113  0.53348  1.0000
  C   C56       1.0  0.43492  0.49887  0.96649  1.0000
  C   C57       1.0  0.56507  0.49887  0.46650  1.0000
  C   C58       1.0  0.56504  0.50113  0.03349  1.0000
  C   C59       1.0  0.29880  0.57115  0.55258  1.0000
  C   C60       1.0  0.29874  0.42886  0.94738  1.0000
  C   C61       1.0  0.70123  0.42885  0.44740  1.0000
  C   C62       1.0  0.70122  0.57115  0.05260  1.0000
  C   C63       1.0  0.17776  0.56913  0.61503  1.0000
  C   C64       1.0  0.17767  0.43088  0.88491  1.0000
  C   C65       1.0  0.82228  0.43087  0.38494  1.0000
  C   C66       1.0  0.82228  0.56913  0.11506  1.0000
  N   N1        1.0  0.18716  0.50391  0.66071  1.0000
  N   N2        1.0  0.18697  0.49612  0.83921  1.0000
  N   N3        1.0  0.81293  0.49611  0.33926  1.0000
  N   N4        1.0  0.81293  0.50389  0.16075  1.0000
  O   O1        1.0  0.00635  0.34272  0.70012  1.0000
  O   O2        1.0  0.00638  0.65728  0.79990  1.0000
  O   O3        1.0  0.99364  0.65726  0.29988  1.0000
  O   O4        1.0  0.99364  0.34274  0.20012  1.0000
  O   O5        1.0  0.79813  0.31847  0.59837  1.0000
  O   O6        1.0  0.79812  0.68158  0.90164  1.0000
  O   O7        1.0  0.20187  0.68156  0.40164  1.0000
  O   O8        1.0  0.20187  0.31844  0.09836  1.0000
  O   O9        1.0  0.11716  0.19939  0.74702  1.0000
  O   O10       1.0  0.11716  0.80061  0.75297  1.0000
  O   O11       1.0  0.88285  0.80061  0.25297  1.0000
  O   O12       1.0  0.88285  0.19939  0.24703  1.0000
  O   O13       1.0  0.82199  0.51070  0.65881  1.0000
  O   O14       1.0  0.82157  0.48923  0.84147  1.0000
  O   O15       1.0  0.17822  0.48927  0.34133  1.0000
  O   O16       1.0  0.17825  0.51074  0.15866  1.0000
