data_image0
_chemical_formula_structural       Ag4H32C40S4N16O12F12
_chemical_formula_sum              "Ag4 H32 C40 S4 N16 O12 F12"
_cell_length_a       9.07859
_cell_length_b       11.0553
_cell_length_c       14.1599
_cell_angle_alpha    90
_cell_angle_beta     104.713
_cell_angle_gamma    90

_space_group_name_H-M_alt    "P 1"
_space_group_IT_number       1

loop_
  _space_group_symop_operation_xyz
  'x, y, z'

loop_
  _atom_site_type_symbol
  _atom_site_label
  _atom_site_symmetry_multiplicity
  _atom_site_fract_x
  _atom_site_fract_y
  _atom_site_fract_z
  _atom_site_occupancy
  Ag  Ag1       1.0  0.49428  0.20001  0.20730  1.0000
  Ag  Ag2       1.0  0.00572  0.70001  0.29270  1.0000
  Ag  Ag3       1.0  0.50572  0.79999  0.79270  1.0000
  Ag  Ag4       1.0  0.99428  0.29999  0.70730  1.0000
  H   H1        1.0  0.50631  0.45134  0.10946  1.0000
  H   H2        1.0  0.99369  0.95134  0.39054  1.0000
  H   H3        1.0  0.49369  0.54866  0.89054  1.0000
  H   H4        1.0  0.00631  0.04866  0.60946  1.0000
  H   H5        1.0  0.35604  0.54618  0.04155  1.0000
  H   H6        1.0  0.14396  0.04618  0.45845  1.0000
  H   H7        1.0  0.64396  0.45382  0.95845  1.0000
  H   H8        1.0  0.85604  0.95382  0.54154  1.0000
  H   H9        1.0  0.19692  0.46585  0.89166  1.0000
  H   H10       1.0  0.30308  0.96585  0.60834  1.0000
  H   H11       1.0  0.80308  0.53415  0.10834  1.0000
  H   H12       1.0  0.69692  0.03415  0.39166  1.0000
  H   H13       1.0  0.14989  0.60227  0.11318  1.0000
  H   H14       1.0  0.35011  0.10227  0.38682  1.0000
  H   H15       1.0  0.85011  0.39773  0.88682  1.0000
  H   H16       1.0  0.64989  0.89773  0.61318  1.0000
  H   H17       1.0  0.12077  0.44081  0.37411  1.0000
  H   H18       1.0  0.37923  0.94081  0.12589  1.0000
  H   H19       1.0  0.87923  0.55919  0.62589  1.0000
  H   H20       1.0  0.62077  0.05919  0.87411  1.0000
  H   H21       1.0  0.20951  0.09787  0.83108  1.0000
  H   H22       1.0  0.29049  0.59787  0.66892  1.0000
  H   H23       1.0  0.79049  0.90213  0.16892  1.0000
  H   H24       1.0  0.70951  0.40213  0.33108  1.0000
  H   H25       1.0  0.37820  0.06250  0.99798  1.0000
  H   H26       1.0  0.12180  0.56250  0.50202  1.0000
  H   H27       1.0  0.62180  0.93750  0.00202  1.0000
  H   H28       1.0  0.87820  0.43750  0.49798  1.0000
  H   H29       1.0  0.34066  0.30871  0.36987  1.0000
  H   H30       1.0  0.15934  0.80871  0.13013  1.0000
  H   H31       1.0  0.65933  0.69129  0.63013  1.0000
  H   H32       1.0  0.84066  0.19129  0.86987  1.0000
  C   C1        1.0  0.33017  0.35589  0.01033  1.0000
  C   C2        1.0  0.16983  0.85589  0.48967  1.0000
  C   C3        1.0  0.66983  0.64411  0.98967  1.0000
  C   C4        1.0  0.83017  0.14411  0.51033  1.0000
  C   C5        1.0  0.38214  0.45970  0.08023  1.0000
  C   C6        1.0  0.11786  0.95970  0.41977  1.0000
  C   C7        1.0  0.61786  0.54030  0.91977  1.0000
  C   C8        1.0  0.88214  0.04030  0.58023  1.0000
  C   C9        1.0  0.23543  0.37489  0.91654  1.0000
  C   C10       1.0  0.26457  0.87489  0.58346  1.0000
  C   C11       1.0  0.76457  0.62511  0.08346  1.0000
  C   C12       1.0  0.73543  0.12511  0.41654  1.0000
  C   C13       1.0  0.19074  0.53502  0.17021  1.0000
  C   C14       1.0  0.30926  0.03502  0.32979  1.0000
  C   C15       1.0  0.80927  0.46498  0.82979  1.0000
  C   C16       1.0  0.69073  0.96498  0.67021  1.0000
  C   C17       1.0  0.17615  0.44813  0.31459  1.0000
  C   C18       1.0  0.32385  0.94813  0.18541  1.0000
  C   C19       1.0  0.82385  0.55187  0.68541  1.0000
  C   C20       1.0  0.67615  0.05187  0.81459  1.0000
  C   C21       1.0  0.96660  0.19601  0.11230  1.0000
  C   C22       1.0  0.53340  0.69601  0.38770  1.0000
  C   C23       1.0  0.03340  0.80398  0.88770  1.0000
  C   C24       1.0  0.46660  0.30399  0.61230  1.0000
  C   C25       1.0  0.31043  0.45746  0.16518  1.0000
  C   C26       1.0  0.18957  0.95745  0.33482  1.0000
  C   C27       1.0  0.68957  0.54255  0.83482  1.0000
  C   C28       1.0  0.81043  0.04255  0.66518  1.0000
  C   C29       1.0  0.24263  0.17234  0.88247  1.0000
  C   C30       1.0  0.25737  0.67234  0.61753  1.0000
  C   C31       1.0  0.75737  0.82766  0.11753  1.0000
  C   C32       1.0  0.74263  0.32766  0.38247  1.0000
  C   C33       1.0  0.33632  0.15303  0.97559  1.0000
  C   C34       1.0  0.16368  0.65303  0.52441  1.0000
  C   C35       1.0  0.66368  0.84697  0.02441  1.0000
  C   C36       1.0  0.83632  0.34697  0.47559  1.0000
  C   C37       1.0  0.29773  0.37324  0.31139  1.0000
  C   C38       1.0  0.20227  0.87324  0.18861  1.0000
  C   C39       1.0  0.70227  0.62676  0.68861  1.0000
  C   C40       1.0  0.79773  0.12676  0.81139  1.0000
  S   S1        1.0  0.75903  0.22879  0.08668  1.0000
  S   S2        1.0  0.74097  0.72879  0.41332  1.0000
  S   S3        1.0  0.24097  0.77121  0.91333  1.0000
  S   S4        1.0  0.25903  0.27121  0.58667  1.0000
  N   N1        1.0  0.12433  0.53131  0.24481  1.0000
  N   N2        1.0  0.37567  0.03131  0.25519  1.0000
  N   N3        1.0  0.87567  0.46869  0.75519  1.0000
  N   N4        1.0  0.62433  0.96869  0.74481  1.0000
  N   N5        1.0  0.37888  0.24369  0.03975  1.0000
  N   N6        1.0  0.12112  0.74369  0.46025  1.0000
  N   N7        1.0  0.62112  0.75631  0.96025  1.0000
  N   N8        1.0  0.87888  0.25631  0.53975  1.0000
  N   N9        1.0  0.19113  0.28358  0.85322  1.0000
  N   N10       1.0  0.30887  0.78358  0.64678  1.0000
  N   N11       1.0  0.80887  0.71642  0.14678  1.0000
  N   N12       1.0  0.69113  0.21642  0.35322  1.0000
  N   N13       1.0  0.36503  0.37789  0.23748  1.0000
  N   N14       1.0  0.13497  0.87789  0.26252  1.0000
  N   N15       1.0  0.63497  0.62211  0.76252  1.0000
  N   N16       1.0  0.86503  0.12211  0.73748  1.0000
  O   O1        1.0  0.71602  0.25277  0.98181  1.0000
  O   O2        1.0  0.78399  0.75277  0.51819  1.0000
  O   O3        1.0  0.28398  0.74723  0.01819  1.0000
  O   O4        1.0  0.21602  0.24723  0.48181  1.0000
  O   O5        1.0  0.75259  0.33389  0.14794  1.0000
  O   O6        1.0  0.74741  0.83389  0.35207  1.0000
  O   O7        1.0  0.24741  0.66611  0.85206  1.0000
  O   O8        1.0  0.25259  0.16611  0.64794  1.0000
  O   O9        1.0  0.69874  0.11612  0.11630  1.0000
  O   O10       1.0  0.80126  0.61612  0.38370  1.0000
  O   O11       1.0  0.30126  0.88388  0.88370  1.0000
  O   O12       1.0  0.19874  0.38388  0.61630  1.0000
  F   F1        1.0  0.04152  0.28939  0.08162  1.0000
  F   F2        1.0  0.45848  0.78939  0.41838  1.0000
  F   F3        1.0  0.95848  0.71060  0.91838  1.0000
  F   F4        1.0  0.54152  0.21061  0.58162  1.0000
  F   F5        1.0  0.99408  0.09465  0.06510  1.0000
  F   F6        1.0  0.50592  0.59465  0.43490  1.0000
  F   F7        1.0  0.00592  0.90535  0.93490  1.0000
  F   F8        1.0  0.49408  0.40535  0.56510  1.0000
  F   F9        1.0  0.02897  0.18006  0.20930  1.0000
  F   F10       1.0  0.47103  0.68006  0.29070  1.0000
  F   F11       1.0  0.97103  0.81994  0.79070  1.0000
  F   F12       1.0  0.52897  0.31994  0.70930  1.0000
