data_image0
_chemical_formula_structural       Cu2Hg2H32C36S8N24
_chemical_formula_sum              "Cu2 Hg2 H32 C36 S8 N24"
_cell_length_a       7.87131
_cell_length_b       7.92594
_cell_length_c       21.4184
_cell_angle_alpha    79.974
_cell_angle_beta     80.0179
_cell_angle_gamma    83.7682

_space_group_name_H-M_alt    "P 1"
_space_group_IT_number       1

loop_
  _space_group_symop_operation_xyz
  'x, y, z'

loop_
  _atom_site_type_symbol
  _atom_site_label
  _atom_site_symmetry_multiplicity
  _atom_site_fract_x
  _atom_site_fract_y
  _atom_site_fract_z
  _atom_site_occupancy
  Cu  Cu1       1.0  0.50000  0.50000  1.00000  1.0000
  Cu  Cu2       1.0  0.50000  0.50000  0.50000  1.0000
  Hg  Hg1       1.0  0.09064  0.72463  0.25667  1.0000
  Hg  Hg2       1.0  0.90936  0.27537  0.74333  1.0000
  H   H1        1.0  0.47902  0.08612  0.03699  1.0000
  H   H2        1.0  0.52098  0.91388  0.96301  1.0000
  H   H3        1.0  0.65598  0.90003  0.13097  1.0000
  H   H4        1.0  0.34401  0.09997  0.86903  1.0000
  H   H5        1.0  0.77682  0.15160  0.18284  1.0000
  H   H6        1.0  0.22318  0.84840  0.81716  1.0000
  H   H7        1.0  0.81606  0.72375  0.91925  1.0000
  H   H8        1.0  0.18393  0.27625  0.08075  1.0000
  H   H9        1.0  0.06945  0.80677  0.98017  1.0000
  H   H10       1.0  0.93055  0.19323  0.01982  1.0000
  H   H11       1.0  0.98047  0.65182  0.10602  1.0000
  H   H12       1.0  0.01953  0.34818  0.89398  1.0000
  H   H13       1.0  0.74765  0.46908  0.16496  1.0000
  H   H14       1.0  0.25235  0.53091  0.83503  1.0000
  H   H15       1.0  0.54565  0.55531  0.13754  1.0000
  H   H16       1.0  0.45435  0.44468  0.86246  1.0000
  H   H17       1.0  0.25504  0.19627  0.57749  1.0000
  H   H18       1.0  0.74497  0.80372  0.42251  1.0000
  H   H19       1.0  0.19289  0.93430  0.51719  1.0000
  H   H20       1.0  0.80712  0.06570  0.48280  1.0000
  H   H21       1.0  0.37748  0.01162  0.39405  1.0000
  H   H22       1.0  0.62252  0.98839  0.60595  1.0000
  H   H23       1.0  0.91602  0.51354  0.47198  1.0000
  H   H24       1.0  0.08397  0.48644  0.52803  1.0000
  H   H25       1.0  0.11686  0.32670  0.38412  1.0000
  H   H26       1.0  0.88314  0.67330  0.61589  1.0000
  H   H27       1.0  0.87420  0.20988  0.32571  1.0000
  H   H28       1.0  0.12580  0.79013  0.67429  1.0000
  H   H29       1.0  0.46846  0.44713  0.36124  1.0000
  H   H30       1.0  0.53154  0.55288  0.63876  1.0000
  H   H31       1.0  0.55500  0.24110  0.33698  1.0000
  H   H32       1.0  0.44500  0.75891  0.66302  1.0000
  C   C1        1.0  0.54691  0.13106  0.07001  1.0000
  C   C2        1.0  0.45309  0.86894  0.92999  1.0000
  C   C3        1.0  0.63801  0.03801  0.11746  1.0000
  C   C4        1.0  0.36198  0.96199  0.88254  1.0000
  C   C5        1.0  0.69966  0.16051  0.14493  1.0000
  C   C6        1.0  0.30034  0.83949  0.85506  1.0000
  C   C7        1.0  0.83008  0.69283  0.96953  1.0000
  C   C8        1.0  0.16992  0.30717  0.03047  1.0000
  C   C9        1.0  0.95953  0.73309  0.00094  1.0000
  C   C10       1.0  0.04048  0.26690  0.99906  1.0000
  C   C11       1.0  0.91777  0.65700  0.06445  1.0000
  C   C12       1.0  0.08223  0.34300  0.93555  1.0000
  C   C13       1.0  0.67201  0.48502  0.12573  1.0000
  C   C14       1.0  0.32800  0.51497  0.87427  1.0000
  C   C15       1.0  0.29722  0.17706  0.52813  1.0000
  C   C16       1.0  0.70278  0.82292  0.47187  1.0000
  C   C17       1.0  0.26820  0.04295  0.49707  1.0000
  C   C18       1.0  0.73180  0.95705  0.50293  1.0000
  C   C19       1.0  0.35715  0.07876  0.43503  1.0000
  C   C20       1.0  0.64286  0.92123  0.56497  1.0000
  C   C21       1.0  0.87745  0.44229  0.43879  1.0000
  C   C22       1.0  0.12254  0.55771  0.56122  1.0000
  C   C23       1.0  0.97753  0.34721  0.39411  1.0000
  C   C24       1.0  0.02247  0.65279  0.60590  1.0000
  C   C25       1.0  0.85930  0.28570  0.36411  1.0000
  C   C26       1.0  0.14070  0.71430  0.63589  1.0000
  C   C27       1.0  0.53381  0.32021  0.37522  1.0000
  C   C28       1.0  0.46618  0.67980  0.62478  1.0000
  C   C29       1.0  0.69292  0.86294  0.28796  1.0000
  C   C30       1.0  0.30709  0.13706  0.71204  1.0000
  C   C31       1.0  0.12030  0.36066  0.21767  1.0000
  C   C32       1.0  0.87970  0.63934  0.78233  1.0000
  C   C33       1.0  0.26406  0.79177  0.10854  1.0000
  C   C34       1.0  0.73593  0.20823  0.89146  1.0000
  C   C35       1.0  0.23516  0.74713  0.38691  1.0000
  C   C36       1.0  0.76485  0.25288  0.61308  1.0000
  S   S1        1.0  0.75917  0.67848  0.26226  1.0000
  S   S2        1.0  0.24083  0.32153  0.73774  1.0000
  S   S3        1.0  0.27478  0.44025  0.24445  1.0000
  S   S4        1.0  0.72522  0.55976  0.75555  1.0000
  S   S5        1.0  0.15888  0.93723  0.15046  1.0000
  S   S6        1.0  0.84112  0.06277  0.84955  1.0000
  S   S7        1.0  0.08846  0.87790  0.35254  1.0000
  S   S8        1.0  0.91155  0.12212  0.64745  1.0000
  N   N1        1.0  0.54988  0.30070  0.06882  1.0000
  N   N2        1.0  0.45011  0.69929  0.93118  1.0000
  N   N3        1.0  0.64474  0.31634  0.11448  1.0000
  N   N4        1.0  0.35526  0.68365  0.88552  1.0000
  N   N5        1.0  0.71406  0.60108  0.01153  1.0000
  N   N6        1.0  0.28593  0.39892  0.98847  1.0000
  N   N7        1.0  0.76989  0.57916  0.06915  1.0000
  N   N8        1.0  0.23011  0.42083  0.93085  1.0000
  N   N9        1.0  0.39430  0.29050  0.48715  1.0000
  N   N10       1.0  0.60570  0.70950  0.51285  1.0000
  N   N11       1.0  0.42978  0.22858  0.43060  1.0000
  N   N12       1.0  0.57022  0.77142  0.56940  1.0000
  N   N13       1.0  0.70840  0.44049  0.43630  1.0000
  N   N14       1.0  0.29159  0.55951  0.56371  1.0000
  N   N15       1.0  0.69984  0.34352  0.39091  1.0000
  N   N16       1.0  0.30015  0.65648  0.60910  1.0000
  N   N17       1.0  0.64692  0.99493  0.30645  1.0000
  N   N18       1.0  0.35310  0.00508  0.69356  1.0000
  N   N19       1.0  0.00831  0.30519  0.19911  1.0000
  N   N20       1.0  0.99169  0.69481  0.80089  1.0000
  N   N21       1.0  0.33885  0.68819  0.07802  1.0000
  N   N22       1.0  0.66115  0.31180  0.92198  1.0000
  N   N23       1.0  0.34135  0.65997  0.41315  1.0000
  N   N24       1.0  0.65865  0.34004  0.58685  1.0000
