data_image0
_chemical_formula_structural       Mn2H28C28N4O8
_chemical_formula_sum              "Mn2 H28 C28 N4 O8"
_cell_length_a       7.80776
_cell_length_b       9.21856
_cell_length_c       10.8066
_cell_angle_alpha    109.514
_cell_angle_beta     101.356
_cell_angle_gamma    100.604

_space_group_name_H-M_alt    "P 1"
_space_group_IT_number       1

loop_
  _space_group_symop_operation_xyz
  'x, y, z'

loop_
  _atom_site_type_symbol
  _atom_site_label
  _atom_site_symmetry_multiplicity
  _atom_site_fract_x
  _atom_site_fract_y
  _atom_site_fract_z
  _atom_site_occupancy
  Mn  Mn1       1.0  0.33226  0.02114  0.84616  1.0000
  Mn  Mn2       1.0  0.66773  0.97886  0.15384  1.0000
  H   H1        1.0  0.04784  0.27902  0.60072  1.0000
  H   H2        1.0  0.95218  0.72099  0.39929  1.0000
  H   H3        1.0  0.88557  0.23652  0.68919  1.0000
  H   H4        1.0  0.11443  0.76350  0.31081  1.0000
  H   H5        1.0  0.88090  0.09059  0.53294  1.0000
  H   H6        1.0  0.11910  0.90943  0.46706  1.0000
  H   H7        1.0  0.02619  0.59377  0.90906  1.0000
  H   H8        1.0  0.97381  0.40623  0.09094  1.0000
  H   H9        1.0  0.03299  0.71470  0.07826  1.0000
  H   H10       1.0  0.96701  0.28529  0.92174  1.0000
  H   H11       1.0  0.18274  0.59109  0.05444  1.0000
  H   H12       1.0  0.81727  0.40891  0.94556  1.0000
  H   H13       1.0  0.55973  0.97113  0.63211  1.0000
  H   H14       1.0  0.44030  0.02887  0.36790  1.0000
  H   H15       1.0  0.56109  0.76983  0.41239  1.0000
  H   H16       1.0  0.43894  0.23016  0.58762  1.0000
  H   H17       1.0  0.14962  0.43440  0.47290  1.0000
  H   H18       1.0  0.85037  0.56561  0.52709  1.0000
  H   H19       1.0  0.16644  0.65301  0.68864  1.0000
  H   H20       1.0  0.83355  0.34699  0.31135  1.0000
  H   H21       1.0  0.51707  0.38482  0.01557  1.0000
  H   H22       1.0  0.48290  0.61519  0.98442  1.0000
  H   H23       1.0  0.53624  0.60519  0.22924  1.0000
  H   H24       1.0  0.46373  0.39481  0.77075  1.0000
  H   H25       1.0  0.15058  0.26010  0.30407  1.0000
  H   H26       1.0  0.84944  0.73988  0.69594  1.0000
  H   H27       1.0  0.14704  0.06232  0.08960  1.0000
  H   H28       1.0  0.85297  0.93767  0.91041  1.0000
  C   C1        1.0  0.09816  0.11928  0.70303  1.0000
  C   C2        1.0  0.90183  0.88072  0.29697  1.0000
  C   C3        1.0  0.97198  0.18669  0.62700  1.0000
  C   C4        1.0  0.02802  0.81332  0.37300  1.0000
  C   C5        1.0  0.25529  0.80245  0.01251  1.0000
  C   C6        1.0  0.74471  0.19755  0.98749  1.0000
  C   C7        1.0  0.11571  0.66549  0.01206  1.0000
  C   C8        1.0  0.88429  0.33451  0.98794  1.0000
  C   C9        1.0  0.46874  0.85075  0.59100  1.0000
  C   C10       1.0  0.53128  0.14925  0.40900  1.0000
  C   C11       1.0  0.46895  0.73645  0.46834  1.0000
  C   C12       1.0  0.53107  0.26354  0.53166  1.0000
  C   C13       1.0  0.35209  0.58146  0.41998  1.0000
  C   C14       1.0  0.64792  0.41854  0.58002  1.0000
  C   C15       1.0  0.24185  0.55168  0.50186  1.0000
  C   C16       1.0  0.75814  0.44832  0.49814  1.0000
  C   C17       1.0  0.24957  0.67286  0.62261  1.0000
  C   C18       1.0  0.75043  0.32715  0.37739  1.0000
  C   C19       1.0  0.43746  0.36381  0.08326  1.0000
  C   C20       1.0  0.56253  0.63619  0.91673  1.0000
  C   C21       1.0  0.44720  0.48686  0.20356  1.0000
  C   C22       1.0  0.55279  0.51314  0.79643  1.0000
  C   C23       1.0  0.34471  0.45521  0.28980  1.0000
  C   C24       1.0  0.65530  0.54478  0.71020  1.0000
  C   C25       1.0  0.23517  0.29861  0.24596  1.0000
  C   C26       1.0  0.76484  0.70138  0.75405  1.0000
  C   C27       1.0  0.23267  0.18334  0.12321  1.0000
  C   C28       1.0  0.76733  0.81665  0.87680  1.0000
  N   N1        1.0  0.36010  0.82140  0.66744  1.0000
  N   N2        1.0  0.63990  0.17860  0.33255  1.0000
  N   N3        1.0  0.33315  0.21328  0.04236  1.0000
  N   N4        1.0  0.66684  0.78672  0.95763  1.0000
  O   O1        1.0  0.03400  0.01834  0.75005  1.0000
  O   O2        1.0  0.96596  0.98166  0.24994  1.0000
  O   O3        1.0  0.26971  0.16517  0.71954  1.0000
  O   O4        1.0  0.73028  0.83483  0.28048  1.0000
  O   O5        1.0  0.22684  0.83949  0.90826  1.0000
  O   O6        1.0  0.77316  0.16051  0.09174  1.0000
  O   O7        1.0  0.39123  0.87251  0.11771  1.0000
  O   O8        1.0  0.60877  0.12749  0.88229  1.0000
