data_image0
_chemical_formula_structural       Zn4H52C44Br4N20Cl4O4
_chemical_formula_sum              "Zn4 H52 C44 Br4 N20 Cl4 O4"
_cell_length_a       7.9481
_cell_length_b       8.75868
_cell_length_c       21.113
_cell_angle_alpha    90
_cell_angle_beta     92.176
_cell_angle_gamma    90

_space_group_name_H-M_alt    "P 1"
_space_group_IT_number       1

loop_
  _space_group_symop_operation_xyz
  'x, y, z'

loop_
  _atom_site_type_symbol
  _atom_site_label
  _atom_site_symmetry_multiplicity
  _atom_site_fract_x
  _atom_site_fract_y
  _atom_site_fract_z
  _atom_site_occupancy
  Zn  Zn1       1.0  0.30642  0.78551  0.21591  1.0000
  Zn  Zn2       1.0  0.69358  0.78551  0.28409  1.0000
  Zn  Zn3       1.0  0.69359  0.21449  0.78409  1.0000
  Zn  Zn4       1.0  0.30642  0.21449  0.71591  1.0000
  H   H1        1.0  0.08873  0.11706  0.47692  1.0000
  H   H2        1.0  0.91127  0.11706  0.02308  1.0000
  H   H3        1.0  0.91127  0.88294  0.52308  1.0000
  H   H4        1.0  0.08873  0.88294  0.97692  1.0000
  H   H5        1.0  0.12818  0.34985  0.29885  1.0000
  H   H6        1.0  0.87181  0.34985  0.20115  1.0000
  H   H7        1.0  0.87182  0.65015  0.70115  1.0000
  H   H8        1.0  0.12818  0.65015  0.79885  1.0000
  H   H9        1.0  0.22752  0.23873  0.21276  1.0000
  H   H10       1.0  0.77248  0.23873  0.28724  1.0000
  H   H11       1.0  0.77248  0.76127  0.78724  1.0000
  H   H12       1.0  0.22752  0.76127  0.71276  1.0000
  H   H13       1.0  0.27976  0.15939  0.11604  1.0000
  H   H14       1.0  0.72023  0.15939  0.38396  1.0000
  H   H15       1.0  0.72024  0.84061  0.88396  1.0000
  H   H16       1.0  0.27977  0.84061  0.61604  1.0000
  H   H17       1.0  0.48178  0.08302  0.13640  1.0000
  H   H18       1.0  0.51821  0.08302  0.36360  1.0000
  H   H19       1.0  0.51822  0.91698  0.86360  1.0000
  H   H20       1.0  0.48179  0.91698  0.63640  1.0000
  H   H21       1.0  0.36497  0.94814  0.04247  1.0000
  H   H22       1.0  0.63503  0.94814  0.45753  1.0000
  H   H23       1.0  0.63503  0.05186  0.95753  1.0000
  H   H24       1.0  0.36497  0.05186  0.54247  1.0000
  H   H25       1.0  0.17550  0.90801  0.08166  1.0000
  H   H26       1.0  0.82449  0.90801  0.41834  1.0000
  H   H27       1.0  0.82449  0.09199  0.91835  1.0000
  H   H28       1.0  0.17551  0.09199  0.58166  1.0000
  H   H29       1.0  0.20293  0.64053  0.06935  1.0000
  H   H30       1.0  0.79707  0.64053  0.43065  1.0000
  H   H31       1.0  0.79707  0.35948  0.93065  1.0000
  H   H32       1.0  0.20293  0.35948  0.56935  1.0000
  H   H33       1.0  0.38356  0.67910  0.02542  1.0000
  H   H34       1.0  0.61645  0.67909  0.47458  1.0000
  H   H35       1.0  0.61644  0.32091  0.97458  1.0000
  H   H36       1.0  0.38356  0.32090  0.52542  1.0000
  H   H37       1.0  0.55603  0.51370  0.10501  1.0000
  H   H38       1.0  0.44397  0.51370  0.39499  1.0000
  H   H39       1.0  0.44397  0.48631  0.89499  1.0000
  H   H40       1.0  0.55604  0.48630  0.60501  1.0000
  H   H41       1.0  0.39897  0.41393  0.05945  1.0000
  H   H42       1.0  0.60103  0.41393  0.44055  1.0000
  H   H43       1.0  0.60103  0.58607  0.94055  1.0000
  H   H44       1.0  0.39897  0.58607  0.55945  1.0000
  H   H45       1.0  0.36289  0.46137  0.13937  1.0000
  H   H46       1.0  0.63711  0.46137  0.36063  1.0000
  H   H47       1.0  0.63711  0.53863  0.86063  1.0000
  H   H48       1.0  0.36289  0.53863  0.63937  1.0000
  H   H49       1.0  0.50872  0.78869  0.12293  1.0000
  H   H50       1.0  0.49127  0.78869  0.37707  1.0000
  H   H51       1.0  0.49128  0.21131  0.87707  1.0000
  H   H52       1.0  0.50873  0.21131  0.62293  1.0000
  C   C1        1.0  0.19633  0.11054  0.29827  1.0000
  C   C2        1.0  0.80367  0.11053  0.20173  1.0000
  C   C3        1.0  0.80367  0.88946  0.70173  1.0000
  C   C4        1.0  0.19633  0.88947  0.79827  1.0000
  C   C5        1.0  0.21859  0.97140  0.33415  1.0000
  C   C6        1.0  0.78140  0.97140  0.16585  1.0000
  C   C7        1.0  0.78141  0.02860  0.66585  1.0000
  C   C8        1.0  0.21860  0.02860  0.83415  1.0000
  C   C9        1.0  0.17666  0.98223  0.39952  1.0000
  C   C10       1.0  0.82334  0.98222  0.10048  1.0000
  C   C11       1.0  0.82334  0.01777  0.60048  1.0000
  C   C12       1.0  0.17667  0.01778  0.89952  1.0000
  C   C13       1.0  0.11995  0.11459  0.42723  1.0000
  C   C14       1.0  0.88005  0.11459  0.07277  1.0000
  C   C15       1.0  0.88005  0.88541  0.57277  1.0000
  C   C16       1.0  0.11995  0.88541  0.92723  1.0000
  C   C17       1.0  0.10188  0.24764  0.39041  1.0000
  C   C18       1.0  0.89813  0.24764  0.10959  1.0000
  C   C19       1.0  0.89812  0.75236  0.60959  1.0000
  C   C20       1.0  0.10187  0.75236  0.89041  1.0000
  C   C21       1.0  0.13938  0.24568  0.32703  1.0000
  C   C22       1.0  0.86061  0.24567  0.17297  1.0000
  C   C23       1.0  0.86062  0.75432  0.67297  1.0000
  C   C24       1.0  0.13938  0.75432  0.82703  1.0000
  C   C25       1.0  0.23990  0.12336  0.23295  1.0000
  C   C26       1.0  0.76010  0.12336  0.26705  1.0000
  C   C27       1.0  0.76010  0.87664  0.76705  1.0000
  C   C28       1.0  0.23990  0.87664  0.73295  1.0000
  C   C29       1.0  0.34604  0.05664  0.13380  1.0000
  C   C30       1.0  0.65395  0.05664  0.36620  1.0000
  C   C31       1.0  0.65396  0.94336  0.86620  1.0000
  C   C32       1.0  0.34604  0.94336  0.63380  1.0000
  C   C33       1.0  0.31235  0.92338  0.08902  1.0000
  C   C34       1.0  0.68765  0.92338  0.41098  1.0000
  C   C35       1.0  0.68765  0.07662  0.91098  1.0000
  C   C36       1.0  0.31236  0.07662  0.58902  1.0000
  C   C37       1.0  0.34072  0.65102  0.07329  1.0000
  C   C38       1.0  0.65928  0.65102  0.42671  1.0000
  C   C39       1.0  0.65928  0.34898  0.92671  1.0000
  C   C40       1.0  0.34073  0.34898  0.57329  1.0000
  C   C41       1.0  0.41951  0.50201  0.09595  1.0000
  C   C42       1.0  0.58049  0.50201  0.40404  1.0000
  C   C43       1.0  0.58049  0.49799  0.90405  1.0000
  C   C44       1.0  0.41951  0.49799  0.59595  1.0000
  Br  Br1       1.0  0.20271  0.80218  0.44976  1.0000
  Br  Br2       1.0  0.79728  0.80218  0.05025  1.0000
  Br  Br3       1.0  0.79728  0.19782  0.55025  1.0000
  Br  Br4       1.0  0.20272  0.19782  0.94975  1.0000
  N   N1        1.0  0.29510  0.01566  0.19723  1.0000
  N   N2        1.0  0.70489  0.01566  0.30277  1.0000
  N   N3        1.0  0.70490  0.98434  0.80277  1.0000
  N   N4        1.0  0.29510  0.98434  0.69723  1.0000
  N   N5        1.0  0.37980  0.78022  0.11635  1.0000
  N   N6        1.0  0.62020  0.78022  0.38365  1.0000
  N   N7        1.0  0.62020  0.21978  0.88365  1.0000
  N   N8        1.0  0.37980  0.21978  0.61635  1.0000
  N   N9        1.0  0.50000  0.65067  0.25000  1.0000
  N   N10       1.0  0.50000  0.34933  0.75000  1.0000
  N   N11       1.0  0.50000  0.51283  0.25000  1.0000
  N   N12       1.0  0.50000  0.48717  0.75000  1.0000
  N   N13       1.0  0.50000  0.38028  0.25000  1.0000
  N   N14       1.0  0.50000  0.61972  0.75000  1.0000
  N   N15       1.0  0.10197  0.64447  0.21065  1.0000
  N   N16       1.0  0.89803  0.64447  0.28935  1.0000
  N   N17       1.0  0.89803  0.35553  0.78935  1.0000
  N   N18       1.0  0.10197  0.35552  0.71065  1.0000
  N   N19       1.0  1.00000  0.64749  0.25000  1.0000
  N   N20       1.0  0.00000  0.35251  0.75000  1.0000
  Cl  Cl1       1.0  0.03672  0.41458  0.42610  1.0000
  Cl  Cl2       1.0  0.96328  0.41458  0.07390  1.0000
  Cl  Cl3       1.0  0.96328  0.58542  0.57390  1.0000
  Cl  Cl4       1.0  0.03672  0.58542  0.92610  1.0000
  O   O1        1.0  0.27716  0.84585  0.31171  1.0000
  O   O2        1.0  0.72284  0.84584  0.18829  1.0000
  O   O3        1.0  0.72284  0.15415  0.68829  1.0000
  O   O4        1.0  0.27717  0.15415  0.81171  1.0000
