data_image0
_chemical_formula_structural       Zn4H52C44N20Cl8O4
_chemical_formula_sum              "Zn4 H52 C44 N20 Cl8 O4"
_cell_length_a       7.21464
_cell_length_b       8.96862
_cell_length_c       22.871
_cell_angle_alpha    90
_cell_angle_beta     90
_cell_angle_gamma    96.4628

_space_group_name_H-M_alt    "P 1"
_space_group_IT_number       1

loop_
  _space_group_symop_operation_xyz
  'x, y, z'

loop_
  _atom_site_type_symbol
  _atom_site_label
  _atom_site_symmetry_multiplicity
  _atom_site_fract_x
  _atom_site_fract_y
  _atom_site_fract_z
  _atom_site_occupancy
  Zn  Zn1       1.0  0.18797  0.40270  0.74199  1.0000
  Zn  Zn2       1.0  0.31203  0.59730  0.24199  1.0000
  Zn  Zn3       1.0  0.81203  0.59730  0.25801  1.0000
  Zn  Zn4       1.0  0.68796  0.40270  0.75801  1.0000
  H   H1        1.0  0.20609  0.12845  0.00219  1.0000
  H   H2        1.0  0.29391  0.87155  0.50219  1.0000
  H   H3        1.0  0.79391  0.87155  0.99782  1.0000
  H   H4        1.0  0.70609  0.12845  0.49781  1.0000
  H   H5        1.0  0.26943  0.87532  0.84472  1.0000
  H   H6        1.0  0.23057  0.12468  0.34472  1.0000
  H   H7        1.0  0.73057  0.12467  0.15528  1.0000
  H   H8        1.0  0.76943  0.87532  0.65528  1.0000
  H   H9        1.0  0.23677  0.96614  0.75572  1.0000
  H   H10       1.0  0.26324  0.03386  0.25572  1.0000
  H   H11       1.0  0.76323  0.03386  0.24428  1.0000
  H   H12       1.0  0.73677  0.96614  0.74428  1.0000
  H   H13       1.0  0.11555  0.03159  0.65817  1.0000
  H   H14       1.0  0.38445  0.96841  0.15817  1.0000
  H   H15       1.0  0.88445  0.96841  0.34183  1.0000
  H   H16       1.0  0.61555  0.03159  0.84183  1.0000
  H   H17       1.0  0.35116  0.11229  0.65985  1.0000
  H   H18       1.0  0.14884  0.88772  0.15985  1.0000
  H   H19       1.0  0.64884  0.88771  0.34015  1.0000
  H   H20       1.0  0.85116  0.11229  0.84015  1.0000
  H   H21       1.0  0.19788  0.23861  0.58294  1.0000
  H   H22       1.0  0.30213  0.76139  0.08294  1.0000
  H   H23       1.0  0.80212  0.76139  0.41706  1.0000
  H   H24       1.0  0.69788  0.23861  0.91706  1.0000
  H   H25       1.0  0.00554  0.26546  0.62844  1.0000
  H   H26       1.0  0.49446  0.73454  0.12844  1.0000
  H   H27       1.0  0.99446  0.73454  0.37156  1.0000
  H   H28       1.0  0.50554  0.26546  0.87156  1.0000
  H   H29       1.0  0.04222  0.54281  0.61992  1.0000
  H   H30       1.0  0.45778  0.45719  0.11992  1.0000
  H   H31       1.0  0.95778  0.45719  0.38008  1.0000
  H   H32       1.0  0.54222  0.54281  0.88008  1.0000
  H   H33       1.0  0.20406  0.50337  0.56542  1.0000
  H   H34       1.0  0.29594  0.49664  0.06542  1.0000
  H   H35       1.0  0.79594  0.49664  0.43458  1.0000
  H   H36       1.0  0.70406  0.50336  0.93458  1.0000
  H   H37       1.0  0.29826  0.71660  0.66978  1.0000
  H   H38       1.0  0.20174  0.28340  0.16978  1.0000
  H   H39       1.0  0.70173  0.28340  0.33022  1.0000
  H   H40       1.0  0.79826  0.71660  0.83022  1.0000
  H   H41       1.0  0.26937  0.76811  0.59606  1.0000
  H   H42       1.0  0.23063  0.23189  0.09606  1.0000
  H   H43       1.0  0.73062  0.23189  0.40394  1.0000
  H   H44       1.0  0.76937  0.76811  0.90394  1.0000
  H   H45       1.0  0.45925  0.66836  0.61573  1.0000
  H   H46       1.0  0.04074  0.33165  0.11573  1.0000
  H   H47       1.0  0.54074  0.33165  0.38427  1.0000
  H   H48       1.0  0.95926  0.66836  0.88427  1.0000
  H   H49       1.0  0.38815  0.40964  0.64749  1.0000
  H   H50       1.0  0.11185  0.59036  0.14749  1.0000
  H   H51       1.0  0.61185  0.59036  0.35251  1.0000
  H   H52       1.0  0.88815  0.40964  0.85251  1.0000
  C   C1        1.0  0.20239  0.10161  0.83165  1.0000
  C   C2        1.0  0.29762  0.89839  0.33165  1.0000
  C   C3        1.0  0.79762  0.89839  0.16835  1.0000
  C   C4        1.0  0.70239  0.10161  0.66835  1.0000
  C   C5        1.0  0.16622  0.24067  0.85839  1.0000
  C   C6        1.0  0.33378  0.75933  0.35839  1.0000
  C   C7        1.0  0.83379  0.75933  0.14162  1.0000
  C   C8        1.0  0.66621  0.24067  0.64161  1.0000
  C   C9        1.0  0.16802  0.24252  0.92115  1.0000
  C   C10       1.0  0.33198  0.75748  0.42115  1.0000
  C   C11       1.0  0.83199  0.75748  0.07885  1.0000
  C   C12       1.0  0.66802  0.24251  0.57885  1.0000
  C   C13       1.0  0.20432  0.12049  0.95470  1.0000
  C   C14       1.0  0.29568  0.87951  0.45469  1.0000
  C   C15       1.0  0.79568  0.87951  0.04530  1.0000
  C   C16       1.0  0.70433  0.12048  0.54531  1.0000
  C   C17       1.0  0.24101  0.98761  0.92669  1.0000
  C   C18       1.0  0.25899  0.01239  0.42669  1.0000
  C   C19       1.0  0.75899  0.01239  0.07331  1.0000
  C   C20       1.0  0.74101  0.98761  0.57331  1.0000
  C   C21       1.0  0.23838  0.97776  0.86642  1.0000
  C   C22       1.0  0.26162  0.02224  0.36642  1.0000
  C   C23       1.0  0.76162  0.02224  0.13358  1.0000
  C   C24       1.0  0.73838  0.97776  0.63358  1.0000
  C   C25       1.0  0.20914  0.07907  0.76925  1.0000
  C   C26       1.0  0.29086  0.92093  0.26925  1.0000
  C   C27       1.0  0.79086  0.92093  0.23075  1.0000
  C   C28       1.0  0.70914  0.07907  0.73075  1.0000
  C   C29       1.0  0.20679  0.13531  0.66788  1.0000
  C   C30       1.0  0.29321  0.86469  0.16788  1.0000
  C   C31       1.0  0.79321  0.86469  0.33213  1.0000
  C   C32       1.0  0.70679  0.13531  0.83212  1.0000
  C   C33       1.0  0.15701  0.26136  0.62820  1.0000
  C   C34       1.0  0.34299  0.73864  0.12820  1.0000
  C   C35       1.0  0.84299  0.73864  0.37180  1.0000
  C   C36       1.0  0.65701  0.26136  0.87180  1.0000
  C   C37       1.0  0.19071  0.53241  0.61202  1.0000
  C   C38       1.0  0.30929  0.46760  0.11202  1.0000
  C   C39       1.0  0.80929  0.46759  0.38798  1.0000
  C   C40       1.0  0.69071  0.53240  0.88798  1.0000
  C   C41       1.0  0.31153  0.67910  0.62444  1.0000
  C   C42       1.0  0.18847  0.32090  0.12444  1.0000
  C   C43       1.0  0.68847  0.32090  0.37556  1.0000
  C   C44       1.0  0.81153  0.67910  0.87556  1.0000
  N   N1        1.0  0.18786  0.17797  0.72923  1.0000
  N   N2        1.0  0.31214  0.82203  0.22923  1.0000
  N   N3        1.0  0.81213  0.82203  0.27077  1.0000
  N   N4        1.0  0.68787  0.17797  0.77077  1.0000
  N   N5        1.0  0.24467  0.40853  0.64859  1.0000
  N   N6        1.0  0.25533  0.59147  0.14859  1.0000
  N   N7        1.0  0.75533  0.59147  0.35141  1.0000
  N   N8        1.0  0.74467  0.40853  0.85141  1.0000
  N   N9        1.0  0.95346  0.51728  0.73893  1.0000
  N   N10       1.0  0.54654  0.48272  0.23893  1.0000
  N   N11       1.0  0.04654  0.48272  0.26107  1.0000
  N   N12       1.0  0.45346  0.51728  0.76107  1.0000
  N   N13       1.0  0.96390  0.65130  0.73024  1.0000
  N   N14       1.0  0.53610  0.34871  0.23024  1.0000
  N   N15       1.0  0.03610  0.34870  0.26976  1.0000
  N   N16       1.0  0.46390  0.65130  0.76976  1.0000
  N   N17       1.0  0.97171  0.77978  0.72234  1.0000
  N   N18       1.0  0.52829  0.22021  0.22234  1.0000
  N   N19       1.0  0.02829  0.22021  0.27766  1.0000
  N   N20       1.0  0.47171  0.77979  0.77766  1.0000
  Cl  Cl1       1.0  0.12771  0.40799  0.95506  1.0000
  Cl  Cl2       1.0  0.37229  0.59201  0.45506  1.0000
  Cl  Cl3       1.0  0.87229  0.59201  0.04494  1.0000
  Cl  Cl4       1.0  0.62772  0.40798  0.54493  1.0000
  Cl  Cl5       1.0  0.29350  0.83548  0.96812  1.0000
  Cl  Cl6       1.0  0.20651  0.16452  0.46812  1.0000
  Cl  Cl7       1.0  0.70649  0.16452  0.03188  1.0000
  Cl  Cl8       1.0  0.79350  0.83547  0.53188  1.0000
  O   O1        1.0  0.13033  0.35884  0.82959  1.0000
  O   O2        1.0  0.36966  0.64116  0.32958  1.0000
  O   O3        1.0  0.86967  0.64116  0.17042  1.0000
  O   O4        1.0  0.63034  0.35884  0.67041  1.0000
