data_image0
_chemical_formula_structural       Zn4H18C16N2O16
_chemical_formula_sum              "Zn4 H18 C16 N2 O16"
_cell_length_a       6.08378
_cell_length_b       7.39367
_cell_length_c       12.2409
_cell_angle_alpha    101.584
_cell_angle_beta     94.5145
_cell_angle_gamma    96.3143

_space_group_name_H-M_alt    "P 1"
_space_group_IT_number       1

loop_
  _space_group_symop_operation_xyz
  'x, y, z'

loop_
  _atom_site_type_symbol
  _atom_site_label
  _atom_site_symmetry_multiplicity
  _atom_site_fract_x
  _atom_site_fract_y
  _atom_site_fract_z
  _atom_site_occupancy
  Zn  Zn1       1.0  0.42767  0.65912  0.08852  1.0000
  Zn  Zn2       1.0  0.57233  0.34088  0.91148  1.0000
  Zn  Zn3       1.0  0.08570  0.42477  0.82319  1.0000
  Zn  Zn4       1.0  0.91430  0.57523  0.17681  1.0000
  H   H1        1.0  0.62682  0.00733  0.12077  1.0000
  H   H2        1.0  0.37318  0.99267  0.87923  1.0000
  H   H3        1.0  0.74458  0.89117  0.01659  1.0000
  H   H4        1.0  0.25542  0.10883  0.98341  1.0000
  H   H5        1.0  0.04904  0.71570  0.02303  1.0000
  H   H6        1.0  0.95095  0.28430  0.97697  1.0000
  H   H7        1.0  0.57237  0.36116  0.13348  1.0000
  H   H8        1.0  0.42763  0.63884  0.86652  1.0000
  H   H9        1.0  0.90300  0.86789  0.53594  1.0000
  H   H10       1.0  0.09700  0.13211  0.46406  1.0000
  H   H11       1.0  0.22529  0.64726  0.40983  1.0000
  H   H12       1.0  0.77470  0.35274  0.59018  1.0000
  H   H13       1.0  0.13970  0.66278  0.60963  1.0000
  H   H14       1.0  0.86030  0.33722  0.39037  1.0000
  H   H15       1.0  0.00232  0.96601  0.71650  1.0000
  H   H16       1.0  0.99768  0.03399  0.28350  1.0000
  H   H17       1.0  0.79688  0.03063  0.80565  1.0000
  H   H18       1.0  0.20313  0.96937  0.19435  1.0000
  C   C1        1.0  0.73092  0.82482  0.54704  1.0000
  C   C2        1.0  0.26908  0.17518  0.45296  1.0000
  C   C3        1.0  0.57089  0.75845  0.45758  1.0000
  C   C4        1.0  0.42911  0.24155  0.54242  1.0000
  C   C5        1.0  0.35196  0.70310  0.48025  1.0000
  C   C6        1.0  0.64803  0.29690  0.51975  1.0000
  C   C7        1.0  0.30288  0.71376  0.58893  1.0000
  C   C8        1.0  0.69712  0.28624  0.41107  1.0000
  C   C9        1.0  0.46751  0.78687  0.68117  1.0000
  C   C10       1.0  0.53249  0.21313  0.31883  1.0000
  C   C11       1.0  0.62628  0.73781  0.33934  1.0000
  C   C12       1.0  0.37373  0.26219  0.66066  1.0000
  C   C13       1.0  0.85028  0.91326  0.74887  1.0000
  C   C14       1.0  0.14972  0.08674  0.25113  1.0000
  C   C15       1.0  0.90489  0.76291  0.81244  1.0000
  C   C16       1.0  0.09512  0.23709  0.18756  1.0000
  N   N1        1.0  0.68099  0.84149  0.65417  1.0000
  N   N2        1.0  0.31902  0.15851  0.34583  1.0000
  O   O1        1.0  0.83003  0.72429  0.32155  1.0000
  O   O2        1.0  0.16997  0.27571  0.67845  1.0000
  O   O3        1.0  0.64391  0.88340  0.07584  1.0000
  O   O4        1.0  0.35609  0.11660  0.92416  1.0000
  O   O5        1.0  0.46538  0.73263  0.26644  1.0000
  O   O6        1.0  0.53463  0.26737  0.73356  1.0000
  O   O7        1.0  0.43750  0.80432  0.78403  1.0000
  O   O8        1.0  0.56252  0.19567  0.21597  1.0000
  O   O9        1.0  0.92455  0.80357  0.91791  1.0000
  O   O10       1.0  0.07545  0.19643  0.08208  1.0000
  O   O11       1.0  0.93708  0.60778  0.75149  1.0000
  O   O12       1.0  0.06293  0.39222  0.24851  1.0000
  O   O13       1.0  0.11813  0.69438  0.09445  1.0000
  O   O14       1.0  0.88187  0.30562  0.90555  1.0000
  O   O15       1.0  0.62272  0.45563  0.09058  1.0000
  O   O16       1.0  0.37728  0.54436  0.90942  1.0000
