data_image0
_chemical_formula_structural       Cu4H64C52N8O16
_chemical_formula_sum              "Cu4 H64 C52 N8 O16"
_cell_length_a       8.11296
_cell_length_b       11.453
_cell_length_c       14.8381
_cell_angle_alpha    108.306
_cell_angle_beta     90
_cell_angle_gamma    90

_space_group_name_H-M_alt    "P 1"
_space_group_IT_number       1

loop_
  _space_group_symop_operation_xyz
  'x, y, z'

loop_
  _atom_site_type_symbol
  _atom_site_label
  _atom_site_symmetry_multiplicity
  _atom_site_fract_x
  _atom_site_fract_y
  _atom_site_fract_z
  _atom_site_occupancy
  Cu  Cu1       1.0  0.93189  0.05818  0.94711  1.0000
  Cu  Cu2       1.0  0.43189  0.44181  0.55289  1.0000
  Cu  Cu3       1.0  0.06811  0.94181  0.05288  1.0000
  Cu  Cu4       1.0  0.56810  0.55819  0.44711  1.0000
  H   H1        1.0  0.84607  0.31665  0.94069  1.0000
  H   H2        1.0  0.34606  0.18335  0.55931  1.0000
  H   H3        1.0  0.15393  0.68335  0.05931  1.0000
  H   H4        1.0  0.65393  0.81666  0.44068  1.0000
  H   H5        1.0  0.74497  0.41934  0.82596  1.0000
  H   H6        1.0  0.24497  0.08066  0.67404  1.0000
  H   H7        1.0  0.25503  0.58066  0.17405  1.0000
  H   H8        1.0  0.75503  0.91935  0.32595  1.0000
  H   H9        1.0  0.66857  0.29020  0.66160  1.0000
  H   H10       1.0  0.16857  0.20980  0.83840  1.0000
  H   H11       1.0  0.33142  0.70980  0.33841  1.0000
  H   H12       1.0  0.83142  0.79021  0.16159  1.0000
  H   H13       1.0  0.78894  0.97160  0.74609  1.0000
  H   H14       1.0  0.28894  0.52840  0.75391  1.0000
  H   H15       1.0  0.21106  0.02840  0.25392  1.0000
  H   H16       1.0  0.71106  0.47161  0.24609  1.0000
  H   H17       1.0  0.63129  0.94899  0.59167  1.0000
  H   H18       1.0  0.13130  0.55101  0.90833  1.0000
  H   H19       1.0  0.36870  0.05101  0.40834  1.0000
  H   H20       1.0  0.86870  0.44899  0.09167  1.0000
  H   H21       1.0  0.59770  0.08205  0.55627  1.0000
  H   H22       1.0  0.09770  0.41795  0.94373  1.0000
  H   H23       1.0  0.40230  0.91795  0.44373  1.0000
  H   H24       1.0  0.90230  0.58205  0.05627  1.0000
  H   H25       1.0  0.96871  0.17327  0.58522  1.0000
  H   H26       1.0  0.46871  0.32673  0.91478  1.0000
  H   H27       1.0  0.03129  0.82673  0.41479  1.0000
  H   H28       1.0  0.53129  0.67326  0.08521  1.0000
  H   H29       1.0  0.82275  0.16930  0.49470  1.0000
  H   H30       1.0  0.32274  0.33070  0.00530  1.0000
  H   H31       1.0  0.17725  0.83070  0.50530  1.0000
  H   H32       1.0  0.67725  0.66929  0.99470  1.0000
  H   H33       1.0  0.88225  0.84299  0.55963  1.0000
  H   H34       1.0  0.38226  0.65700  0.94037  1.0000
  H   H35       1.0  0.11774  0.15700  0.44037  1.0000
  H   H36       1.0  0.61774  0.34299  0.05963  1.0000
  H   H37       1.0  0.00458  0.97022  0.62683  1.0000
  H   H38       1.0  0.50458  0.52976  0.87317  1.0000
  H   H39       1.0  0.99542  0.02977  0.37317  1.0000
  H   H40       1.0  0.49541  0.47023  0.12683  1.0000
  H   H41       1.0  0.56394  0.95220  0.17889  1.0000
  H   H42       1.0  0.06394  0.54780  0.32111  1.0000
  H   H43       1.0  0.43607  0.04781  0.82111  1.0000
  H   H44       1.0  0.93606  0.45218  0.67889  1.0000
  H   H45       1.0  0.46708  0.00959  0.09369  1.0000
  H   H46       1.0  0.96707  0.49042  0.40631  1.0000
  H   H47       1.0  0.53293  0.99042  0.90630  1.0000
  H   H48       1.0  0.03292  0.50958  0.59369  1.0000
  H   H49       1.0  0.56770  0.22575  0.19234  1.0000
  H   H50       1.0  0.06768  0.27425  0.30766  1.0000
  H   H51       1.0  0.43231  0.77425  0.80765  1.0000
  H   H52       1.0  0.93231  0.72574  0.69235  1.0000
  H   H53       1.0  0.40814  0.15936  0.24046  1.0000
  H   H54       1.0  0.90813  0.34065  0.25954  1.0000
  H   H55       1.0  0.59187  0.84064  0.75954  1.0000
  H   H56       1.0  0.09187  0.65935  0.74046  1.0000
  H   H57       1.0  0.61748  0.09365  0.34184  1.0000
  H   H58       1.0  0.11747  0.40635  0.15816  1.0000
  H   H59       1.0  0.38253  0.90636  0.65816  1.0000
  H   H60       1.0  0.88253  0.59364  0.84184  1.0000
  H   H61       1.0  0.77434  0.16950  0.29734  1.0000
  H   H62       1.0  0.27433  0.33051  0.20267  1.0000
  H   H63       1.0  0.22567  0.83051  0.70266  1.0000
  H   H64       1.0  0.72566  0.66949  0.79734  1.0000
  C   C1        1.0  0.81052  0.26304  0.86891  1.0000
  C   C2        1.0  0.31052  0.23695  0.63109  1.0000
  C   C3        1.0  0.18948  0.73695  0.13109  1.0000
  C   C4        1.0  0.68949  0.76306  0.36891  1.0000
  C   C5        1.0  0.75500  0.31969  0.80420  1.0000
  C   C6        1.0  0.25499  0.18031  0.69580  1.0000
  C   C7        1.0  0.24500  0.68031  0.19580  1.0000
  C   C8        1.0  0.74501  0.81970  0.30419  1.0000
  C   C9        1.0  0.71103  0.24702  0.71330  1.0000
  C   C10       1.0  0.21103  0.25298  0.78671  1.0000
  C   C11       1.0  0.28897  0.75298  0.28671  1.0000
  C   C12       1.0  0.78897  0.74703  0.21329  1.0000
  C   C13       1.0  0.72159  0.11885  0.68971  1.0000
  C   C14       1.0  0.22159  0.38115  0.81029  1.0000
  C   C15       1.0  0.27841  0.88115  0.31029  1.0000
  C   C16       1.0  0.77841  0.61886  0.18971  1.0000
  C   C17       1.0  0.77837  0.07060  0.75959  1.0000
  C   C18       1.0  0.27837  0.42939  0.74041  1.0000
  C   C19       1.0  0.22163  0.92939  0.24041  1.0000
  C   C20       1.0  0.72163  0.57061  0.25959  1.0000
  C   C21       1.0  0.68635  0.03628  0.59012  1.0000
  C   C22       1.0  0.18635  0.46372  0.90988  1.0000
  C   C23       1.0  0.31365  0.96372  0.40988  1.0000
  C   C24       1.0  0.81365  0.53628  0.09012  1.0000
  C   C25       1.0  0.91476  0.11396  0.51770  1.0000
  C   C26       1.0  0.41475  0.38603  0.98230  1.0000
  C   C27       1.0  0.08524  0.88603  0.48230  1.0000
  C   C28       1.0  0.58524  0.61396  0.01769  1.0000
  C   C29       1.0  0.94887  0.92526  0.55604  1.0000
  C   C30       1.0  0.44887  0.57473  0.94396  1.0000
  C   C31       1.0  0.05113  0.07473  0.44396  1.0000
  C   C32       1.0  0.55113  0.42526  0.05604  1.0000
  C   C33       1.0  0.72880  0.01985  0.09408  1.0000
  C   C34       1.0  0.22879  0.48015  0.40592  1.0000
  C   C35       1.0  0.27121  0.98015  0.90592  1.0000
  C   C36       1.0  0.77121  0.51984  0.59409  1.0000
  C   C37       1.0  0.56664  0.02605  0.14634  1.0000
  C   C38       1.0  0.06664  0.47395  0.35366  1.0000
  C   C39       1.0  0.43336  0.97395  0.85366  1.0000
  C   C40       1.0  0.93336  0.52604  0.64634  1.0000
  C   C41       1.0  0.53988  0.15130  0.22216  1.0000
  C   C42       1.0  0.03987  0.34870  0.27784  1.0000
  C   C43       1.0  0.46012  0.84870  0.77783  1.0000
  C   C44       1.0  0.96012  0.65130  0.72217  1.0000
  C   C45       1.0  0.64176  0.16900  0.31273  1.0000
  C   C46       1.0  0.14175  0.33101  0.18727  1.0000
  C   C47       1.0  0.35825  0.83101  0.68727  1.0000
  C   C48       1.0  0.85824  0.66899  0.81273  1.0000
  C   C49       1.0  0.59581  0.28994  0.38681  1.0000
  C   C50       1.0  0.09580  0.21006  0.11319  1.0000
  C   C51       1.0  0.40420  0.71007  0.61318  1.0000
  C   C52       1.0  0.90419  0.78993  0.88681  1.0000
  N   N1        1.0  0.82276  0.14051  0.84721  1.0000
  N   N2        1.0  0.32275  0.35949  0.65279  1.0000
  N   N3        1.0  0.17725  0.85949  0.15280  1.0000
  N   N4        1.0  0.67724  0.64052  0.34721  1.0000
  N   N5        1.0  0.83246  0.00571  0.52886  1.0000
  N   N6        1.0  0.33246  0.49429  0.97115  1.0000
  N   N7        1.0  0.16754  0.99429  0.47114  1.0000
  N   N8        1.0  0.66754  0.50571  0.02886  1.0000
  O   O1        1.0  0.73211  0.07097  0.02917  1.0000
  O   O2        1.0  0.23209  0.42903  0.47083  1.0000
  O   O3        1.0  0.26792  0.92902  0.97083  1.0000
  O   O4        1.0  0.76791  0.57098  0.52918  1.0000
  O   O5        1.0  0.84879  0.96493  0.11909  1.0000
  O   O6        1.0  0.34879  0.53506  0.38091  1.0000
  O   O7        1.0  0.15121  0.03507  0.88092  1.0000
  O   O8        1.0  0.65121  0.46493  0.61908  1.0000
  O   O9        1.0  0.51632  0.28433  0.45951  1.0000
  O   O10       1.0  0.01632  0.21567  0.04049  1.0000
  O   O11       1.0  0.48368  0.71568  0.54049  1.0000
  O   O12       1.0  0.98368  0.78432  0.95951  1.0000
  O   O13       1.0  0.63611  0.38741  0.36829  1.0000
  O   O14       1.0  0.13611  0.11260  0.13171  1.0000
  O   O15       1.0  0.36390  0.61260  0.63171  1.0000
  O   O16       1.0  0.86390  0.88740  0.86829  1.0000
