data_image0
_chemical_formula_structural       Cd4H28C32N4O24
_chemical_formula_sum              "Cd4 H28 C32 N4 O24"
_cell_length_a       6.13182
_cell_length_b       7.97733
_cell_length_c       18.9583
_cell_angle_alpha    90.0004
_cell_angle_beta     98.9465
_cell_angle_gamma    89.9999

_space_group_name_H-M_alt    "P 1"
_space_group_IT_number       1

loop_
  _space_group_symop_operation_xyz
  'x, y, z'

loop_
  _atom_site_type_symbol
  _atom_site_label
  _atom_site_symmetry_multiplicity
  _atom_site_fract_x
  _atom_site_fract_y
  _atom_site_fract_z
  _atom_site_occupancy
  Cd  Cd1       1.0  0.18532  0.15894  0.70316  1.0000
  Cd  Cd2       1.0  0.31467  0.65895  0.79684  1.0000
  Cd  Cd3       1.0  0.81468  0.84106  0.29684  1.0000
  Cd  Cd4       1.0  0.68533  0.34106  0.20316  1.0000
  H   H1        1.0  0.75126  0.03440  0.63782  1.0000
  H   H2        1.0  0.74873  0.53440  0.86217  1.0000
  H   H3        1.0  0.24874  0.96561  0.36218  1.0000
  H   H4        1.0  0.25127  0.46561  0.13783  1.0000
  H   H5        1.0  0.89593  0.87922  0.67442  1.0000
  H   H6        1.0  0.60406  0.37922  0.82558  1.0000
  H   H7        1.0  0.10406  0.12079  0.32558  1.0000
  H   H8        1.0  0.39594  0.62078  0.17442  1.0000
  H   H9        1.0  0.14436  0.41804  0.47729  1.0000
  H   H10       1.0  0.35564  0.91803  0.02271  1.0000
  H   H11       1.0  0.85563  0.58195  0.52271  1.0000
  H   H12       1.0  0.64438  0.08195  0.97730  1.0000
  H   H13       1.0  0.73357  0.11658  0.51522  1.0000
  H   H14       1.0  0.76642  0.61659  0.98478  1.0000
  H   H15       1.0  0.26643  0.88341  0.48478  1.0000
  H   H16       1.0  0.23357  0.38340  0.01522  1.0000
  H   H17       1.0  0.81820  0.20167  0.39630  1.0000
  H   H18       1.0  0.68180  0.70168  0.10370  1.0000
  H   H19       1.0  0.18178  0.79833  0.60370  1.0000
  H   H20       1.0  0.31821  0.29832  0.89630  1.0000
  H   H21       1.0  0.31209  0.63130  0.33351  1.0000
  H   H22       1.0  0.18792  0.13129  0.16649  1.0000
  H   H23       1.0  0.68790  0.36871  0.66649  1.0000
  H   H24       1.0  0.81208  0.86870  0.83351  1.0000
  H   H25       1.0  0.11280  0.60928  0.39215  1.0000
  H   H26       1.0  0.38721  0.10927  0.10785  1.0000
  H   H27       1.0  0.88719  0.39072  0.60785  1.0000
  H   H28       1.0  0.61280  0.89073  0.89215  1.0000
  C   C1        1.0  0.29433  0.36685  0.46173  1.0000
  C   C2        1.0  0.20567  0.86685  0.03827  1.0000
  C   C3        1.0  0.70566  0.63316  0.53826  1.0000
  C   C4        1.0  0.79434  0.13315  0.96174  1.0000
  C   C5        1.0  0.42790  0.25781  0.50517  1.0000
  C   C6        1.0  0.07209  0.75781  0.99483  1.0000
  C   C7        1.0  0.57209  0.74219  0.49482  1.0000
  C   C8        1.0  0.92792  0.24218  0.00518  1.0000
  C   C9        1.0  0.62298  0.20060  0.48117  1.0000
  C   C10       1.0  0.87701  0.70061  0.01883  1.0000
  C   C11       1.0  0.37702  0.79940  0.51882  1.0000
  C   C12       1.0  0.12298  0.29939  0.98117  1.0000
  C   C13       1.0  0.67210  0.24863  0.41585  1.0000
  C   C14       1.0  0.82789  0.74864  0.08415  1.0000
  C   C15       1.0  0.32789  0.75137  0.58414  1.0000
  C   C16       1.0  0.17211  0.25136  0.91586  1.0000
  C   C17       1.0  0.53016  0.35889  0.37013  1.0000
  C   C18       1.0  0.96984  0.85888  0.12987  1.0000
  C   C19       1.0  0.46983  0.64112  0.62987  1.0000
  C   C20       1.0  0.03016  0.14112  0.87013  1.0000
  C   C21       1.0  0.36544  0.21135  0.57541  1.0000
  C   C22       1.0  0.13455  0.71136  0.92459  1.0000
  C   C23       1.0  0.63455  0.78864  0.42460  1.0000
  C   C24       1.0  0.86546  0.28864  0.07540  1.0000
  C   C25       1.0  0.20670  0.54169  0.35635  1.0000
  C   C26       1.0  0.29331  0.04168  0.14365  1.0000
  C   C27       1.0  0.79333  0.45830  0.64366  1.0000
  C   C28       1.0  0.70668  0.95831  0.85634  1.0000
  C   C29       1.0  0.04253  0.46948  0.29619  1.0000
  C   C30       1.0  0.45748  0.96947  0.20381  1.0000
  C   C31       1.0  0.95746  0.53053  0.70381  1.0000
  C   C32       1.0  0.54253  0.03053  0.79619  1.0000
  N   N1        1.0  0.34499  0.41803  0.39831  1.0000
  N   N2        1.0  0.15501  0.91802  0.10169  1.0000
  N   N3        1.0  0.65502  0.58196  0.60169  1.0000
  N   N4        1.0  0.84498  0.08197  0.89831  1.0000
  O   O1        1.0  0.49412  0.12277  0.61928  1.0000
  O   O2        1.0  0.00588  0.62277  0.88072  1.0000
  O   O3        1.0  0.50589  0.87722  0.38072  1.0000
  O   O4        1.0  0.99411  0.37722  0.11928  1.0000
  O   O5        1.0  0.90336  0.98704  0.64885  1.0000
  O   O6        1.0  0.59663  0.48705  0.85115  1.0000
  O   O7        1.0  0.09664  0.01297  0.35115  1.0000
  O   O8        1.0  0.40337  0.51296  0.14885  1.0000
  O   O9        1.0  0.18022  0.26640  0.58962  1.0000
  O   O10       1.0  0.31977  0.76640  0.91037  1.0000
  O   O11       1.0  0.81976  0.73361  0.41037  1.0000
  O   O12       1.0  0.68027  0.23359  0.08964  1.0000
  O   O13       1.0  0.55370  0.41164  0.30946  1.0000
  O   O14       1.0  0.94631  0.91163  0.19054  1.0000
  O   O15       1.0  0.44630  0.58836  0.69055  1.0000
  O   O16       1.0  0.05368  0.08836  0.80945  1.0000
  O   O17       1.0  0.91568  0.57499  0.25938  1.0000
  O   O18       1.0  0.58432  0.07498  0.24063  1.0000
  O   O19       1.0  0.08431  0.42502  0.74062  1.0000
  O   O20       1.0  0.41568  0.92503  0.75938  1.0000
  O   O21       1.0  0.02781  0.31320  0.28475  1.0000
  O   O22       1.0  0.47220  0.81319  0.21526  1.0000
  O   O23       1.0  0.97219  0.68680  0.71526  1.0000
  O   O24       1.0  0.52780  0.18681  0.78474  1.0000
