data_image0
_chemical_formula_structural       Cd4H36C32N4O28
_chemical_formula_sum              "Cd4 H36 C32 N4 O28"
_cell_length_a       8.17023
_cell_length_b       8.24329
_cell_length_c       19.517
_cell_angle_alpha    90
_cell_angle_beta     90
_cell_angle_gamma    111.506

_space_group_name_H-M_alt    "P 1"
_space_group_IT_number       1

loop_
  _space_group_symop_operation_xyz
  'x, y, z'

loop_
  _atom_site_type_symbol
  _atom_site_label
  _atom_site_symmetry_multiplicity
  _atom_site_fract_x
  _atom_site_fract_y
  _atom_site_fract_z
  _atom_site_occupancy
  Cd  Cd1       1.0  0.30613  0.80399  0.78650  1.0000
  Cd  Cd2       1.0  0.69388  0.69601  0.28649  1.0000
  Cd  Cd3       1.0  0.69387  0.19600  0.21350  1.0000
  Cd  Cd4       1.0  0.30613  0.30399  0.71350  1.0000
  H   H1        1.0  0.54929  0.65218  0.82464  1.0000
  H   H2        1.0  0.45071  0.84781  0.32464  1.0000
  H   H3        1.0  0.45070  0.34781  0.17536  1.0000
  H   H4        1.0  0.54930  0.15219  0.67535  1.0000
  H   H5        1.0  0.54858  0.76679  0.88988  1.0000
  H   H6        1.0  0.45142  0.73321  0.38988  1.0000
  H   H7        1.0  0.45142  0.23321  0.11012  1.0000
  H   H8        1.0  0.54858  0.26679  0.61012  1.0000
  H   H9        1.0  0.07660  0.88892  0.68507  1.0000
  H   H10       1.0  0.92340  0.61107  0.18507  1.0000
  H   H11       1.0  0.92339  0.11108  0.31493  1.0000
  H   H12       1.0  0.07661  0.38892  0.81493  1.0000
  H   H13       1.0  0.05595  0.68991  0.67592  1.0000
  H   H14       1.0  0.94406  0.81008  0.17591  1.0000
  H   H15       1.0  0.94405  0.31009  0.32408  1.0000
  H   H16       1.0  0.05595  0.18991  0.82408  1.0000
  H   H17       1.0  0.81025  0.85970  0.64860  1.0000
  H   H18       1.0  0.18975  0.64029  0.14860  1.0000
  H   H19       1.0  0.18975  0.14030  0.35140  1.0000
  H   H20       1.0  0.81025  0.35972  0.85140  1.0000
  H   H21       1.0  0.92355  0.23462  0.48555  1.0000
  H   H22       1.0  0.07646  0.26538  0.98554  1.0000
  H   H23       1.0  0.07646  0.76538  0.51446  1.0000
  H   H24       1.0  0.92354  0.73463  0.01446  1.0000
  H   H25       1.0  0.66299  0.03014  0.42195  1.0000
  H   H26       1.0  0.33702  0.46986  0.92194  1.0000
  H   H27       1.0  0.33702  0.96986  0.57806  1.0000
  H   H28       1.0  0.66298  0.53015  0.07806  1.0000
  H   H29       1.0  0.59055  0.56321  0.62071  1.0000
  H   H30       1.0  0.40944  0.93678  0.12071  1.0000
  H   H31       1.0  0.40945  0.43679  0.37930  1.0000
  H   H32       1.0  0.59055  0.06322  0.87930  1.0000
  H   H33       1.0  0.41248  0.56999  0.57041  1.0000
  H   H34       1.0  0.58752  0.93001  0.07040  1.0000
  H   H35       1.0  0.58752  0.43001  0.42960  1.0000
  H   H36       1.0  0.41248  0.07000  0.92960  1.0000
  C   C1        1.0  0.78572  0.90192  0.59808  1.0000
  C   C2        1.0  0.21428  0.59806  0.09808  1.0000
  C   C3        1.0  0.21428  0.09807  0.40192  1.0000
  C   C4        1.0  0.78571  0.40194  0.90192  1.0000
  C   C5        1.0  0.89397  0.05725  0.57036  1.0000
  C   C6        1.0  0.10602  0.44274  0.07035  1.0000
  C   C7        1.0  0.10603  0.94275  0.42965  1.0000
  C   C8        1.0  0.89397  0.55727  0.92965  1.0000
  C   C9        1.0  0.84474  0.10702  0.50638  1.0000
  C   C10       1.0  0.15526  0.39297  0.00637  1.0000
  C   C11       1.0  0.15526  0.89298  0.49363  1.0000
  C   C12       1.0  0.84474  0.60703  0.99362  1.0000
  C   C13       1.0  0.70173  0.99583  0.47161  1.0000
  C   C14       1.0  0.29828  0.50417  0.97160  1.0000
  C   C15       1.0  0.29828  0.00418  0.52840  1.0000
  C   C16       1.0  0.70172  0.49584  0.02840  1.0000
  C   C17       1.0  0.59401  0.82966  0.49914  1.0000
  C   C18       1.0  0.40598  0.67034  0.99914  1.0000
  C   C19       1.0  0.40598  0.17034  0.50086  1.0000
  C   C20       1.0  0.59401  0.32967  0.00086  1.0000
  C   C21       1.0  0.05283  0.16470  0.60931  1.0000
  C   C22       1.0  0.94717  0.33529  0.10931  1.0000
  C   C23       1.0  0.94717  0.83529  0.39069  1.0000
  C   C24       1.0  0.05283  0.66471  0.89069  1.0000
  C   C25       1.0  0.52104  0.64771  0.60381  1.0000
  C   C26       1.0  0.47895  0.85229  0.10381  1.0000
  C   C27       1.0  0.47896  0.35229  0.39619  1.0000
  C   C28       1.0  0.52104  0.14772  0.89619  1.0000
  C   C29       1.0  0.44750  0.70939  0.66612  1.0000
  C   C30       1.0  0.55250  0.79060  0.16612  1.0000
  C   C31       1.0  0.55250  0.29061  0.33388  1.0000
  C   C32       1.0  0.44749  0.20939  0.83388  1.0000
  N   N1        1.0  0.64038  0.79468  0.56525  1.0000
  N   N2        1.0  0.35962  0.70531  0.06525  1.0000
  N   N3        1.0  0.35962  0.20532  0.43475  1.0000
  N   N4        1.0  0.64038  0.29470  0.93475  1.0000
  O   O1        1.0  0.55037  0.76716  0.83767  1.0000
  O   O2        1.0  0.44964  0.73284  0.33767  1.0000
  O   O3        1.0  0.44963  0.23284  0.16233  1.0000
  O   O4        1.0  0.55037  0.26716  0.66233  1.0000
  O   O5        1.0  0.36132  0.59211  0.70978  1.0000
  O   O6        1.0  0.63867  0.90788  0.20978  1.0000
  O   O7        1.0  0.63867  0.40788  0.29022  1.0000
  O   O8        1.0  0.36133  0.09211  0.79022  1.0000
  O   O9        1.0  0.06567  0.77884  0.71009  1.0000
  O   O10       1.0  0.93433  0.72115  0.21008  1.0000
  O   O11       1.0  0.93433  0.22116  0.28991  1.0000
  O   O12       1.0  0.06567  0.27885  0.78991  1.0000
  O   O13       1.0  0.09903  0.08576  0.65942  1.0000
  O   O14       1.0  0.90097  0.41423  0.15942  1.0000
  O   O15       1.0  0.90098  0.91423  0.34058  1.0000
  O   O16       1.0  0.09903  0.58577  0.84059  1.0000
  O   O17       1.0  0.46314  0.71819  0.47018  1.0000
  O   O18       1.0  0.53686  0.78182  0.97018  1.0000
  O   O19       1.0  0.53687  0.28182  0.52982  1.0000
  O   O20       1.0  0.46314  0.21819  0.02982  1.0000
  O   O21       1.0  0.47019  0.86754  0.67458  1.0000
  O   O22       1.0  0.52981  0.63246  0.17458  1.0000
  O   O23       1.0  0.52982  0.13247  0.32542  1.0000
  O   O24       1.0  0.47017  0.36753  0.82542  1.0000
  O   O25       1.0  0.13539  0.32169  0.59480  1.0000
  O   O26       1.0  0.86461  0.17829  0.09480  1.0000
  O   O27       1.0  0.86462  0.67830  0.40520  1.0000
  O   O28       1.0  0.13539  0.82171  0.90520  1.0000
