data_image0
_chemical_formula_structural       CuH22C26N2O8F2
_chemical_formula_sum              "Cu1 H22 C26 N2 O8 F2"
_cell_length_a       6.62322
_cell_length_b       8.01868
_cell_length_c       11.4401
_cell_angle_alpha    83.7038
_cell_angle_beta     83.0478
_cell_angle_gamma    85.2744

_space_group_name_H-M_alt    "P 1"
_space_group_IT_number       1

loop_
  _space_group_symop_operation_xyz
  'x, y, z'

loop_
  _atom_site_type_symbol
  _atom_site_label
  _atom_site_symmetry_multiplicity
  _atom_site_fract_x
  _atom_site_fract_y
  _atom_site_fract_z
  _atom_site_occupancy
  Cu  Cu1       1.0  0.50000  0.50000  0.50000  1.0000
  H   H1        1.0  0.38107  0.25006  0.39515  1.0000
  H   H2        1.0  0.61893  0.74994  0.60485  1.0000
  H   H3        1.0  0.62845  0.15191  0.16696  1.0000
  H   H4        1.0  0.37155  0.84809  0.83305  1.0000
  H   H5        1.0  0.06547  0.13301  0.95110  1.0000
  H   H6        1.0  0.93452  0.86700  0.04890  1.0000
  H   H7        1.0  0.35885  0.30580  0.96402  1.0000
  H   H8        1.0  0.64115  0.69420  0.03598  1.0000
  H   H9        1.0  0.03015  0.52241  0.26447  1.0000
  H   H10       1.0  0.96985  0.47759  0.73553  1.0000
  H   H11       1.0  0.45207  0.27832  0.72716  1.0000
  H   H12       1.0  0.54794  0.72168  0.27284  1.0000
  H   H13       1.0  0.67161  0.05991  0.83861  1.0000
  H   H14       1.0  0.32840  0.94009  0.16140  1.0000
  H   H15       1.0  0.03196  0.99613  0.75276  1.0000
  H   H16       1.0  0.96805  0.00387  0.24724  1.0000
  H   H17       1.0  0.92736  0.37080  0.46353  1.0000
  H   H18       1.0  0.07263  0.62919  0.53647  1.0000
  H   H19       1.0  0.32510  0.10697  0.60830  1.0000
  H   H20       1.0  0.67490  0.89302  0.39170  1.0000
  H   H21       1.0  0.22157  0.03063  0.49099  1.0000
  H   H22       1.0  0.77843  0.96937  0.50901  1.0000
  C   C1        1.0  0.69264  0.34812  0.28172  1.0000
  C   C2        1.0  0.30736  0.65188  0.71828  1.0000
  C   C3        1.0  0.87229  0.33996  0.19091  1.0000
  C   C4        1.0  0.12770  0.66005  0.80909  1.0000
  C   C5        1.0  0.88204  0.23008  0.10100  1.0000
  C   C6        1.0  0.11796  0.76993  0.89899  1.0000
  C   C7        1.0  0.05691  0.21925  0.01891  1.0000
  C   C8        1.0  0.94308  0.78076  0.98109  1.0000
  C   C9        1.0  0.22068  0.31423  0.02579  1.0000
  C   C10       1.0  0.77931  0.68577  0.97421  1.0000
  C   C11       1.0  0.20715  0.42227  0.11430  1.0000
  C   C12       1.0  0.79284  0.57774  0.88570  1.0000
  C   C13       1.0  0.03731  0.43729  0.19604  1.0000
  C   C14       1.0  0.96269  0.56271  0.80395  1.0000
  C   C15       1.0  0.60902  0.24419  0.69336  1.0000
  C   C16       1.0  0.39099  0.75580  0.30664  1.0000
  C   C17       1.0  0.73201  0.12382  0.75419  1.0000
  C   C18       1.0  0.26799  0.87618  0.24582  1.0000
  C   C19       1.0  0.93300  0.08969  0.70675  1.0000
  C   C20       1.0  0.06701  0.91031  0.29326  1.0000
  C   C21       1.0  0.00704  0.17687  0.59959  1.0000
  C   C22       1.0  0.99296  0.82313  0.40041  1.0000
  C   C23       1.0  0.87505  0.29755  0.54551  1.0000
  C   C24       1.0  0.12495  0.70245  0.45449  1.0000
  C   C25       1.0  0.21985  0.14181  0.54032  1.0000
  C   C26       1.0  0.78016  0.85819  0.45968  1.0000
  N   N1        1.0  0.67998  0.32931  0.59048  1.0000
  N   N2        1.0  0.32002  0.67069  0.40953  1.0000
  O   O1        1.0  0.67995  0.46662  0.34912  1.0000
  O   O2        1.0  0.32004  0.53338  0.65088  1.0000
  O   O3        1.0  0.56419  0.23510  0.28845  1.0000
  O   O4        1.0  0.43581  0.76489  0.71155  1.0000
  O   O5        1.0  0.27937  0.28376  0.46258  1.0000
  O   O6        1.0  0.72062  0.71624  0.53742  1.0000
  O   O7        1.0  0.72756  0.13124  0.09438  1.0000
  O   O8        1.0  0.27244  0.86876  0.90563  1.0000
  F   F1        1.0  0.36809  0.51705  0.11980  1.0000
  F   F2        1.0  0.63191  0.48295  0.88020  1.0000
