data_image0
_chemical_formula_structural       Pr2H44C48N30O16
_chemical_formula_sum              "Pr2 H44 C48 N30 O16"
_cell_length_a       10.6945
_cell_length_b       12.0047
_cell_length_c       13.63
_cell_angle_alpha    94.2935
_cell_angle_beta     101.411
_cell_angle_gamma    113.409

_space_group_name_H-M_alt    "P 1"
_space_group_IT_number       1

loop_
  _space_group_symop_operation_xyz
  'x, y, z'

loop_
  _atom_site_type_symbol
  _atom_site_label
  _atom_site_symmetry_multiplicity
  _atom_site_fract_x
  _atom_site_fract_y
  _atom_site_fract_z
  _atom_site_occupancy
  Pr  Pr1       1.0  0.94825  0.11542  0.40975  1.0000
  Pr  Pr2       1.0  0.05175  0.88458  0.59025  1.0000
  H   H1        1.0  0.04791  0.12870  0.18216  1.0000
  H   H2        1.0  0.95209  0.87130  0.81784  1.0000
  H   H3        1.0  0.64041  0.95741  0.21224  1.0000
  H   H4        1.0  0.35959  0.04259  0.78776  1.0000
  H   H5        1.0  0.01155  0.36594  0.51603  1.0000
  H   H6        1.0  0.98846  0.63406  0.48397  1.0000
  H   H7        1.0  0.99058  0.28947  0.60943  1.0000
  H   H8        1.0  0.00942  0.71053  0.39057  1.0000
  H   H9        1.0  0.62377  0.11420  0.34960  1.0000
  H   H10       1.0  0.37623  0.88580  0.65040  1.0000
  H   H11       1.0  0.23374  0.57048  0.31705  1.0000
  H   H12       1.0  0.76626  0.42952  0.68295  1.0000
  H   H13       1.0  0.32992  0.49100  0.37536  1.0000
  H   H14       1.0  0.67009  0.50900  0.62464  1.0000
  H   H15       1.0  0.00890  0.44203  0.95455  1.0000
  H   H16       1.0  0.99110  0.55797  0.04545  1.0000
  H   H17       1.0  0.94083  0.40712  0.76754  1.0000
  H   H18       1.0  0.05917  0.59289  0.23246  1.0000
  H   H19       1.0  0.15102  0.18510  0.74646  1.0000
  H   H20       1.0  0.84897  0.81490  0.25354  1.0000
  H   H21       1.0  0.23837  0.21892  0.93410  1.0000
  H   H22       1.0  0.76162  0.78107  0.06590  1.0000
  H   H23       1.0  0.78367  0.13729  0.64663  1.0000
  H   H24       1.0  0.21633  0.86271  0.35337  1.0000
  H   H25       1.0  0.64629  0.99578  0.57681  1.0000
  H   H26       1.0  0.35371  0.00422  0.42319  1.0000
  H   H27       1.0  0.54041  0.91978  0.02436  1.0000
  H   H28       1.0  0.45959  0.08022  0.97564  1.0000
  H   H29       1.0  0.96545  0.09679  0.99290  1.0000
  H   H30       1.0  0.03455  0.90321  0.00710  1.0000
  H   H31       1.0  0.61468  0.60704  0.34065  1.0000
  H   H32       1.0  0.38532  0.39296  0.65935  1.0000
  H   H33       1.0  0.53794  0.66929  0.42217  1.0000
  H   H34       1.0  0.46207  0.33071  0.57783  1.0000
  H   H35       1.0  0.20194  0.74309  0.00858  1.0000
  H   H36       1.0  0.79806  0.25692  0.99142  1.0000
  H   H37       1.0  0.13301  0.70609  0.81818  1.0000
  H   H38       1.0  0.86699  0.29392  0.18182  1.0000
  H   H39       1.0  0.42900  0.56995  0.80126  1.0000
  H   H40       1.0  0.57100  0.43005  0.19874  1.0000
  H   H41       1.0  0.51196  0.60253  0.98931  1.0000
  H   H42       1.0  0.48804  0.39747  0.01069  1.0000
  H   H43       1.0  0.75087  0.21963  0.43368  1.0000
  H   H44       1.0  0.24913  0.78037  0.56632  1.0000
  C   C1        1.0  0.93641  0.08329  0.14424  1.0000
  C   C2        1.0  0.06359  0.91671  0.85576  1.0000
  C   C3        1.0  0.70901  0.98740  0.16102  1.0000
  C   C4        1.0  0.29099  0.01260  0.83898  1.0000
  C   C5        1.0  0.11332  0.40807  0.37505  1.0000
  C   C6        1.0  0.88669  0.59193  0.62495  1.0000
  C   C7        1.0  0.23103  0.47935  0.32404  1.0000
  C   C8        1.0  0.76897  0.52065  0.67596  1.0000
  C   C9        1.0  0.18215  0.35618  0.07157  1.0000
  C   C10       1.0  0.81785  0.64382  0.92844  1.0000
  C   C11       1.0  0.13122  0.33402  0.96100  1.0000
  C   C12       1.0  0.86878  0.66598  0.03900  1.0000
  C   C13       1.0  0.04433  0.38527  0.91199  1.0000
  C   C14       1.0  0.95567  0.61473  0.08801  1.0000
  C   C15       1.0  0.00486  0.36461  0.80645  1.0000
  C   C16       1.0  0.99514  0.63539  0.19355  1.0000
  C   C17       1.0  0.12310  0.24325  0.79487  1.0000
  C   C18       1.0  0.87690  0.75675  0.20513  1.0000
  C   C19       1.0  0.17072  0.26082  0.89990  1.0000
  C   C20       1.0  0.82928  0.73917  0.10010  1.0000
  C   C21       1.0  0.84751  0.98862  0.62897  1.0000
  C   C22       1.0  0.15248  0.01138  0.37103  1.0000
  C   C23       1.0  0.73809  0.03696  0.64217  1.0000
  C   C24       1.0  0.26190  0.96304  0.35783  1.0000
  C   C25       1.0  0.69493  0.99198  0.88428  1.0000
  C   C26       1.0  0.30506  0.00802  0.11572  1.0000
  C   C27       1.0  0.74574  0.00629  0.99378  1.0000
  C   C28       1.0  0.25426  0.99371  0.00622  1.0000
  C   C29       1.0  0.65345  0.96587  0.05653  1.0000
  C   C30       1.0  0.34655  0.03412  0.94347  1.0000
  C   C31       1.0  0.89044  0.06504  0.03933  1.0000
  C   C32       1.0  0.10956  0.93496  0.96067  1.0000
  C   C33       1.0  0.73539  0.80004  0.40510  1.0000
  C   C34       1.0  0.26461  0.19997  0.59490  1.0000
  C   C35       1.0  0.59415  0.68687  0.36178  1.0000
  C   C36       1.0  0.40586  0.31313  0.63822  1.0000
  C   C37       1.0  0.40720  0.69769  0.12512  1.0000
  C   C38       1.0  0.59280  0.30231  0.87488  1.0000
  C   C39       1.0  0.36268  0.67541  0.01435  1.0000
  C   C40       1.0  0.63732  0.32459  0.98565  1.0000
  C   C41       1.0  0.25492  0.70504  0.96481  1.0000
  C   C42       1.0  0.74507  0.29496  0.03518  1.0000
  C   C43       1.0  0.21674  0.68414  0.85895  1.0000
  C   C44       1.0  0.78326  0.31587  0.14105  1.0000
  C   C45       1.0  0.37976  0.60775  0.84917  1.0000
  C   C46       1.0  0.62024  0.39225  0.15083  1.0000
  C   C47       1.0  0.42649  0.62549  0.95456  1.0000
  C   C48       1.0  0.57351  0.37451  0.04544  1.0000
  N   N1        1.0  0.84769  0.04573  0.20522  1.0000
  N   N2        1.0  0.15231  0.95427  0.79478  1.0000
  N   N3        1.0  0.15164  0.42479  0.13762  1.0000
  N   N4        1.0  0.84837  0.57521  0.86238  1.0000
  N   N5        1.0  0.22642  0.41948  0.22616  1.0000
  N   N6        1.0  0.77358  0.58052  0.77384  1.0000
  N   N7        1.0  0.29951  0.35222  0.21789  1.0000
  N   N8        1.0  0.70049  0.64777  0.78211  1.0000
  N   N9        1.0  0.27178  0.31125  0.12038  1.0000
  N   N10       1.0  0.72822  0.68875  0.87962  1.0000
  N   N11       1.0  0.04247  0.29495  0.74743  1.0000
  N   N12       1.0  0.95753  0.70505  0.25258  1.0000
  N   N13       1.0  0.78021  0.03918  0.82335  1.0000
  N   N14       1.0  0.21978  0.96081  0.17665  1.0000
  N   N15       1.0  0.69115  0.00640  0.73327  1.0000
  N   N16       1.0  0.30885  0.99360  0.26673  1.0000
  N   N17       1.0  0.55665  0.94184  0.73572  1.0000
  N   N18       1.0  0.44335  0.05815  0.26428  1.0000
  N   N19       1.0  0.55787  0.93261  0.83121  1.0000
  N   N20       1.0  0.44213  0.06739  0.16879  1.0000
  N   N21       1.0  0.49962  0.66142  0.17902  1.0000
  N   N22       1.0  0.50039  0.33858  0.82098  1.0000
  N   N23       1.0  0.50435  0.70104  0.27401  1.0000
  N   N24       1.0  0.49565  0.29896  0.72599  1.0000
  N   N25       1.0  0.42216  0.75965  0.28122  1.0000
  N   N26       1.0  0.57785  0.24035  0.71878  1.0000
  N   N27       1.0  0.35972  0.75801  0.18724  1.0000
  N   N28       1.0  0.64028  0.24199  0.81276  1.0000
  N   N29       1.0  0.27695  0.63597  0.80084  1.0000
  N   N30       1.0  0.72305  0.36403  0.19916  1.0000
  O   O1        1.0  0.81559  0.77976  0.47528  1.0000
  O   O2        1.0  0.18442  0.22024  0.52472  1.0000
  O   O3        1.0  0.85694  0.90363  0.67312  1.0000
  O   O4        1.0  0.14305  0.09637  0.32688  1.0000
  O   O5        1.0  0.11646  0.46666  0.45590  1.0000
  O   O6        1.0  0.88354  0.53334  0.54410  1.0000
  O   O7        1.0  0.02954  0.29751  0.33284  1.0000
  O   O8        1.0  0.97046  0.70249  0.66717  1.0000
  O   O9        1.0  0.92651  0.03887  0.57052  1.0000
  O   O10       1.0  0.07349  0.96113  0.42948  1.0000
  O   O11       1.0  0.75621  0.89808  0.36895  1.0000
  O   O12       1.0  0.24379  0.10192  0.63105  1.0000
  O   O13       1.0  0.95227  0.28582  0.53529  1.0000
  O   O14       1.0  0.04773  0.71418  0.46471  1.0000
  O   O15       1.0  0.71783  0.13685  0.39518  1.0000
  O   O16       1.0  0.28217  0.86315  0.60482  1.0000
