data_image0
_chemical_formula_structural       Ca2H24C16N4O12
_chemical_formula_sum              "Ca2 H24 C16 N4 O12"
_cell_length_a       8.01783
_cell_length_b       8.01783
_cell_length_c       9.81568
_cell_angle_alpha    74.033
_cell_angle_beta     74.033
_cell_angle_gamma    62.0838

_space_group_name_H-M_alt    "P 1"
_space_group_IT_number       1

loop_
  _space_group_symop_operation_xyz
  'x, y, z'

loop_
  _atom_site_type_symbol
  _atom_site_label
  _atom_site_symmetry_multiplicity
  _atom_site_fract_x
  _atom_site_fract_y
  _atom_site_fract_z
  _atom_site_occupancy
  Ca  Ca1       1.0  0.61728  0.38272  0.25000  1.0000
  Ca  Ca2       1.0  0.38272  0.61728  0.75000  1.0000
  H   H1        1.0  0.32746  0.01396  0.10866  1.0000
  H   H2        1.0  0.98604  0.67254  0.39134  1.0000
  H   H3        1.0  0.67254  0.98604  0.89134  1.0000
  H   H4        1.0  0.01396  0.32746  0.60866  1.0000
  H   H5        1.0  0.17169  0.91963  0.10802  1.0000
  H   H6        1.0  0.08036  0.82831  0.39198  1.0000
  H   H7        1.0  0.82831  0.08037  0.89198  1.0000
  H   H8        1.0  0.91963  0.17169  0.60802  1.0000
  H   H9        1.0  0.28329  0.20223  0.86200  1.0000
  H   H10       1.0  0.79777  0.71671  0.63800  1.0000
  H   H11       1.0  0.71671  0.79777  0.13800  1.0000
  H   H12       1.0  0.20223  0.28329  0.36200  1.0000
  H   H13       1.0  0.17216  0.06978  0.83761  1.0000
  H   H14       1.0  0.93022  0.82784  0.66239  1.0000
  H   H15       1.0  0.82784  0.93022  0.16239  1.0000
  H   H16       1.0  0.06978  0.17216  0.33761  1.0000
  H   H17       1.0  0.78993  0.54179  0.90973  1.0000
  H   H18       1.0  0.45821  0.21007  0.59027  1.0000
  H   H19       1.0  0.21007  0.45821  0.09027  1.0000
  H   H20       1.0  0.54179  0.78993  0.40973  1.0000
  H   H21       1.0  0.01466  0.47754  0.79269  1.0000
  H   H22       1.0  0.52246  0.98534  0.70731  1.0000
  H   H23       1.0  0.98534  0.52246  0.20731  1.0000
  H   H24       1.0  0.47754  0.01466  0.29269  1.0000
  C   C1        1.0  0.44704  0.78984  0.98602  1.0000
  C   C2        1.0  0.21016  0.55296  0.51398  1.0000
  C   C3        1.0  0.55296  0.21016  0.01398  1.0000
  C   C4        1.0  0.78984  0.44704  0.48602  1.0000
  C   C5        1.0  0.27972  0.96700  0.03723  1.0000
  C   C6        1.0  0.03300  0.72028  0.46277  1.0000
  C   C7        1.0  0.72028  0.03300  0.96278  1.0000
  C   C8        1.0  0.96700  0.27973  0.53723  1.0000
  C   C9        1.0  0.19080  0.12890  0.91846  1.0000
  C   C10       1.0  0.87110  0.80920  0.58153  1.0000
  C   C11       1.0  0.80921  0.87109  0.08154  1.0000
  C   C12       1.0  0.12890  0.19080  0.41846  1.0000
  C   C13       1.0  0.99463  0.27637  0.97141  1.0000
  C   C14       1.0  0.72362  0.00537  0.52858  1.0000
  C   C15       1.0  0.00537  0.72362  0.02859  1.0000
  C   C16       1.0  0.27637  0.99463  0.47141  1.0000
  N   N1        1.0  0.92670  0.44295  0.88208  1.0000
  N   N2        1.0  0.55705  0.07330  0.61792  1.0000
  N   N3        1.0  0.07330  0.55705  0.11792  1.0000
  N   N4        1.0  0.44295  0.92670  0.38208  1.0000
  O   O1        1.0  0.49356  0.77928  0.85182  1.0000
  O   O2        1.0  0.22072  0.50644  0.64818  1.0000
  O   O3        1.0  0.50644  0.22072  0.14818  1.0000
  O   O4        1.0  0.77928  0.49356  0.35182  1.0000
  O   O5        1.0  0.53493  0.65665  0.08050  1.0000
  O   O6        1.0  0.34335  0.46507  0.41950  1.0000
  O   O7        1.0  0.46507  0.34335  0.91950  1.0000
  O   O8        1.0  0.65665  0.53493  0.58050  1.0000
  O   O9        1.0  0.89897  0.23889  0.09100  1.0000
  O   O10       1.0  0.76111  0.10103  0.40900  1.0000
  O   O11       1.0  0.10103  0.76111  0.90900  1.0000
  O   O12       1.0  0.23889  0.89897  0.59100  1.0000
