data_image0
_chemical_formula_structural       Mn2H50C48N4O8
_chemical_formula_sum              "Mn2 H50 C48 N4 O8"
_cell_length_a       6.7258
_cell_length_b       11.7124
_cell_length_c       14.712
_cell_angle_alpha    111.532
_cell_angle_beta     90.3117
_cell_angle_gamma    91.0363

_space_group_name_H-M_alt    "P 1"
_space_group_IT_number       1

loop_
  _space_group_symop_operation_xyz
  'x, y, z'

loop_
  _atom_site_type_symbol
  _atom_site_label
  _atom_site_symmetry_multiplicity
  _atom_site_fract_x
  _atom_site_fract_y
  _atom_site_fract_z
  _atom_site_occupancy
  Mn  Mn1       1.0  0.24617  0.00801  0.27078  1.0000
  Mn  Mn2       1.0  0.75385  0.99199  0.72922  1.0000
  H   H1        1.0  0.22613  0.04956  0.57771  1.0000
  H   H2        1.0  0.77386  0.95044  0.42229  1.0000
  H   H3        1.0  0.45988  0.75604  0.26237  1.0000
  H   H4        1.0  0.54013  0.24396  0.73763  1.0000
  H   H5        1.0  0.23756  0.69651  0.29598  1.0000
  H   H6        1.0  0.76245  0.30350  0.70402  1.0000
  H   H7        1.0  0.04327  0.72943  0.17171  1.0000
  H   H8        1.0  0.95672  0.27057  0.82830  1.0000
  H   H9        1.0  0.27062  0.66929  0.11401  1.0000
  H   H10       1.0  0.72937  0.33072  0.88599  1.0000
  H   H11       1.0  0.25360  0.95069  0.95950  1.0000
  H   H12       1.0  0.74639  0.04931  0.04050  1.0000
  H   H13       1.0  0.39418  0.75258  0.43589  1.0000
  H   H14       1.0  0.60582  0.24742  0.56410  1.0000
  H   H15       1.0  0.14199  0.77101  0.47253  1.0000
  H   H16       1.0  0.85801  0.22899  0.52746  1.0000
  H   H17       1.0  0.33309  0.86177  0.55193  1.0000
  H   H18       1.0  0.66690  0.13822  0.44806  1.0000
  H   H19       1.0  0.08388  0.68280  0.98182  1.0000
  H   H20       1.0  0.91612  0.31721  0.01818  1.0000
  H   H21       1.0  0.34691  0.68256  0.96876  1.0000
  H   H22       1.0  0.65309  0.31745  0.03124  1.0000
  H   H23       1.0  0.19568  0.75308  0.90591  1.0000
  H   H24       1.0  0.80432  0.24692  0.09410  1.0000
  H   H25       1.0  0.19050  0.20982  0.67934  1.0000
  H   H26       1.0  0.80950  0.79018  0.32066  1.0000
  H   H27       1.0  0.17173  0.42076  0.80216  1.0000
  H   H28       1.0  0.82827  0.57924  0.19784  1.0000
  H   H29       1.0  0.18990  0.60105  0.75148  1.0000
  H   H30       1.0  0.81010  0.39894  0.24851  1.0000
  H   H31       1.0  0.22693  0.56913  0.57519  1.0000
  H   H32       1.0  0.77306  0.43086  0.42480  1.0000
  H   H33       1.0  0.24963  0.35693  0.45146  1.0000
  H   H34       1.0  0.75037  0.64306  0.54853  1.0000
  H   H35       1.0  0.28440  0.08775  0.91539  1.0000
  H   H36       1.0  0.71559  0.91225  0.08462  1.0000
  H   H37       1.0  0.30234  0.26572  0.86883  1.0000
  H   H38       1.0  0.69766  0.73428  0.13118  1.0000
  H   H39       1.0  0.29901  0.47877  0.99679  1.0000
  H   H40       1.0  0.70099  0.52123  0.00322  1.0000
  H   H41       1.0  0.28577  0.50466  0.17328  1.0000
  H   H42       1.0  0.71422  0.49534  0.82672  1.0000
  H   H43       1.0  0.26757  0.32129  0.21986  1.0000
  H   H44       1.0  0.73242  0.67870  0.78014  1.0000
  H   H45       1.0  0.71355  0.22819  0.33123  1.0000
  H   H46       1.0  0.28646  0.77182  0.66877  1.0000
  H   H47       1.0  0.90292  0.18528  0.24114  1.0000
  H   H48       1.0  0.09709  0.81472  0.75886  1.0000
  H   H49       1.0  0.64063  0.16566  0.20749  1.0000
  H   H50       1.0  0.35937  0.83434  0.79250  1.0000
  C   C1        1.0  0.23879  0.14496  0.47905  1.0000
  C   C2        1.0  0.76121  0.85504  0.52095  1.0000
  C   C3        1.0  0.23812  0.04015  0.50167  1.0000
  C   C4        1.0  0.76187  0.95985  0.49834  1.0000
  C   C5        1.0  0.26006  0.91824  0.43347  1.0000
  C   C6        1.0  0.73993  0.08176  0.56653  1.0000
  C   C7        1.0  0.29767  0.76653  0.26967  1.0000
  C   C8        1.0  0.70234  0.23348  0.73033  1.0000
  C   C9        1.0  0.20416  0.74853  0.17065  1.0000
  C   C10       1.0  0.79583  0.25147  0.82935  1.0000
  C   C11       1.0  0.23142  0.85745  0.05922  1.0000
  C   C12       1.0  0.76857  0.14255  0.94078  1.0000
  C   C13       1.0  0.24889  0.96515  0.03661  1.0000
  C   C14       1.0  0.75110  0.03485  0.96339  1.0000
  C   C15       1.0  0.25570  0.08494  0.10364  1.0000
  C   C16       1.0  0.74430  0.91506  0.89636  1.0000
  C   C17       1.0  0.28441  0.82004  0.47563  1.0000
  C   C18       1.0  0.71559  0.17996  0.52437  1.0000
  C   C19       1.0  0.21293  0.73701  0.97414  1.0000
  C   C20       1.0  0.78707  0.26299  0.02587  1.0000
  C   C21       1.0  0.22362  0.26929  0.55635  1.0000
  C   C22       1.0  0.77637  0.73071  0.44364  1.0000
  C   C23       1.0  0.20073  0.28803  0.65589  1.0000
  C   C24       1.0  0.79927  0.71197  0.34410  1.0000
  C   C25       1.0  0.18913  0.40686  0.72511  1.0000
  C   C26       1.0  0.81086  0.59313  0.27488  1.0000
  C   C27       1.0  0.19912  0.50860  0.69691  1.0000
  C   C28       1.0  0.80087  0.49140  0.30309  1.0000
  C   C29       1.0  0.22040  0.49066  0.59824  1.0000
  C   C30       1.0  0.77959  0.50934  0.40175  1.0000
  C   C31       1.0  0.23285  0.37222  0.52865  1.0000
  C   C32       1.0  0.76714  0.62778  0.47134  1.0000
  C   C33       1.0  0.27136  0.19151  0.07172  1.0000
  C   C34       1.0  0.72864  0.80849  0.92828  1.0000
  C   C35       1.0  0.28225  0.17799  0.97297  1.0000
  C   C36       1.0  0.71776  0.82201  0.02704  1.0000
  C   C37       1.0  0.29275  0.28035  0.94624  1.0000
  C   C38       1.0  0.70725  0.71965  0.05376  1.0000
  C   C39       1.0  0.29211  0.39863  0.01784  1.0000
  C   C40       1.0  0.70789  0.60137  0.98216  1.0000
  C   C41       1.0  0.28411  0.41325  0.11651  1.0000
  C   C42       1.0  0.71589  0.58674  0.88350  1.0000
  C   C43       1.0  0.27413  0.31079  0.14325  1.0000
  C   C44       1.0  0.72587  0.68920  0.85676  1.0000
  C   C45       1.0  0.75133  0.03439  0.26641  1.0000
  C   C46       1.0  0.24866  0.96563  0.73359  1.0000
  C   C47       1.0  0.75450  0.16085  0.25959  1.0000
  C   C48       1.0  0.24550  0.83915  0.74041  1.0000
  N   N1        1.0  0.25879  0.89045  0.33813  1.0000
  N   N2        1.0  0.74123  0.10955  0.66187  1.0000
  N   N3        1.0  0.23219  0.86016  0.14967  1.0000
  N   N4        1.0  0.76779  0.13984  0.85033  1.0000
  O   O1        1.0  0.25915  0.14506  0.39070  1.0000
  O   O2        1.0  0.74089  0.85494  0.60930  1.0000
  O   O3        1.0  0.24597  0.11435  0.19802  1.0000
  O   O4        1.0  0.75405  0.88565  0.80198  1.0000
  O   O5        1.0  0.91448  0.98748  0.27802  1.0000
  O   O6        1.0  0.08552  0.01255  0.72204  1.0000
  O   O7        1.0  0.58429  0.97999  0.26210  1.0000
  O   O8        1.0  0.41570  0.01998  0.73785  1.0000
