data_image0
_chemical_formula_structural       Tl4H16C24N12
_chemical_formula_sum              "Tl4 H16 C24 N12"
_cell_length_a       4.02394
_cell_length_b       12.2155
_cell_length_c       13.4908
_cell_angle_alpha    93.8244
_cell_angle_beta     98.5457
_cell_angle_gamma    89.9706

_space_group_name_H-M_alt    "P 1"
_space_group_IT_number       1

loop_
  _space_group_symop_operation_xyz
  'x, y, z'

loop_
  _atom_site_type_symbol
  _atom_site_label
  _atom_site_symmetry_multiplicity
  _atom_site_fract_x
  _atom_site_fract_y
  _atom_site_fract_z
  _atom_site_occupancy
  Tl  Tl1       1.0  0.06253  0.62694  0.07769  1.0000
  Tl  Tl2       1.0  0.98567  0.87287  0.92246  1.0000
  Tl  Tl3       1.0  0.93749  0.37306  0.92231  1.0000
  Tl  Tl4       1.0  0.01433  0.12713  0.07754  1.0000
  H   H1        1.0  0.26460  0.55353  0.34780  1.0000
  H   H2        1.0  0.91760  0.94658  0.65280  1.0000
  H   H3        1.0  0.73540  0.44647  0.65220  1.0000
  H   H4        1.0  0.08240  0.05342  0.34720  1.0000
  H   H5        1.0  0.19074  0.42155  0.47603  1.0000
  H   H6        1.0  0.71626  0.07844  0.52437  1.0000
  H   H7        1.0  0.80927  0.57845  0.52397  1.0000
  H   H8        1.0  0.28373  0.92157  0.47563  1.0000
  H   H9        1.0  0.32923  0.22619  0.45164  1.0000
  H   H10       1.0  0.87898  0.27379  0.54856  1.0000
  H   H11       1.0  0.67077  0.77381  0.54836  1.0000
  H   H12       1.0  0.12102  0.72621  0.45145  1.0000
  H   H13       1.0  0.56018  0.15309  0.29842  1.0000
  H   H14       1.0  0.26343  0.34693  0.70156  1.0000
  H   H15       1.0  0.43982  0.84691  0.70158  1.0000
  H   H16       1.0  0.73658  0.65307  0.29844  1.0000
  C   C1        1.0  0.45213  0.42608  0.24947  1.0000
  C   C2        1.0  0.20388  0.07404  0.75083  1.0000
  C   C3        1.0  0.54787  0.57392  0.75052  1.0000
  C   C4        1.0  0.79611  0.92596  0.24917  1.0000
  C   C5        1.0  0.32831  0.46727  0.33669  1.0000
  C   C6        1.0  0.99236  0.03284  0.66380  1.0000
  C   C7        1.0  0.67169  0.53273  0.66331  1.0000
  C   C8        1.0  0.00763  0.96716  0.33621  1.0000
  C   C9        1.0  0.28882  0.39321  0.40777  1.0000
  C   C10       1.0  0.88219  0.10683  0.59262  1.0000
  C   C11       1.0  0.71118  0.60679  0.59222  1.0000
  C   C12       1.0  0.11780  0.89317  0.40738  1.0000
  C   C13       1.0  0.37012  0.28087  0.39387  1.0000
  C   C14       1.0  0.97765  0.21912  0.60633  1.0000
  C   C15       1.0  0.62988  0.71913  0.60613  1.0000
  C   C16       1.0  0.02235  0.78087  0.39367  1.0000
  C   C17       1.0  0.49627  0.23939  0.30894  1.0000
  C   C18       1.0  0.18915  0.26062  0.69111  1.0000
  C   C19       1.0  0.50373  0.76061  0.69106  1.0000
  C   C20       1.0  0.81084  0.73938  0.30889  1.0000
  C   C21       1.0  0.69814  0.81363  0.23617  1.0000
  C   C22       1.0  0.46371  0.68633  0.76375  1.0000
  C   C23       1.0  0.30186  0.18637  0.76383  1.0000
  C   C24       1.0  0.53629  0.31367  0.23625  1.0000
  N   N1        1.0  0.51117  0.47512  0.16510  1.0000
  N   N2        1.0  0.34713  0.02504  0.83521  1.0000
  N   N3        1.0  0.48884  0.52488  0.83490  1.0000
  N   N4        1.0  0.65287  0.97496  0.16479  1.0000
  N   N5        1.0  0.37900  0.60370  0.89605  1.0000
  N   N6        1.0  0.48146  0.89620  0.10383  1.0000
  N   N7        1.0  0.62100  0.39630  0.10395  1.0000
  N   N8        1.0  0.51854  0.10380  0.89617  1.0000
  N   N9        1.0  0.50149  0.79880  0.14419  1.0000
  N   N10       1.0  0.35917  0.70117  0.85581  1.0000
  N   N11       1.0  0.49851  0.20120  0.85581  1.0000
  N   N12       1.0  0.64083  0.29883  0.14419  1.0000
