data_image0
_chemical_formula_structural       Ca2H36C24O28
_chemical_formula_sum              "Ca2 H36 C24 O28"
_cell_length_a       6.34986
_cell_length_b       8.24783
_cell_length_c       15.829
_cell_angle_alpha    90.0002
_cell_angle_beta     89.9998
_cell_angle_gamma    108.346

_space_group_name_H-M_alt    "P 1"
_space_group_IT_number       1

loop_
  _space_group_symop_operation_xyz
  'x, y, z'

loop_
  _atom_site_type_symbol
  _atom_site_label
  _atom_site_symmetry_multiplicity
  _atom_site_fract_x
  _atom_site_fract_y
  _atom_site_fract_z
  _atom_site_occupancy
  Ca  Ca1       1.0  0.52822  0.78209  0.75115  1.0000
  Ca  Ca2       1.0  0.47178  0.21791  0.25115  1.0000
  H   H1        1.0  0.13886  0.44837  0.71809  1.0000
  H   H2        1.0  0.86114  0.55164  0.21809  1.0000
  H   H3        1.0  0.15413  0.48114  0.81609  1.0000
  H   H4        1.0  0.84587  0.51887  0.31610  1.0000
  H   H5        1.0  0.97071  0.98770  0.84210  1.0000
  H   H6        1.0  0.02929  0.01230  0.34210  1.0000
  H   H7        1.0  0.03910  0.91875  0.75760  1.0000
  H   H8        1.0  0.96090  0.08125  0.25760  1.0000
  H   H9        1.0  0.22453  0.34699  0.08891  1.0000
  H   H10       1.0  0.77547  0.65301  0.58891  1.0000
  H   H11       1.0  0.00373  0.70296  0.88126  1.0000
  H   H12       1.0  0.99628  0.29704  0.38127  1.0000
  H   H13       1.0  0.58530  0.44841  0.95900  1.0000
  H   H14       1.0  0.41470  0.55159  0.45900  1.0000
  H   H15       1.0  0.61088  0.74971  0.93874  1.0000
  H   H16       1.0  0.38912  0.25029  0.43874  1.0000
  H   H17       1.0  0.73143  0.34355  0.82475  1.0000
  H   H18       1.0  0.26857  0.65645  0.32475  1.0000
  H   H19       1.0  0.45302  0.34942  0.82340  1.0000
  H   H20       1.0  0.54699  0.65058  0.32340  1.0000
  H   H21       1.0  0.78828  0.52319  0.71666  1.0000
  H   H22       1.0  0.21172  0.47682  0.21667  1.0000
  H   H23       1.0  0.08714  0.21328  0.93554  1.0000
  H   H24       1.0  0.91287  0.78672  0.43555  1.0000
  H   H25       1.0  0.76442  0.22040  0.01650  1.0000
  H   H26       1.0  0.23558  0.77960  0.51651  1.0000
  H   H27       1.0  0.84264  0.97792  0.08479  1.0000
  H   H28       1.0  0.15736  0.02209  0.58479  1.0000
  H   H29       1.0  0.89798  0.24650  0.15051  1.0000
  H   H30       1.0  0.10202  0.75350  0.65051  1.0000
  H   H31       1.0  0.44408  0.78080  0.09551  1.0000
  H   H32       1.0  0.55592  0.21920  0.59551  1.0000
  H   H33       1.0  0.61205  0.79914  0.18726  1.0000
  H   H34       1.0  0.38795  0.20086  0.68727  1.0000
  H   H35       1.0  0.22258  0.85577  0.18201  1.0000
  H   H36       1.0  0.77742  0.14423  0.68201  1.0000
  C   C1        1.0  0.97676  0.64712  0.07331  1.0000
  C   C2        1.0  0.02324  0.35287  0.57331  1.0000
  C   C3        1.0  0.04230  0.50458  0.04736  1.0000
  C   C4        1.0  0.95770  0.49541  0.54737  1.0000
  C   C5        1.0  0.02011  0.48781  0.96029  1.0000
  C   C6        1.0  0.97989  0.51220  0.46028  1.0000
  C   C7        1.0  0.91095  0.61701  0.93097  1.0000
  C   C8        1.0  0.08905  0.38299  0.43098  1.0000
  C   C9        1.0  0.66640  0.53341  0.90644  1.0000
  C   C10       1.0  0.33361  0.46659  0.40644  1.0000
  C   C11       1.0  0.62854  0.42845  0.82535  1.0000
  C   C12       1.0  0.37147  0.57155  0.32535  1.0000
  C   C13       1.0  0.40019  0.98856  0.92110  1.0000
  C   C14       1.0  0.59981  0.01144  0.42110  1.0000
  C   C15       1.0  0.28795  0.08279  0.96931  1.0000
  C   C16       1.0  0.71205  0.91721  0.46931  1.0000
  C   C17       1.0  0.41602  0.15309  0.03910  1.0000
  C   C18       1.0  0.58398  0.84691  0.53910  1.0000
  C   C19       1.0  0.62753  0.10454  0.03271  1.0000
  C   C20       1.0  0.37247  0.89546  0.53271  1.0000
  C   C21       1.0  0.70501  0.02050  0.10784  1.0000
  C   C22       1.0  0.29498  0.97950  0.60784  1.0000
  C   C23       1.0  0.52970  0.86846  0.14614  1.0000
  C   C24       1.0  0.47029  0.13154  0.64615  1.0000
  O   O1        1.0  0.19368  0.54026  0.76058  1.0000
  O   O2        1.0  0.80632  0.45974  0.26059  1.0000
  O   O3        1.0  0.91289  0.94005  0.78635  1.0000
  O   O4        1.0  0.08711  0.05996  0.28635  1.0000
  O   O5        1.0  0.97666  0.71027  0.14531  1.0000
  O   O6        1.0  0.02333  0.28973  0.64531  1.0000
  O   O7        1.0  0.10536  0.40625  0.10572  1.0000
  O   O8        1.0  0.89464  0.59374  0.60572  1.0000
  O   O9        1.0  0.06877  0.38407  0.90901  1.0000
  O   O10       1.0  0.93124  0.61593  0.40902  1.0000
  O   O11       1.0  0.90674  0.71986  0.00553  1.0000
  O   O12       1.0  0.09327  0.28014  0.50553  1.0000
  O   O13       1.0  0.56078  0.66189  0.89496  1.0000
  O   O14       1.0  0.43923  0.33811  0.39496  1.0000
  O   O15       1.0  0.67206  0.53913  0.75343  1.0000
  O   O16       1.0  0.32794  0.46087  0.25343  1.0000
  O   O17       1.0  0.34762  0.91020  0.85349  1.0000
  O   O18       1.0  0.65237  0.08980  0.35348  1.0000
  O   O19       1.0  0.08510  0.08962  0.94490  1.0000
  O   O20       1.0  0.91490  0.91038  0.44490  1.0000
  O   O21       1.0  0.38776  0.25462  0.09773  1.0000
  O   O22       1.0  0.61224  0.74538  0.59773  1.0000
  O   O23       1.0  0.59590  0.99185  0.96027  1.0000
  O   O24       1.0  0.40409  0.00815  0.46027  1.0000
  O   O25       1.0  0.78023  0.14532  0.17394  1.0000
  O   O26       1.0  0.21976  0.85468  0.67394  1.0000
  O   O27       1.0  0.37686  0.92701  0.19411  1.0000
  O   O28       1.0  0.62314  0.07299  0.69411  1.0000
