data_image0
_chemical_formula_structural       Cd2H48C24S8N4O8
_chemical_formula_sum              "Cd2 H48 C24 S8 N4 O8"
_cell_length_a       8.23374
_cell_length_b       10.62
_cell_length_c       12.4817
_cell_angle_alpha    111.599
_cell_angle_beta     108.815
_cell_angle_gamma    91.3404

_space_group_name_H-M_alt    "P 1"
_space_group_IT_number       1

loop_
  _space_group_symop_operation_xyz
  'x, y, z'

loop_
  _atom_site_type_symbol
  _atom_site_label
  _atom_site_symmetry_multiplicity
  _atom_site_fract_x
  _atom_site_fract_y
  _atom_site_fract_z
  _atom_site_occupancy
  Cd  Cd1       1.0  0.24506  0.00392  0.99708  1.0000
  Cd  Cd2       1.0  0.75494  0.99609  0.00292  1.0000
  H   H1        1.0  0.52247  0.40713  0.89731  1.0000
  H   H2        1.0  0.47754  0.59286  0.10270  1.0000
  H   H3        1.0  0.90186  0.37424  0.36211  1.0000
  H   H4        1.0  0.09815  0.62576  0.63790  1.0000
  H   H5        1.0  0.87761  0.33224  0.20446  1.0000
  H   H6        1.0  0.12239  0.66776  0.79555  1.0000
  H   H7        1.0  0.68325  0.19158  0.73689  1.0000
  H   H8        1.0  0.31674  0.80842  0.26310  1.0000
  H   H9        1.0  0.70673  0.21950  0.89085  1.0000
  H   H10       1.0  0.29327  0.78050  0.10914  1.0000
  H   H11       1.0  0.42129  0.96966  0.58710  1.0000
  H   H12       1.0  0.57871  0.03033  0.41290  1.0000
  H   H13       1.0  0.40365  0.13786  0.58647  1.0000
  H   H14       1.0  0.59634  0.86213  0.41352  1.0000
  H   H15       1.0  0.23247  0.04433  0.59969  1.0000
  H   H16       1.0  0.76753  0.95566  0.40031  1.0000
  H   H17       1.0  0.14780  0.15808  0.41612  1.0000
  H   H18       1.0  0.85221  0.84192  0.58388  1.0000
  H   H19       1.0  0.11822  0.33130  0.49206  1.0000
  H   H20       1.0  0.88179  0.66870  0.50795  1.0000
  H   H21       1.0  0.31458  0.29746  0.46309  1.0000
  H   H22       1.0  0.68542  0.70254  0.53692  1.0000
  H   H23       1.0  0.71212  0.61084  0.03042  1.0000
  H   H24       1.0  0.28788  0.38916  0.96957  1.0000
  H   H25       1.0  0.93439  0.59769  0.04701  1.0000
  H   H26       1.0  0.06561  0.40231  0.95299  1.0000
  H   H27       1.0  0.80952  0.47520  0.06852  1.0000
  H   H28       1.0  0.19048  0.52481  0.93147  1.0000
  H   H29       1.0  0.40292  0.55678  0.80931  1.0000
  H   H30       1.0  0.59708  0.44322  0.19071  1.0000
  H   H31       1.0  0.36910  0.51154  0.65007  1.0000
  H   H32       1.0  0.63087  0.48848  0.34994  1.0000
  H   H33       1.0  0.58121  0.59099  0.76602  1.0000
  H   H34       1.0  0.41877  0.40902  0.23400  1.0000
  H   H35       1.0  0.14083  0.51405  0.27811  1.0000
  H   H36       1.0  0.85917  0.48595  0.72190  1.0000
  H   H37       1.0  0.03362  0.80037  0.41112  1.0000
  H   H38       1.0  0.96639  0.19963  0.58888  1.0000
  H   H39       1.0  0.85887  0.75269  0.26691  1.0000
  H   H40       1.0  0.14113  0.24730  0.73310  1.0000
  H   H41       1.0  0.07026  0.71621  0.26865  1.0000
  H   H42       1.0  0.92974  0.28378  0.73135  1.0000
  H   H43       1.0  0.38826  0.62997  0.43117  1.0000
  H   H44       1.0  0.61174  0.37003  0.56883  1.0000
  H   H45       1.0  0.40807  0.67115  0.58851  1.0000
  H   H46       1.0  0.59194  0.32885  0.41150  1.0000
  H   H47       1.0  0.28540  0.76348  0.50690  1.0000
  H   H48       1.0  0.71460  0.23653  0.49311  1.0000
  C   C1        1.0  0.59390  0.37328  0.83262  1.0000
  C   C2        1.0  0.40609  0.62672  0.16738  1.0000
  C   C3        1.0  0.39674  0.09520  0.83388  1.0000
  C   C4        1.0  0.60326  0.90480  0.16612  1.0000
  C   C5        1.0  0.13707  0.19676  0.21089  1.0000
  C   C6        1.0  0.86294  0.80324  0.78912  1.0000
  C   C7        1.0  0.97081  0.36943  0.29913  1.0000
  C   C8        1.0  0.02920  0.63056  0.70087  1.0000
  C   C9        1.0  0.61993  0.22445  0.80553  1.0000
  C   C10       1.0  0.38007  0.77555  0.19446  1.0000
  C   C11       1.0  0.37343  0.06640  0.62457  1.0000
  C   C12       1.0  0.62656  0.93360  0.37543  1.0000
  C   C13       1.0  0.17339  0.26502  0.42701  1.0000
  C   C14       1.0  0.82662  0.73497  0.57300  1.0000
  C   C15       1.0  0.80510  0.53904  0.01559  1.0000
  C   C16       1.0  0.19490  0.46097  0.98440  1.0000
  C   C17       1.0  0.46229  0.51935  0.73837  1.0000
  C   C18       1.0  0.53769  0.48066  0.26165  1.0000
  C   C19       1.0  0.06207  0.51393  0.33515  1.0000
  C   C20       1.0  0.93794  0.48607  0.66486  1.0000
  C   C21       1.0  0.97679  0.72223  0.31600  1.0000
  C   C22       1.0  0.02320  0.27777  0.68400  1.0000
  C   C23       1.0  0.32104  0.66193  0.49768  1.0000
  C   C24       1.0  0.67897  0.33807  0.50233  1.0000
  S   S1        1.0  0.03198  0.19501  0.06503  1.0000
  S   S2        1.0  0.96802  0.80499  0.93497  1.0000
  S   S3        1.0  0.50553  0.17168  0.99225  1.0000
  S   S4        1.0  0.49447  0.82832  0.00775  1.0000
  S   S5        1.0  0.21242  0.97651  0.77295  1.0000
  S   S6        1.0  0.78758  0.02349  0.22706  1.0000
  S   S7        1.0  0.29528  0.09769  0.23301  1.0000
  S   S8        1.0  0.70472  0.90231  0.76699  1.0000
  N   N1        1.0  0.09407  0.27382  0.30751  1.0000
  N   N2        1.0  0.90594  0.72618  0.69250  1.0000
  N   N3        1.0  0.45805  0.12962  0.75859  1.0000
  N   N4        1.0  0.54195  0.87038  0.24141  1.0000
  O   O1        1.0  0.49969  0.38331  0.72102  1.0000
  O   O2        1.0  0.50029  0.61670  0.27899  1.0000
  O   O3        1.0  0.17190  0.56246  0.46116  1.0000
  O   O4        1.0  0.82811  0.43754  0.53885  1.0000
  O   O5        1.0  0.92643  0.59125  0.31379  1.0000
  O   O6        1.0  0.07357  0.40874  0.68621  1.0000
  O   O7        1.0  0.76010  0.45649  0.88679  1.0000
  O   O8        1.0  0.23990  0.54351  0.11321  1.0000
