data_image0
_chemical_formula_structural       Na4H64C24S8N4O16
_chemical_formula_sum              "Na4 H64 C24 S8 N4 O16"
_cell_length_a       5.5493
_cell_length_b       11.9292
_cell_length_c       18.0113
_cell_angle_alpha    95.2741
_cell_angle_beta     90
_cell_angle_gamma    90

_space_group_name_H-M_alt    "P 1"
_space_group_IT_number       1

loop_
  _space_group_symop_operation_xyz
  'x, y, z'

loop_
  _atom_site_type_symbol
  _atom_site_label
  _atom_site_symmetry_multiplicity
  _atom_site_fract_x
  _atom_site_fract_y
  _atom_site_fract_z
  _atom_site_occupancy
  Na  Na1       1.0  0.75972  0.58242  0.01556  1.0000
  Na  Na2       1.0  0.25972  0.91758  0.98444  1.0000
  Na  Na3       1.0  0.24027  0.41758  0.98444  1.0000
  Na  Na4       1.0  0.74027  0.08242  0.01556  1.0000
  H   H1        1.0  0.18293  0.66475  0.66987  1.0000
  H   H2        1.0  0.68293  0.83525  0.33013  1.0000
  H   H3        1.0  0.81708  0.33528  0.33013  1.0000
  H   H4        1.0  0.31707  0.16473  0.66987  1.0000
  H   H5        1.0  0.39238  0.55974  0.69272  1.0000
  H   H6        1.0  0.89240  0.94025  0.30728  1.0000
  H   H7        1.0  0.60760  0.44027  0.30727  1.0000
  H   H8        1.0  0.10760  0.05974  0.69273  1.0000
  H   H9        1.0  0.73553  0.68003  0.65813  1.0000
  H   H10       1.0  0.23553  0.81997  0.34187  1.0000
  H   H11       1.0  0.26447  0.31998  0.34186  1.0000
  H   H12       1.0  0.76445  0.18002  0.65813  1.0000
  H   H13       1.0  0.73393  0.70349  0.49029  1.0000
  H   H14       1.0  0.23396  0.79652  0.50971  1.0000
  H   H15       1.0  0.26606  0.29651  0.50970  1.0000
  H   H16       1.0  0.76609  0.20349  0.49029  1.0000
  H   H17       1.0  0.68438  0.55479  0.47727  1.0000
  H   H18       1.0  0.18441  0.94522  0.52273  1.0000
  H   H19       1.0  0.31560  0.44521  0.52273  1.0000
  H   H20       1.0  0.81562  0.05479  0.47727  1.0000
  H   H21       1.0  0.88372  0.61199  0.54920  1.0000
  H   H22       1.0  0.38375  0.88802  0.45080  1.0000
  H   H23       1.0  0.11626  0.38801  0.45080  1.0000
  H   H24       1.0  0.61629  0.11199  0.54920  1.0000
  H   H25       1.0  0.10997  0.78393  0.83688  1.0000
  H   H26       1.0  0.60999  0.71607  0.16311  1.0000
  H   H27       1.0  0.89003  0.21608  0.16312  1.0000
  H   H28       1.0  0.39001  0.28392  0.83688  1.0000
  H   H29       1.0  0.09609  0.80894  0.74091  1.0000
  H   H30       1.0  0.59609  0.69106  0.25908  1.0000
  H   H31       1.0  0.90391  0.19106  0.25908  1.0000
  H   H32       1.0  0.40388  0.30895  0.74092  1.0000
  H   H33       1.0  0.31943  0.87736  0.80003  1.0000
  H   H34       1.0  0.81947  0.62264  0.19996  1.0000
  H   H35       1.0  0.68056  0.12264  0.19996  1.0000
  H   H36       1.0  0.18052  0.37736  0.80004  1.0000
  H   H37       1.0  0.88473  0.83836  0.63105  1.0000
  H   H38       1.0  0.38473  0.66163  0.36896  1.0000
  H   H39       1.0  0.11528  0.16164  0.36895  1.0000
  H   H40       1.0  0.61527  0.33836  0.63105  1.0000
  H   H41       1.0  0.69750  0.96010  0.64006  1.0000
  H   H42       1.0  0.19749  0.53990  0.35994  1.0000
  H   H43       1.0  0.30254  0.03991  0.35994  1.0000
  H   H44       1.0  0.80251  0.46009  0.64006  1.0000
  H   H45       1.0  0.71562  0.87527  0.55225  1.0000
  H   H46       1.0  0.21561  0.62473  0.44776  1.0000
  H   H47       1.0  0.28442  0.12473  0.44775  1.0000
  H   H48       1.0  0.78442  0.37526  0.55225  1.0000
  H   H49       1.0  0.21124  0.62678  0.92453  1.0000
  H   H50       1.0  0.71126  0.87322  0.07547  1.0000
  H   H51       1.0  0.78875  0.37322  0.07547  1.0000
  H   H52       1.0  0.28874  0.12678  0.92453  1.0000
  H   H53       1.0  0.71615  0.36421  0.91926  1.0000
  H   H54       1.0  0.21615  0.13578  0.08073  1.0000
  H   H55       1.0  0.28385  0.63578  0.08073  1.0000
  H   H56       1.0  0.78383  0.86421  0.91927  1.0000
  H   H57       1.0  0.98144  0.57430  0.88235  1.0000
  H   H58       1.0  0.48146  0.92570  0.11765  1.0000
  H   H59       1.0  0.01854  0.42570  0.11765  1.0000
  H   H60       1.0  0.51854  0.07430  0.88235  1.0000
  H   H61       1.0  0.63196  0.46873  0.87976  1.0000
  H   H62       1.0  0.13196  0.03127  0.12023  1.0000
  H   H63       1.0  0.36803  0.53127  0.12023  1.0000
  H   H64       1.0  0.86803  0.96872  0.87977  1.0000
  C   C1        1.0  0.53876  0.66851  0.81677  1.0000
  C   C2        1.0  0.03877  0.83149  0.18323  1.0000
  C   C3        1.0  0.46123  0.33150  0.18323  1.0000
  C   C4        1.0  0.96122  0.16849  0.81677  1.0000
  C   C5        1.0  0.36428  0.65054  0.69145  1.0000
  C   C6        1.0  0.86429  0.84947  0.30855  1.0000
  C   C7        1.0  0.63571  0.34947  0.30855  1.0000
  C   C8        1.0  0.13572  0.15052  0.69145  1.0000
  C   C9        1.0  0.54982  0.69479  0.63853  1.0000
  C   C10       1.0  0.04983  0.80521  0.36147  1.0000
  C   C11       1.0  0.45018  0.30521  0.36147  1.0000
  C   C12       1.0  0.95018  0.19479  0.63853  1.0000
  C   C13       1.0  0.71530  0.62641  0.51889  1.0000
  C   C14       1.0  0.21533  0.87360  0.48111  1.0000
  C   C15       1.0  0.28469  0.37359  0.48111  1.0000
  C   C16       1.0  0.78471  0.12641  0.51889  1.0000
  C   C17       1.0  0.21714  0.79905  0.78773  1.0000
  C   C18       1.0  0.71716  0.70095  0.21226  1.0000
  C   C19       1.0  0.78286  0.20095  0.21226  1.0000
  C   C20       1.0  0.28283  0.29906  0.78774  1.0000
  C   C21       1.0  0.71313  0.87413  0.61323  1.0000
  C   C22       1.0  0.21312  0.62587  0.38678  1.0000
  C   C23       1.0  0.28690  0.12587  0.38677  1.0000
  C   C24       1.0  0.78690  0.37412  0.61323  1.0000
  S   S1        1.0  0.53077  0.72711  0.90850  1.0000
  S   S2        1.0  0.03077  0.77288  0.09149  1.0000
  S   S3        1.0  0.46924  0.27289  0.09149  1.0000
  S   S4        1.0  0.96923  0.22710  0.90851  1.0000
  S   S5        1.0  0.74007  0.56417  0.78809  1.0000
  S   S6        1.0  0.24007  0.93583  0.21191  1.0000
  S   S7        1.0  0.25991  0.43583  0.21190  1.0000
  S   S8        1.0  0.75990  0.06416  0.78809  1.0000
  N   N1        1.0  0.37925  0.70448  0.76747  1.0000
  N   N2        1.0  0.87926  0.79553  0.23253  1.0000
  N   N3        1.0  0.62075  0.29554  0.23253  1.0000
  N   N4        1.0  0.12074  0.20446  0.76747  1.0000
  O   O1        1.0  0.60618  0.42991  0.92572  1.0000
  O   O2        1.0  0.10617  0.07009  0.07428  1.0000
  O   O3        1.0  0.39384  0.57009  0.07429  1.0000
  O   O4        1.0  0.89380  0.92990  0.92573  1.0000
  O   O5        1.0  0.07985  0.57144  0.92850  1.0000
  O   O6        1.0  0.57984  0.92855  0.07149  1.0000
  O   O7        1.0  0.92015  0.42856  0.07150  1.0000
  O   O8        1.0  0.42014  0.07144  0.92851  1.0000
  O   O9        1.0  0.51281  0.63152  0.56881  1.0000
  O   O10       1.0  0.01283  0.86849  0.43119  1.0000
  O   O11       1.0  0.48717  0.36849  0.43119  1.0000
  O   O12       1.0  0.98718  0.13151  0.56881  1.0000
  O   O13       1.0  0.51191  0.81167  0.63758  1.0000
  O   O14       1.0  0.01191  0.68833  0.36242  1.0000
  O   O15       1.0  0.48810  0.18834  0.36241  1.0000
  O   O16       1.0  0.98810  0.31167  0.63759  1.0000
