data_image0
_chemical_formula_structural       Li2Mo2H50C42S2N12O16
_chemical_formula_sum              "Li2 Mo2 H50 C42 S2 N12 O16"
_cell_length_a       10.4476
_cell_length_b       10.7592
_cell_length_c       11.685
_cell_angle_alpha    90.1565
_cell_angle_beta     99.5196
_cell_angle_gamma    94.3696

_space_group_name_H-M_alt    "P 1"
_space_group_IT_number       1

loop_
  _space_group_symop_operation_xyz
  'x, y, z'

loop_
  _atom_site_type_symbol
  _atom_site_label
  _atom_site_symmetry_multiplicity
  _atom_site_fract_x
  _atom_site_fract_y
  _atom_site_fract_z
  _atom_site_occupancy
  Li  Li1       1.0  0.88783  0.21124  0.63108  1.0000
  Li  Li2       1.0  0.11217  0.78876  0.36892  1.0000
  Mo  Mo1       1.0  0.70242  0.55938  0.81409  1.0000
  Mo  Mo2       1.0  0.29758  0.44062  0.18591  1.0000
  H   H1        1.0  0.01991  0.64447  0.92937  1.0000
  H   H2        1.0  0.98009  0.35553  0.07063  1.0000
  H   H3        1.0  0.92563  0.02268  0.84721  1.0000
  H   H4        1.0  0.07437  0.97732  0.15279  1.0000
  H   H5        1.0  0.12445  0.88751  0.95134  1.0000
  H   H6        1.0  0.87555  0.11249  0.04866  1.0000
  H   H7        1.0  0.61676  0.53901  0.51753  1.0000
  H   H8        1.0  0.38324  0.46099  0.48247  1.0000
  H   H9        1.0  0.61435  0.94111  0.52907  1.0000
  H   H10       1.0  0.38565  0.05888  0.47093  1.0000
  H   H11       1.0  0.56937  0.74301  0.37743  1.0000
  H   H12       1.0  0.43063  0.25699  0.62257  1.0000
  H   H13       1.0  0.46701  0.60744  0.97644  1.0000
  H   H14       1.0  0.53299  0.39256  0.02356  1.0000
  H   H15       1.0  0.50537  0.99292  0.87371  1.0000
  H   H16       1.0  0.49462  0.00708  0.12629  1.0000
  H   H17       1.0  0.37035  0.83419  0.00343  1.0000
  H   H18       1.0  0.62965  0.16581  0.99656  1.0000
  H   H19       1.0  0.97651  0.24051  0.33523  1.0000
  H   H20       1.0  0.02349  0.75949  0.66477  1.0000
  H   H21       1.0  0.04014  0.31868  0.47061  1.0000
  H   H22       1.0  0.95986  0.68132  0.52939  1.0000
  H   H23       1.0  0.88676  0.48035  0.42898  1.0000
  H   H24       1.0  0.11324  0.51965  0.57102  1.0000
  H   H25       1.0  0.92385  0.45413  0.28761  1.0000
  H   H26       1.0  0.07615  0.54587  0.71239  1.0000
  H   H27       1.0  0.73326  0.31122  0.23380  1.0000
  H   H28       1.0  0.26674  0.68878  0.76620  1.0000
  H   H29       1.0  0.66933  0.42107  0.31729  1.0000
  H   H30       1.0  0.33068  0.57893  0.68271  1.0000
  H   H31       1.0  0.67779  0.28349  0.48098  1.0000
  H   H32       1.0  0.32221  0.71651  0.51902  1.0000
  H   H33       1.0  0.67490  0.16530  0.37289  1.0000
  H   H34       1.0  0.32511  0.83470  0.62711  1.0000
  H   H35       1.0  0.09099  0.30995  0.82844  1.0000
  H   H36       1.0  0.90901  0.69005  0.17156  1.0000
  H   H37       1.0  0.22038  0.32200  0.74480  1.0000
  H   H38       1.0  0.77962  0.67800  0.25520  1.0000
  H   H39       1.0  0.16212  0.11531  0.91274  1.0000
  H   H40       1.0  0.83788  0.88469  0.08726  1.0000
  H   H41       1.0  0.31560  0.19420  0.90103  1.0000
  H   H42       1.0  0.68440  0.80580  0.09897  1.0000
  H   H43       1.0  0.33228  0.08398  0.72697  1.0000
  H   H44       1.0  0.66772  0.91602  0.27303  1.0000
  H   H45       1.0  0.23955  0.96593  0.78954  1.0000
  H   H46       1.0  0.76045  0.03408  0.21046  1.0000
  H   H47       1.0  0.15554  0.08809  0.57449  1.0000
  H   H48       1.0  0.84446  0.91192  0.42551  1.0000
  H   H49       1.0  0.04881  0.99948  0.65369  1.0000
  H   H50       1.0  0.95119  0.00052  0.34631  1.0000
  C   C1        1.0  0.75899  0.48798  0.96413  1.0000
  C   C2        1.0  0.24101  0.51202  0.03587  1.0000
  C   C3        1.0  0.55646  0.43442  0.79420  1.0000
  C   C4        1.0  0.44354  0.56558  0.20580  1.0000
  C   C5        1.0  0.79585  0.43812  0.74837  1.0000
  C   C6        1.0  0.20415  0.56188  0.25163  1.0000
  C   C7        1.0  0.69064  0.86627  0.76624  1.0000
  C   C8        1.0  0.30936  0.13373  0.23376  1.0000
  C   C9        1.0  0.97445  0.72890  0.90127  1.0000
  C   C10       1.0  0.02555  0.27110  0.09873  1.0000
  C   C11       1.0  0.92880  0.92338  0.85874  1.0000
  C   C12       1.0  0.07120  0.07662  0.14126  1.0000
  C   C13       1.0  0.02741  0.85333  0.91040  1.0000
  C   C14       1.0  0.97259  0.14667  0.08960  1.0000
  C   C15       1.0  0.62254  0.63718  0.54095  1.0000
  C   C16       1.0  0.37746  0.36282  0.45905  1.0000
  C   C17       1.0  0.62159  0.84307  0.54552  1.0000
  C   C18       1.0  0.37841  0.15693  0.45448  1.0000
  C   C19       1.0  0.59954  0.74147  0.47055  1.0000
  C   C20       1.0  0.40046  0.25853  0.52945  1.0000
  C   C21       1.0  0.49372  0.69655  0.94067  1.0000
  C   C22       1.0  0.50628  0.30345  0.05933  1.0000
  C   C23       1.0  0.51167  0.89454  0.88912  1.0000
  C   C24       1.0  0.48833  0.10546  0.11088  1.0000
  C   C25       1.0  0.44384  0.81272  0.95251  1.0000
  C   C26       1.0  0.55616  0.18728  0.04749  1.0000
  C   C27       1.0  0.95200  0.29743  0.40613  1.0000
  C   C28       1.0  0.04800  0.70257  0.59387  1.0000
  C   C29       1.0  0.88242  0.41039  0.35929  1.0000
  C   C30       1.0  0.11758  0.58962  0.64071  1.0000
  C   C31       1.0  0.74276  0.35286  0.32092  1.0000
  C   C32       1.0  0.25724  0.64714  0.67908  1.0000
  C   C33       1.0  0.72717  0.25219  0.41105  1.0000
  C   C34       1.0  0.27283  0.74781  0.58895  1.0000
  C   C35       1.0  0.15176  0.25689  0.78125  1.0000
  C   C36       1.0  0.84824  0.74311  0.21875  1.0000
  C   C37       1.0  0.22227  0.15662  0.85170  1.0000
  C   C38       1.0  0.77773  0.84338  0.14831  1.0000
  C   C39       1.0  0.23965  0.06175  0.75766  1.0000
  C   C40       1.0  0.76035  0.93825  0.24234  1.0000
  C   C41       1.0  0.12461  0.07699  0.65970  1.0000
  C   C42       1.0  0.87539  0.92301  0.34030  1.0000
  S   S1        1.0  0.68334  0.04282  0.74012  1.0000
  S   S2        1.0  0.31666  0.95718  0.25988  1.0000
  N   N1        1.0  0.85091  0.72180  0.84712  1.0000
  N   N2        1.0  0.14909  0.27820  0.15288  1.0000
  N   N3        1.0  0.82279  0.84188  0.82082  1.0000
  N   N4        1.0  0.17722  0.15812  0.17918  1.0000
  N   N5        1.0  0.65571  0.67114  0.65293  1.0000
  N   N6        1.0  0.34429  0.32886  0.34707  1.0000
  N   N7        1.0  0.65602  0.79863  0.65523  1.0000
  N   N8        1.0  0.34398  0.20137  0.34477  1.0000
  N   N9        1.0  0.58657  0.70530  0.87446  1.0000
  N   N10       1.0  0.41343  0.29470  0.12554  1.0000
  N   N11       1.0  0.59785  0.82766  0.84276  1.0000
  N   N12       1.0  0.40215  0.17234  0.15724  1.0000
  O   O1        1.0  0.79676  0.44768  0.05701  1.0000
  O   O2        1.0  0.20324  0.55232  0.94299  1.0000
  O   O3        1.0  0.46657  0.35881  0.78737  1.0000
  O   O4        1.0  0.53343  0.64119  0.21263  1.0000
  O   O5        1.0  0.84916  0.35958  0.70554  1.0000
  O   O6        1.0  0.15084  0.64042  0.29446  1.0000
  O   O7        1.0  0.72248  0.09700  0.85563  1.0000
  O   O8        1.0  0.27753  0.90299  0.14437  1.0000
  O   O9        1.0  0.77886  0.06587  0.66235  1.0000
  O   O10       1.0  0.22114  0.93413  0.33765  1.0000
  O   O11       1.0  0.54943  0.05316  0.68622  1.0000
  O   O12       1.0  0.45057  0.94684  0.31378  1.0000
  O   O13       1.0  0.85886  0.22517  0.46397  1.0000
  O   O14       1.0  0.14115  0.77483  0.53603  1.0000
  O   O15       1.0  0.06545  0.18898  0.68767  1.0000
  O   O16       1.0  0.93455  0.81102  0.31233  1.0000
