data_image0
_chemical_formula_structural       CuH8C8Cl4O8
_chemical_formula_sum              "Cu1 H8 C8 Cl4 O8"
_cell_length_a       7.10423
_cell_length_b       8.44819
_cell_length_c       8.39885
_cell_angle_alpha    61.2037
_cell_angle_beta     92.9788
_cell_angle_gamma    80.4777

_space_group_name_H-M_alt    "P 1"
_space_group_IT_number       1

loop_
  _space_group_symop_operation_xyz
  'x, y, z'

loop_
  _atom_site_type_symbol
  _atom_site_label
  _atom_site_symmetry_multiplicity
  _atom_site_fract_x
  _atom_site_fract_y
  _atom_site_fract_z
  _atom_site_occupancy
  Cu  Cu1       1.0  0.00000  0.99999  0.00001  1.0000
  H   H1        1.0  0.31085  0.79422  0.14278  1.0000
  H   H2        1.0  0.68916  0.20578  0.85723  1.0000
  H   H3        1.0  0.21506  0.81903  0.30141  1.0000
  H   H4        1.0  0.78494  0.18101  0.69858  1.0000
  H   H5        1.0  0.31950  0.19869  0.02375  1.0000
  H   H6        1.0  0.68051  0.80130  0.97625  1.0000
  H   H7        1.0  0.13920  0.25836  0.09960  1.0000
  H   H8        1.0  0.86078  0.74170  0.90033  1.0000
  C   C1        1.0  0.31559  0.92651  0.82370  1.0000
  C   C2        1.0  0.68440  0.07348  0.17633  1.0000
  C   C3        1.0  0.40267  0.96676  0.65107  1.0000
  C   C4        1.0  0.59731  0.03324  0.34893  1.0000
  C   C5        1.0  0.42866  0.14541  0.53259  1.0000
  C   C6        1.0  0.57132  0.85460  0.46740  1.0000
  C   C7        1.0  0.52821  0.17767  0.38298  1.0000
  C   C8        1.0  0.47178  0.82233  0.61701  1.0000
  Cl  Cl1       1.0  0.33954  0.32321  0.57146  1.0000
  Cl  Cl2       1.0  0.66045  0.67679  0.42855  1.0000
  Cl  Cl3       1.0  0.56933  0.39389  0.24192  1.0000
  Cl  Cl4       1.0  0.43067  0.60610  0.75810  1.0000
  O   O1        1.0  0.13386  0.98222  0.80406  1.0000
  O   O2        1.0  0.86614  0.01777  0.19596  1.0000
  O   O3        1.0  0.43215  0.84263  0.97281  1.0000
  O   O4        1.0  0.56788  0.15737  0.02720  1.0000
  O   O5        1.0  0.19177  0.78866  0.20503  1.0000
  O   O6        1.0  0.80825  0.21134  0.79498  1.0000
  O   O7        1.0  0.17657  0.21833  0.01286  1.0000
  O   O8        1.0  0.82345  0.78164  0.98715  1.0000
