data_image0
_chemical_formula_structural       Cu2H24C26S4N6O14
_chemical_formula_sum              "Cu2 H24 C26 S4 N6 O14"
_cell_length_a       6.82972
_cell_length_b       11.1231
_cell_length_c       11.494
_cell_angle_alpha    109.288
_cell_angle_beta     98.874
_cell_angle_gamma    99.626

_space_group_name_H-M_alt    "P 1"
_space_group_IT_number       1

loop_
  _space_group_symop_operation_xyz
  'x, y, z'

loop_
  _atom_site_type_symbol
  _atom_site_label
  _atom_site_symmetry_multiplicity
  _atom_site_fract_x
  _atom_site_fract_y
  _atom_site_fract_z
  _atom_site_occupancy
  Cu  Cu1       1.0  0.26392  0.80077  0.15582  1.0000
  Cu  Cu2       1.0  0.73665  0.19930  0.84422  1.0000
  H   H1        1.0  0.19109  0.69834  0.61766  1.0000
  H   H2        1.0  0.80886  0.30168  0.38229  1.0000
  H   H3        1.0  0.82148  0.83276  0.43096  1.0000
  H   H4        1.0  0.17879  0.16716  0.56904  1.0000
  H   H5        1.0  0.94067  0.94830  0.37116  1.0000
  H   H6        1.0  0.05949  0.05171  0.62892  1.0000
  H   H7        1.0  0.26485  0.36093  0.13465  1.0000
  H   H8        1.0  0.73520  0.63928  0.86557  1.0000
  H   H9        1.0  0.18141  0.50852  0.69452  1.0000
  H   H10       1.0  0.81853  0.49154  0.30547  1.0000
  H   H11       1.0  0.22602  0.92367  0.77821  1.0000
  H   H12       1.0  0.77427  0.07636  0.22164  1.0000
  H   H13       1.0  0.32035  0.47048  0.37088  1.0000
  H   H14       1.0  0.67958  0.52937  0.62929  1.0000
  H   H15       1.0  0.21124  0.55110  0.92339  1.0000
  H   H16       1.0  0.78896  0.44910  0.07666  1.0000
  H   H17       1.0  0.36717  0.34538  0.51130  1.0000
  H   H18       1.0  0.63279  0.65443  0.48882  1.0000
  H   H19       1.0  0.35604  0.10571  0.42450  1.0000
  H   H20       1.0  0.64334  0.89397  0.57541  1.0000
  H   H21       1.0  0.40606  0.61878  0.17656  1.0000
  H   H22       1.0  0.59380  0.38102  0.82334  1.0000
  H   H23       1.0  0.19381  0.61781  0.22149  1.0000
  H   H24       1.0  0.80613  0.38219  0.77840  1.0000
  C   C1        1.0  0.20030  0.71269  0.71697  1.0000
  C   C2        1.0  0.79973  0.28737  0.28299  1.0000
  C   C3        1.0  0.91099  0.84552  0.36282  1.0000
  C   C4        1.0  0.08924  0.15447  0.63717  1.0000
  C   C5        1.0  0.28198  0.30722  0.19817  1.0000
  C   C6        1.0  0.71886  0.69288  0.80191  1.0000
  C   C7        1.0  0.27022  0.17212  0.14819  1.0000
  C   C8        1.0  0.73130  0.82816  0.85180  1.0000
  C   C9        1.0  0.24599  0.97459  0.03132  1.0000
  C   C10       1.0  0.75295  0.02549  0.96844  1.0000
  C   C11       1.0  0.19663  0.60816  0.75851  1.0000
  C   C12       1.0  0.80373  0.39195  0.24152  1.0000
  C   C13       1.0  0.21805  0.83756  0.80420  1.0000
  C   C14       1.0  0.78169  0.16248  0.19568  1.0000
  C   C15       1.0  0.31384  0.36612  0.32847  1.0000
  C   C16       1.0  0.68656  0.63379  0.67166  1.0000
  C   C17       1.0  0.29085  0.09779  0.23047  1.0000
  C   C18       1.0  0.70945  0.90219  0.76944  1.0000
  C   C19       1.0  0.23006  0.85292  0.93093  1.0000
  C   C20       1.0  0.76917  0.14710  0.06893  1.0000
  C   C21       1.0  0.21254  0.63024  0.88733  1.0000
  C   C22       1.0  0.78784  0.36991  0.11267  1.0000
  C   C23       1.0  0.33817  0.29341  0.40921  1.0000
  C   C24       1.0  0.66204  0.70641  0.59092  1.0000
  C   C25       1.0  0.32858  0.16006  0.36282  1.0000
  C   C26       1.0  0.67122  0.83983  0.63724  1.0000
  S   S1        1.0  0.75629  0.74872  0.20626  1.0000
  S   S2        1.0  0.24373  0.25136  0.79378  1.0000
  S   S3        1.0  0.15067  0.80868  0.40637  1.0000
  S   S4        1.0  0.84960  0.19128  0.59368  1.0000
  N   N1        1.0  0.24262  0.09148  0.02471  1.0000
  N   N2        1.0  0.75796  0.90870  0.97516  1.0000
  N   N3        1.0  0.22964  0.75017  0.97040  1.0000
  N   N4        1.0  0.76991  0.24989  0.02952  1.0000
  N   N5        1.0  0.27231  0.97191  0.15216  1.0000
  N   N6        1.0  0.72461  0.02789  0.84775  1.0000
  O   O1        1.0  0.62417  0.83303  0.18343  1.0000
  O   O2        1.0  0.37588  0.16718  0.81672  1.0000
  O   O3        1.0  0.12067  0.66564  0.36447  1.0000
  O   O4        1.0  0.87936  0.33428  0.63545  1.0000
  O   O5        1.0  0.64075  0.62894  0.21760  1.0000
  O   O6        1.0  0.35922  0.37119  0.78246  1.0000
  O   O7        1.0  0.29221  0.86585  0.33914  1.0000
  O   O8        1.0  0.70837  0.13408  0.66116  1.0000
  O   O9        1.0  0.89521  0.71944  0.12161  1.0000
  O   O10       1.0  0.10455  0.28057  0.87829  1.0000
  O   O11       1.0  0.25738  0.62115  0.14960  1.0000
  O   O12       1.0  0.74258  0.37865  0.85027  1.0000
  O   O13       1.0  0.21958  0.87981  0.54147  1.0000
  O   O14       1.0  0.78024  0.11999  0.45862  1.0000
