data_image0
_chemical_formula_structural       Ca2H36C28N8O20
_chemical_formula_sum              "Ca2 H36 C28 N8 O20"
_cell_length_a       9.01809
_cell_length_b       9.01809
_cell_length_c       11.2207
_cell_angle_alpha    96.5463
_cell_angle_beta     96.5462
_cell_angle_gamma    94.9065

_space_group_name_H-M_alt    "P 1"
_space_group_IT_number       1

loop_
  _space_group_symop_operation_xyz
  'x, y, z'

loop_
  _atom_site_type_symbol
  _atom_site_label
  _atom_site_symmetry_multiplicity
  _atom_site_fract_x
  _atom_site_fract_y
  _atom_site_fract_z
  _atom_site_occupancy
  Ca  Ca1       1.0  0.08195  0.91805  0.75000  1.0000
  Ca  Ca2       1.0  0.91805  0.08195  0.25000  1.0000
  H   H1        1.0  0.17987  0.29279  0.68871  1.0000
  H   H2        1.0  0.70721  0.82013  0.81129  1.0000
  H   H3        1.0  0.82013  0.70721  0.31129  1.0000
  H   H4        1.0  0.29279  0.17987  0.18871  1.0000
  H   H5        1.0  0.82045  0.44328  0.91539  1.0000
  H   H6        1.0  0.55672  0.17955  0.58462  1.0000
  H   H7        1.0  0.17955  0.55672  0.08461  1.0000
  H   H8        1.0  0.44328  0.82045  0.41539  1.0000
  H   H9        1.0  0.96449  0.86466  0.49070  1.0000
  H   H10       1.0  0.13534  0.03551  0.00930  1.0000
  H   H11       1.0  0.03551  0.13534  0.50930  1.0000
  H   H12       1.0  0.86466  0.96449  0.99070  1.0000
  H   H13       1.0  0.13369  0.83632  0.48364  1.0000
  H   H14       1.0  0.16368  0.86632  0.01636  1.0000
  H   H15       1.0  0.86631  0.16368  0.51636  1.0000
  H   H16       1.0  0.83632  0.13369  0.98364  1.0000
  H   H17       1.0  0.39495  0.51159  0.63127  1.0000
  H   H18       1.0  0.48841  0.60505  0.86873  1.0000
  H   H19       1.0  0.60505  0.48841  0.36873  1.0000
  H   H20       1.0  0.51159  0.39495  0.13127  1.0000
  H   H21       1.0  0.31485  0.67841  0.60141  1.0000
  H   H22       1.0  0.32159  0.68515  0.89859  1.0000
  H   H23       1.0  0.68515  0.32159  0.39859  1.0000
  H   H24       1.0  0.67841  0.31486  0.10141  1.0000
  H   H25       1.0  0.21218  0.36390  0.46224  1.0000
  H   H26       1.0  0.63610  0.78782  0.03776  1.0000
  H   H27       1.0  0.78782  0.63609  0.53776  1.0000
  H   H28       1.0  0.36390  0.21218  0.96224  1.0000
  H   H29       1.0  0.32227  0.51097  0.41017  1.0000
  H   H30       1.0  0.48903  0.67773  0.08983  1.0000
  H   H31       1.0  0.67773  0.48903  0.58983  1.0000
  H   H32       1.0  0.51097  0.32227  0.91017  1.0000
  H   H33       1.0  0.13362  0.53301  0.43443  1.0000
  H   H34       1.0  0.46699  0.86638  0.06557  1.0000
  H   H35       1.0  0.86638  0.46699  0.56557  1.0000
  H   H36       1.0  0.53301  0.13362  0.93443  1.0000
  C   C1        1.0  0.97177  0.27813  0.85082  1.0000
  C   C2        1.0  0.72187  0.02823  0.64918  1.0000
  C   C3        1.0  0.02823  0.72187  0.14918  1.0000
  C   C4        1.0  0.27813  0.97177  0.35082  1.0000
  C   C5        1.0  0.03132  0.40622  0.79344  1.0000
  C   C6        1.0  0.59377  0.96868  0.70656  1.0000
  C   C7        1.0  0.96868  0.59378  0.20656  1.0000
  C   C8        1.0  0.40622  0.03132  0.29344  1.0000
  C   C9        1.0  0.00483  0.55691  0.80248  1.0000
  C   C10       1.0  0.44309  0.99517  0.69752  1.0000
  C   C11       1.0  0.99517  0.44309  0.19752  1.0000
  C   C12       1.0  0.55691  0.00483  0.30248  1.0000
  C   C13       1.0  0.89261  0.63559  0.86193  1.0000
  C   C14       1.0  0.36441  0.10739  0.63807  1.0000
  C   C15       1.0  0.10739  0.36441  0.13807  1.0000
  C   C16       1.0  0.63559  0.89261  0.36193  1.0000
  C   C17       1.0  0.17770  0.53096  0.68378  1.0000
  C   C18       1.0  0.46904  0.82230  0.81622  1.0000
  C   C19       1.0  0.82230  0.46904  0.31622  1.0000
  C   C20       1.0  0.53096  0.17770  0.18378  1.0000
  C   C21       1.0  0.29021  0.55692  0.59875  1.0000
  C   C22       1.0  0.44308  0.70979  0.90125  1.0000
  C   C23       1.0  0.70979  0.44308  0.40125  1.0000
  C   C24       1.0  0.55692  0.29021  0.09875  1.0000
  C   C25       1.0  0.23589  0.48604  0.46856  1.0000
  C   C26       1.0  0.51396  0.76411  0.03143  1.0000
  C   C27       1.0  0.76411  0.51396  0.53143  1.0000
  C   C28       1.0  0.48604  0.23589  0.96857  1.0000
  N   N1        1.0  0.14042  0.39385  0.71848  1.0000
  N   N2        1.0  0.60615  0.85958  0.78152  1.0000
  N   N3        1.0  0.85958  0.60615  0.28152  1.0000
  N   N4        1.0  0.39385  0.14042  0.21848  1.0000
  N   N5        1.0  0.09760  0.63280  0.73539  1.0000
  N   N6        1.0  0.36720  0.90241  0.76461  1.0000
  N   N7        1.0  0.90240  0.36720  0.26461  1.0000
  N   N8        1.0  0.63280  0.09760  0.23539  1.0000
  O   O1        1.0  0.03303  0.15869  0.84037  1.0000
  O   O2        1.0  0.84131  0.96697  0.65963  1.0000
  O   O3        1.0  0.96697  0.84131  0.15963  1.0000
  O   O4        1.0  0.15869  0.03303  0.34038  1.0000
  O   O5        1.0  0.85985  0.29820  0.91167  1.0000
  O   O6        1.0  0.70180  0.14014  0.58833  1.0000
  O   O7        1.0  0.14015  0.70180  0.08832  1.0000
  O   O8        1.0  0.29820  0.85985  0.41168  1.0000
  O   O9        1.0  0.79718  0.56017  0.91782  1.0000
  O   O10       1.0  0.43983  0.20282  0.58218  1.0000
  O   O11       1.0  0.20282  0.43983  0.08218  1.0000
  O   O12       1.0  0.56017  0.79718  0.41782  1.0000
  O   O13       1.0  0.88607  0.77305  0.85469  1.0000
  O   O14       1.0  0.22695  0.11393  0.64531  1.0000
  O   O15       1.0  0.11393  0.22695  0.14531  1.0000
  O   O16       1.0  0.77305  0.88607  0.35469  1.0000
  O   O17       1.0  0.04981  0.82403  0.53279  1.0000
  O   O18       1.0  0.17597  0.95019  0.96721  1.0000
  O   O19       1.0  0.95019  0.17597  0.46721  1.0000
  O   O20       1.0  0.82403  0.04981  0.03279  1.0000
