data_image0
_chemical_formula_structural       FeMo4H24C36N12O13
_chemical_formula_sum              "Fe1 Mo4 H24 C36 N12 O13"
_cell_length_a       8.12201
_cell_length_b       8.64876
_cell_length_c       13.6664
_cell_angle_alpha    80.8563
_cell_angle_beta     84.5447
_cell_angle_gamma    82.3822

_space_group_name_H-M_alt    "P 1"
_space_group_IT_number       1

loop_
  _space_group_symop_operation_xyz
  'x, y, z'

loop_
  _atom_site_type_symbol
  _atom_site_label
  _atom_site_symmetry_multiplicity
  _atom_site_fract_x
  _atom_site_fract_y
  _atom_site_fract_z
  _atom_site_occupancy
  Fe  Fe1       1.0  0.50000  0.00000  1.00000  1.0000
  Mo  Mo1       1.0  0.14505  0.31628  0.92404  1.0000
  Mo  Mo2       1.0  0.85495  0.68372  0.07596  1.0000
  Mo  Mo3       1.0  0.31037  0.63009  0.04613  1.0000
  Mo  Mo4       1.0  0.68963  0.36991  0.95387  1.0000
  H   H1        1.0  0.58273  0.39190  0.20293  1.0000
  H   H2        1.0  0.41727  0.60810  0.79707  1.0000
  H   H3        1.0  0.62093  0.22707  0.37086  1.0000
  H   H4        1.0  0.37907  0.77293  0.62914  1.0000
  H   H5        1.0  0.99669  0.92180  0.22579  1.0000
  H   H6        1.0  0.00331  0.07820  0.77421  1.0000
  H   H7        1.0  0.93670  0.09091  0.06516  1.0000
  H   H8        1.0  0.06330  0.90909  0.93484  1.0000
  H   H9        1.0  0.66498  0.73707  0.90646  1.0000
  H   H10       1.0  0.33501  0.26293  0.09354  1.0000
  H   H11       1.0  0.80968  0.69222  0.74393  1.0000
  H   H12       1.0  0.19031  0.30778  0.25607  1.0000
  H   H13       1.0  0.58597  0.15360  0.62041  1.0000
  H   H14       1.0  0.41403  0.84641  0.37958  1.0000
  H   H15       1.0  0.46805  0.19086  0.79347  1.0000
  H   H16       1.0  0.53195  0.80914  0.20653  1.0000
  H   H17       1.0  0.12584  0.54671  0.64756  1.0000
  H   H18       1.0  0.87416  0.45329  0.35244  1.0000
  H   H19       1.0  0.34667  0.32306  0.63853  1.0000
  H   H20       1.0  0.65333  0.67695  0.36148  1.0000
  H   H21       1.0  0.41631  0.43127  0.33171  1.0000
  H   H22       1.0  0.58369  0.56873  0.66829  1.0000
  H   H23       1.0  0.19445  0.65626  0.32771  1.0000
  H   H24       1.0  0.80556  0.34374  0.67229  1.0000
  C   C1        1.0  0.67267  0.28620  0.21132  1.0000
  C   C2        1.0  0.32733  0.71380  0.78868  1.0000
  C   C3        1.0  0.69427  0.19542  0.30425  1.0000
  C   C4        1.0  0.30573  0.80458  0.69575  1.0000
  C   C5        1.0  0.81294  0.06171  0.31080  1.0000
  C   C6        1.0  0.18707  0.93828  0.68920  1.0000
  C   C7        1.0  0.90369  0.02488  0.22354  1.0000
  C   C8        1.0  0.09632  0.97512  0.77646  1.0000
  C   C9        1.0  0.87151  0.11989  0.13428  1.0000
  C   C10       1.0  0.12850  0.88011  0.86572  1.0000
  C   C11       1.0  0.65525  0.82891  0.84264  1.0000
  C   C12       1.0  0.34475  0.17109  0.15736  1.0000
  C   C13       1.0  0.73389  0.80372  0.75133  1.0000
  C   C14       1.0  0.26611  0.19629  0.24867  1.0000
  C   C15       1.0  0.71245  0.92173  0.66926  1.0000
  C   C16       1.0  0.28755  0.07828  0.33074  1.0000
  C   C17       1.0  0.60949  0.06109  0.68331  1.0000
  C   C18       1.0  0.39051  0.93892  0.31668  1.0000
  C   C19       1.0  0.54221  0.08132  0.77869  1.0000
  C   C20       1.0  0.45779  0.91868  0.22131  1.0000
  C   C21       1.0  0.80088  0.89566  0.57267  1.0000
  C   C22       1.0  0.19913  0.10434  0.42733  1.0000
  C   C23       1.0  0.84695  0.95945  0.40612  1.0000
  C   C24       1.0  0.15306  0.04054  0.59388  1.0000
  C   C25       1.0  0.00606  0.75225  0.48875  1.0000
  C   C26       1.0  0.99395  0.24775  0.51125  1.0000
  C   C27       1.0  0.14280  0.62164  0.48795  1.0000
  C   C28       1.0  0.85720  0.37836  0.51205  1.0000
  C   C29       1.0  0.18821  0.52596  0.57604  1.0000
  C   C30       1.0  0.81180  0.47404  0.42396  1.0000
  C   C31       1.0  0.31295  0.39983  0.57027  1.0000
  C   C32       1.0  0.68705  0.60017  0.42973  1.0000
  C   C33       1.0  0.35071  0.45922  0.40118  1.0000
  C   C34       1.0  0.64930  0.54078  0.59882  1.0000
  C   C35       1.0  0.22674  0.58698  0.39834  1.0000
  C   C36       1.0  0.77326  0.41302  0.60166  1.0000
  N   N1        1.0  0.75866  0.24940  0.12708  1.0000
  N   N2        1.0  0.24134  0.75060  0.87292  1.0000
  N   N3        1.0  0.56607  0.96729  0.85805  1.0000
  N   N4        1.0  0.43393  0.03272  0.14195  1.0000
  N   N5        1.0  0.75701  0.99227  0.48971  1.0000
  N   N6        1.0  0.24299  0.00773  0.51029  1.0000
  N   N7        1.0  0.97060  0.84066  0.40162  1.0000
  N   N8        1.0  0.02940  0.15934  0.59838  1.0000
  N   N9        1.0  0.92506  0.77591  0.57625  1.0000
  N   N10       1.0  0.07494  0.22409  0.42375  1.0000
  N   N11       1.0  0.39425  0.36471  0.48489  1.0000
  N   N12       1.0  0.60575  0.63529  0.51511  1.0000
  O   O1        1.0  0.26477  0.13429  0.95920  1.0000
  O   O2        1.0  0.73523  0.86572  0.04080  1.0000
  O   O3        1.0  0.92693  0.27587  0.93387  1.0000
  O   O4        1.0  0.07307  0.72413  0.06613  1.0000
  O   O5        1.0  0.20696  0.38648  0.80311  1.0000
  O   O6        1.0  0.79304  0.61352  0.19689  1.0000
  O   O7        1.0  0.18480  0.45187  0.00431  1.0000
  O   O8        1.0  0.81519  0.54813  0.99569  1.0000
  O   O9        1.0  0.50000  0.50000  0.00000  1.0000
  O   O10       1.0  0.40189  0.80862  0.03079  1.0000
  O   O11       1.0  0.59811  0.19138  0.96920  1.0000
  O   O12       1.0  0.32033  0.56026  0.17020  1.0000
  O   O13       1.0  0.67967  0.43975  0.82980  1.0000
