data_image0
_chemical_formula_structural       CoMo4H24C36N12O13
_chemical_formula_sum              "Co1 Mo4 H24 C36 N12 O13"
_cell_length_a       8.08676
_cell_length_b       8.6337
_cell_length_c       13.5773
_cell_angle_alpha    80.8707
_cell_angle_beta     83.596
_cell_angle_gamma    82.3335

_space_group_name_H-M_alt    "P 1"
_space_group_IT_number       1

loop_
  _space_group_symop_operation_xyz
  'x, y, z'

loop_
  _atom_site_type_symbol
  _atom_site_label
  _atom_site_symmetry_multiplicity
  _atom_site_fract_x
  _atom_site_fract_y
  _atom_site_fract_z
  _atom_site_occupancy
  Co  Co1       1.0  1.00000  1.00000  0.50000  1.0000
  Mo  Mo1       1.0  0.35067  0.68359  0.57584  1.0000
  Mo  Mo2       1.0  0.64933  0.31641  0.42416  1.0000
  Mo  Mo3       1.0  0.80931  0.63091  0.54809  1.0000
  Mo  Mo4       1.0  0.19069  0.36909  0.45191  1.0000
  H   H1        1.0  0.15730  0.73577  0.40858  1.0000
  H   H2        1.0  0.84270  0.26423  0.59142  1.0000
  H   H3        1.0  0.30226  0.69022  0.24377  1.0000
  H   H4        1.0  0.69775  0.30978  0.75622  1.0000
  H   H5        1.0  0.08641  0.15537  0.12198  1.0000
  H   H6        1.0  0.91359  0.84463  0.87802  1.0000
  H   H7        1.0  0.96731  0.19301  0.29699  1.0000
  H   H8        1.0  0.03268  0.80699  0.70301  1.0000
  H   H9        1.0  0.62132  0.54401  0.14825  1.0000
  H   H10       1.0  0.37868  0.45600  0.85175  1.0000
  H   H11       1.0  0.84456  0.32078  0.14029  1.0000
  H   H12       1.0  0.15544  0.67923  0.85971  1.0000
  H   H13       1.0  0.92760  0.42789  0.83114  1.0000
  H   H14       1.0  0.07240  0.57211  0.16886  1.0000
  H   H15       1.0  0.70376  0.65219  0.82592  1.0000
  H   H16       1.0  0.29625  0.34781  0.17408  1.0000
  H   H17       1.0  0.09178  0.39295  0.70230  1.0000
  H   H18       1.0  0.90822  0.60705  0.29770  1.0000
  H   H19       1.0  0.13202  0.22887  0.87125  1.0000
  H   H20       1.0  0.86798  0.77113  0.12875  1.0000
  H   H21       1.0  0.49911  0.91584  0.71974  1.0000
  H   H22       1.0  0.50089  0.08415  0.28026  1.0000
  H   H23       1.0  0.43684  0.08485  0.55877  1.0000
  H   H24       1.0  0.56316  0.91515  0.44123  1.0000
  C   C1        1.0  0.14918  0.82836  0.34480  1.0000
  C   C2        1.0  0.85082  0.17164  0.65519  1.0000
  C   C3        1.0  0.22811  0.80277  0.25205  1.0000
  C   C4        1.0  0.77190  0.19723  0.74795  1.0000
  C   C5        1.0  0.20969  0.92160  0.16981  1.0000
  C   C6        1.0  0.79031  0.07841  0.83019  1.0000
  C   C7        1.0  0.10812  0.06202  0.18494  1.0000
  C   C8        1.0  0.89189  0.93798  0.81506  1.0000
  C   C9        1.0  0.04029  0.08266  0.28166  1.0000
  C   C10       1.0  0.95970  0.91733  0.71834  1.0000
  C   C11       1.0  0.30076  0.89501  0.07207  1.0000
  C   C12       1.0  0.69924  0.10500  0.92793  1.0000
  C   C13       1.0  0.50810  0.74965  0.98740  1.0000
  C   C14       1.0  0.49190  0.25035  0.01260  1.0000
  C   C15       1.0  0.35233  0.95805  0.90409  1.0000
  C   C16       1.0  0.64767  0.04195  0.09591  1.0000
  C   C17       1.0  0.64513  0.61846  0.98722  1.0000
  C   C18       1.0  0.35487  0.38155  0.01278  1.0000
  C   C19       1.0  0.68706  0.52303  0.07635  1.0000
  C   C20       1.0  0.31294  0.47698  0.92366  1.0000
  C   C21       1.0  0.81332  0.39701  0.07119  1.0000
  C   C22       1.0  0.18668  0.60299  0.92881  1.0000
  C   C23       1.0  0.85844  0.45582  0.90086  1.0000
  C   C24       1.0  0.14156  0.54419  0.09914  1.0000
  C   C25       1.0  0.73354  0.58349  0.89734  1.0000
  C   C26       1.0  0.26647  0.41651  0.10266  1.0000
  C   C27       1.0  0.18003  0.28570  0.70971  1.0000
  C   C28       1.0  0.81997  0.71429  0.29029  1.0000
  C   C29       1.0  0.20292  0.19554  0.80305  1.0000
  C   C30       1.0  0.79708  0.80446  0.19695  1.0000
  C   C31       1.0  0.31966  0.05988  0.80807  1.0000
  C   C32       1.0  0.68034  0.94012  0.19193  1.0000
  C   C33       1.0  0.40779  0.02065  0.71895  1.0000
  C   C34       1.0  0.59221  0.97935  0.28105  1.0000
  C   C35       1.0  0.37436  0.11538  0.62941  1.0000
  C   C36       1.0  0.62564  0.88462  0.37059  1.0000
  N   N1        1.0  0.06258  0.96801  0.36110  1.0000
  N   N2        1.0  0.93742  0.03199  0.63891  1.0000
  N   N3        1.0  0.26048  0.99228  0.98853  1.0000
  N   N4        1.0  0.73952  0.00772  0.01147  1.0000
  N   N5        1.0  0.42388  0.77369  0.07550  1.0000
  N   N6        1.0  0.57612  0.22632  0.92450  1.0000
  N   N7        1.0  0.47581  0.83827  0.89948  1.0000
  N   N8        1.0  0.52419  0.16173  0.10052  1.0000
  N   N9        1.0  0.89883  0.36159  0.98544  1.0000
  N   N10       1.0  0.10118  0.63841  0.01456  1.0000
  N   N11       1.0  0.26301  0.24651  0.62375  1.0000
  N   N12       1.0  0.73699  0.75349  0.37625  1.0000
  O   O1        1.0  0.23411  0.86537  0.53877  1.0000
  O   O2        1.0  0.76589  0.13462  0.46123  1.0000
  O   O3        1.0  0.31502  0.54797  0.49367  1.0000
  O   O4        1.0  0.68498  0.45202  0.50633  1.0000
  O   O5        1.0  0.27693  0.61616  0.69686  1.0000
  O   O6        1.0  0.72307  0.38384  0.30314  1.0000
  O   O7        1.0  0.82010  0.56106  0.67274  1.0000
  O   O8        1.0  0.17989  0.43894  0.32726  1.0000
  O   O9        1.0  1.00000  0.50000  0.50000  1.0000
  O   O10       1.0  0.90160  0.80950  0.53180  1.0000
  O   O11       1.0  0.09840  0.19050  0.46820  1.0000
  O   O12       1.0  0.57078  0.72200  0.57115  1.0000
  O   O13       1.0  0.42921  0.27800  0.42885  1.0000
