data_image0
_chemical_formula_structural       ZnMo4H24C36N12O13
_chemical_formula_sum              "Zn1 Mo4 H24 C36 N12 O13"
_cell_length_a       8.10193
_cell_length_b       8.92216
_cell_length_c       13.6676
_cell_angle_alpha    80.053
_cell_angle_beta     84.4448
_cell_angle_gamma    80.6909

_space_group_name_H-M_alt    "P 1"
_space_group_IT_number       1

loop_
  _space_group_symop_operation_xyz
  'x, y, z'

loop_
  _atom_site_type_symbol
  _atom_site_label
  _atom_site_symmetry_multiplicity
  _atom_site_fract_x
  _atom_site_fract_y
  _atom_site_fract_z
  _atom_site_occupancy
  Zn  Zn1       1.0  0.50000  0.00000  0.50000  1.0000
  Mo  Mo1       1.0  0.15368  0.31826  0.42371  1.0000
  Mo  Mo2       1.0  0.84632  0.68174  0.57629  1.0000
  Mo  Mo3       1.0  0.30714  0.62085  0.55179  1.0000
  Mo  Mo4       1.0  0.69286  0.37915  0.44821  1.0000
  H   H1        1.0  0.34261  0.25993  0.60059  1.0000
  H   H2        1.0  0.65739  0.74006  0.39941  1.0000
  H   H3        1.0  0.19310  0.30689  0.76226  1.0000
  H   H4        1.0  0.80690  0.69311  0.23774  1.0000
  H   H5        1.0  0.40646  0.84775  0.88903  1.0000
  H   H6        1.0  0.59354  0.15225  0.11097  1.0000
  H   H7        1.0  0.53027  0.81119  0.71640  1.0000
  H   H8        1.0  0.46973  0.18881  0.28360  1.0000
  H   H9        1.0  0.00509  0.08454  0.28400  1.0000
  H   H10       1.0  0.99491  0.91546  0.71600  1.0000
  H   H11       1.0  0.06952  0.91265  0.44417  1.0000
  H   H12       1.0  0.93048  0.08736  0.55583  1.0000
  H   H13       1.0  0.40275  0.60425  0.30090  1.0000
  H   H14       1.0  0.59725  0.39575  0.69910  1.0000
  H   H15       1.0  0.35927  0.76977  0.13347  1.0000
  H   H16       1.0  0.64073  0.23023  0.86653  1.0000
  H   H17       1.0  0.79396  0.34883  0.17527  1.0000
  H   H18       1.0  0.20604  0.65116  0.82473  1.0000
  H   H19       1.0  0.57188  0.57466  0.16770  1.0000
  H   H20       1.0  0.42812  0.42534  0.83230  1.0000
  H   H21       1.0  0.65312  0.68182  0.86082  1.0000
  H   H22       1.0  0.34688  0.31818  0.13918  1.0000
  H   H23       1.0  0.87518  0.45809  0.85538  1.0000
  H   H24       1.0  0.12482  0.54191  0.14462  1.0000
  C   C1        1.0  0.34957  0.16953  0.66497  1.0000
  C   C2        1.0  0.65043  0.83047  0.33503  1.0000
  C   C3        1.0  0.26789  0.19602  0.75562  1.0000
  C   C4        1.0  0.73211  0.80398  0.24438  1.0000
  C   C5        1.0  0.28514  0.07895  0.83797  1.0000
  C   C6        1.0  0.71486  0.92105  0.16203  1.0000
  C   C7        1.0  0.38661  0.93967  0.82556  1.0000
  C   C8        1.0  0.61339  0.06033  0.17444  1.0000
  C   C9        1.0  0.45719  0.92004  0.73057  1.0000
  C   C10       1.0  0.54281  0.07996  0.26943  1.0000
  C   C11       1.0  0.19334  0.10568  0.93400  1.0000
  C   C12       1.0  0.80666  0.89431  0.06600  1.0000
  C   C13       1.0  0.14314  0.04188  0.10063  1.0000
  C   C14       1.0  0.85686  0.95812  0.89937  1.0000
  C   C15       1.0  0.98805  0.25142  0.01646  1.0000
  C   C16       1.0  0.01195  0.74858  0.98354  1.0000
  C   C17       1.0  0.17757  0.93960  0.19625  1.0000
  C   C18       1.0  0.82243  0.06040  0.80375  1.0000
  C   C19       1.0  0.09413  0.97905  0.28491  1.0000
  C   C20       1.0  0.90587  0.02096  0.71509  1.0000
  C   C21       1.0  0.12887  0.88294  0.37386  1.0000
  C   C22       1.0  0.87113  0.11706  0.62614  1.0000
  C   C23       1.0  0.31631  0.71194  0.29389  1.0000
  C   C24       1.0  0.68369  0.28807  0.70611  1.0000
  C   C25       1.0  0.29167  0.80314  0.20122  1.0000
  C   C26       1.0  0.70833  0.19686  0.79878  1.0000
  C   C27       1.0  0.76451  0.41846  0.10391  1.0000
  C   C28       1.0  0.23550  0.58154  0.89609  1.0000
  C   C29       1.0  0.64017  0.54643  0.09907  1.0000
  C   C30       1.0  0.35983  0.45356  0.90093  1.0000
  C   C31       1.0  0.68465  0.60538  0.92988  1.0000
  C   C32       1.0  0.31535  0.39462  0.07012  1.0000
  C   C33       1.0  0.81016  0.47934  0.92617  1.0000
  C   C34       1.0  0.18984  0.52066  0.07383  1.0000
  C   C35       1.0  0.85210  0.38352  0.01540  1.0000
  C   C36       1.0  0.14790  0.61648  0.98460  1.0000
  N   N1        1.0  0.43809  0.03280  0.65102  1.0000
  N   N2        1.0  0.56191  0.96720  0.34898  1.0000
  N   N3        1.0  0.23344  0.00757  0.01734  1.0000
  N   N4        1.0  0.76656  0.99242  0.98266  1.0000
  N   N5        1.0  0.07116  0.22746  0.92944  1.0000
  N   N6        1.0  0.92884  0.77254  0.07056  1.0000
  N   N7        1.0  0.02092  0.16235  0.10424  1.0000
  N   N8        1.0  0.97907  0.83765  0.89576  1.0000
  N   N9        1.0  0.23711  0.75062  0.37928  1.0000
  N   N10       1.0  0.76289  0.24938  0.62072  1.0000
  N   N11       1.0  0.59967  0.64061  0.01429  1.0000
  N   N12       1.0  0.40033  0.35938  0.98572  1.0000
  O   O1        1.0  0.26786  0.13655  0.46296  1.0000
  O   O2        1.0  0.73214  0.86345  0.53704  1.0000
  O   O3        1.0  0.93231  0.29066  0.42840  1.0000
  O   O4        1.0  0.06770  0.70934  0.57160  1.0000
  O   O5        1.0  0.22355  0.38288  0.30321  1.0000
  O   O6        1.0  0.77645  0.61712  0.69679  1.0000
  O   O7        1.0  0.18836  0.44928  0.50312  1.0000
  O   O8        1.0  0.81164  0.55073  0.49688  1.0000
  O   O9        1.0  0.50000  0.50000  0.50000  1.0000
  O   O10       1.0  0.31981  0.54012  0.67445  1.0000
  O   O11       1.0  0.68019  0.45988  0.32555  1.0000
  O   O12       1.0  0.39138  0.79118  0.54279  1.0000
  O   O13       1.0  0.60862  0.20882  0.45721  1.0000
