data_image0
_chemical_formula_structural       Zn2H28C48Br4N4O4
_chemical_formula_sum              "Zn2 H28 C48 Br4 N4 O4"
_cell_length_a       7.92247
_cell_length_b       9.83271
_cell_length_c       13.6951
_cell_angle_alpha    104.514
_cell_angle_beta     90
_cell_angle_gamma    90

_space_group_name_H-M_alt    "P 1"
_space_group_IT_number       1

loop_
  _space_group_symop_operation_xyz
  'x, y, z'

loop_
  _atom_site_type_symbol
  _atom_site_label
  _atom_site_symmetry_multiplicity
  _atom_site_fract_x
  _atom_site_fract_y
  _atom_site_fract_z
  _atom_site_occupancy
  Zn  Zn1       1.0  0.55005  0.25000  0.25000  1.0000
  Zn  Zn2       1.0  0.44995  0.75000  0.75000  1.0000
  H   H1        1.0  0.80373  0.46114  0.23853  1.0000
  H   H2        1.0  0.80373  0.03886  0.26147  1.0000
  H   H3        1.0  0.19627  0.53886  0.76147  1.0000
  H   H4        1.0  0.19627  0.96115  0.73853  1.0000
  H   H5        1.0  0.05860  0.48515  0.13682  1.0000
  H   H6        1.0  0.05860  0.01485  0.36318  1.0000
  H   H7        1.0  0.94140  0.51485  0.86318  1.0000
  H   H8        1.0  0.94140  0.98516  0.63682  1.0000
  H   H9        1.0  0.91847  0.08997  0.93139  1.0000
  H   H10       1.0  0.91847  0.41003  0.56861  1.0000
  H   H11       1.0  0.08153  0.91003  0.06861  1.0000
  H   H12       1.0  0.08153  0.58997  0.43139  1.0000
  H   H13       1.0  0.67277  0.08071  0.04272  1.0000
  H   H14       1.0  0.67277  0.41929  0.45728  1.0000
  H   H15       1.0  0.32723  0.91929  0.95728  1.0000
  H   H16       1.0  0.32723  0.58071  0.54272  1.0000
  H   H17       1.0  0.31869  0.36828  0.10097  1.0000
  H   H18       1.0  0.31869  0.13173  0.39903  1.0000
  H   H19       1.0  0.68131  0.63172  0.89903  1.0000
  H   H20       1.0  0.68131  0.86828  0.60097  1.0000
  H   H21       1.0  0.58453  0.36839  0.00296  1.0000
  H   H22       1.0  0.58453  0.13161  0.49704  1.0000
  H   H23       1.0  0.41547  0.63160  0.99705  1.0000
  H   H24       1.0  0.41547  0.86839  0.50296  1.0000
  H   H25       1.0  0.04288  0.23167  0.82229  1.0000
  H   H26       1.0  0.04288  0.26833  0.67771  1.0000
  H   H27       1.0  0.95712  0.76833  0.17771  1.0000
  H   H28       1.0  0.95711  0.73167  0.32229  1.0000
  C   C1        1.0  0.83576  0.38074  0.17034  1.0000
  C   C2        1.0  0.83576  0.11926  0.32966  1.0000
  C   C3        1.0  0.16424  0.61926  0.82966  1.0000
  C   C4        1.0  0.16424  0.88074  0.67034  1.0000
  C   C5        1.0  0.97725  0.39320  0.11377  1.0000
  C   C6        1.0  0.97725  0.10680  0.38623  1.0000
  C   C7        1.0  0.02275  0.60680  0.88623  1.0000
  C   C8        1.0  0.02275  0.89321  0.61377  1.0000
  C   C9        1.0  0.01223  0.28749  0.02602  1.0000
  C   C10       1.0  0.01223  0.21251  0.47398  1.0000
  C   C11       1.0  0.98777  0.71251  0.97398  1.0000
  C   C12       1.0  0.98777  0.78750  0.52602  1.0000
  C   C13       1.0  0.89939  0.17432  0.99919  1.0000
  C   C14       1.0  0.89939  0.32569  0.50081  1.0000
  C   C15       1.0  0.10061  0.82568  0.00081  1.0000
  C   C16       1.0  0.10061  0.67432  0.49919  1.0000
  C   C17       1.0  0.76178  0.16815  0.06074  1.0000
  C   C18       1.0  0.76178  0.33185  0.43926  1.0000
  C   C19       1.0  0.23822  0.83185  0.93926  1.0000
  C   C20       1.0  0.23822  0.66815  0.56074  1.0000
  C   C21       1.0  0.16565  0.29548  0.96681  1.0000
  C   C22       1.0  0.16565  0.20452  0.53319  1.0000
  C   C23       1.0  0.83435  0.70452  0.03319  1.0000
  C   C24       1.0  0.83435  0.79548  0.46681  1.0000
  C   C25       1.0  0.31698  0.33931  0.01870  1.0000
  C   C26       1.0  0.31698  0.16069  0.48130  1.0000
  C   C27       1.0  0.68302  0.66069  0.98130  1.0000
  C   C28       1.0  0.68302  0.83931  0.51870  1.0000
  C   C29       1.0  0.46468  0.33994  0.96468  1.0000
  C   C30       1.0  0.46468  0.16006  0.53532  1.0000
  C   C31       1.0  0.53532  0.66005  0.03532  1.0000
  C   C32       1.0  0.53532  0.83995  0.46468  1.0000
  C   C33       1.0  0.46431  0.30090  0.85914  1.0000
  C   C34       1.0  0.46431  0.19910  0.64086  1.0000
  C   C35       1.0  0.53569  0.69910  0.14087  1.0000
  C   C36       1.0  0.53569  0.80090  0.35914  1.0000
  C   C37       1.0  0.31096  0.26543  0.80552  1.0000
  C   C38       1.0  0.31096  0.23457  0.69448  1.0000
  C   C39       1.0  0.68904  0.73457  0.19448  1.0000
  C   C40       1.0  0.68904  0.76543  0.30552  1.0000
  C   C41       1.0  0.16329  0.25985  0.86081  1.0000
  C   C42       1.0  0.16329  0.24015  0.63919  1.0000
  C   C43       1.0  0.83671  0.74015  0.13919  1.0000
  C   C44       1.0  0.83671  0.75985  0.36081  1.0000
  C   C45       1.0  0.62756  0.28826  0.80631  1.0000
  C   C46       1.0  0.62756  0.21174  0.69368  1.0000
  C   C47       1.0  0.37244  0.71174  0.19368  1.0000
  C   C48       1.0  0.37244  0.78826  0.30631  1.0000
  Br  Br1       1.0  0.39245  0.45625  0.31707  1.0000
  Br  Br2       1.0  0.39246  0.04374  0.18294  1.0000
  Br  Br3       1.0  0.60755  0.54375  0.68293  1.0000
  Br  Br4       1.0  0.60754  0.95626  0.81706  1.0000
  N   N1        1.0  0.73046  0.26959  0.14533  1.0000
  N   N2        1.0  0.73046  0.23041  0.35467  1.0000
  N   N3        1.0  0.26954  0.73041  0.85467  1.0000
  N   N4        1.0  0.26954  0.76959  0.64533  1.0000
  O   O1        1.0  0.76201  0.32983  0.84870  1.0000
  O   O2        1.0  0.76201  0.17017  0.65130  1.0000
  O   O3        1.0  0.23799  0.67017  0.15130  1.0000
  O   O4        1.0  0.23799  0.82983  0.34870  1.0000
