data_image0
_chemical_formula_structural       Zn4H56C44S8O32
_chemical_formula_sum              "Zn4 H56 C44 S8 O32"
_cell_length_a       7.79687
_cell_length_b       11.9731
_cell_length_c       16.378
_cell_angle_alpha    90
_cell_angle_beta     90
_cell_angle_gamma    90

_space_group_name_H-M_alt    "P 1"
_space_group_IT_number       1

loop_
  _space_group_symop_operation_xyz
  'x, y, z'

loop_
  _atom_site_type_symbol
  _atom_site_label
  _atom_site_symmetry_multiplicity
  _atom_site_fract_x
  _atom_site_fract_y
  _atom_site_fract_z
  _atom_site_occupancy
  Zn  Zn1       1.0  0.62187  0.25000  0.75000  1.0000
  Zn  Zn2       1.0  0.87813  0.25000  0.25000  1.0000
  Zn  Zn3       1.0  0.37813  0.75000  0.25000  1.0000
  Zn  Zn4       1.0  0.12187  0.75000  0.75000  1.0000
  H   H1        1.0  0.39280  0.53337  0.61498  1.0000
  H   H2        1.0  0.10720  0.53337  0.38502  1.0000
  H   H3        1.0  0.39280  0.96663  0.88502  1.0000
  H   H4        1.0  0.10721  0.96663  0.11498  1.0000
  H   H5        1.0  0.60720  0.46663  0.38502  1.0000
  H   H6        1.0  0.89280  0.46663  0.61498  1.0000
  H   H7        1.0  0.60720  0.03337  0.11498  1.0000
  H   H8        1.0  0.89280  0.03337  0.88502  1.0000
  H   H9        1.0  0.04243  0.99235  0.70453  1.0000
  H   H10       1.0  0.45757  0.99235  0.29547  1.0000
  H   H11       1.0  0.04243  0.50765  0.79547  1.0000
  H   H12       1.0  0.45757  0.50765  0.20453  1.0000
  H   H13       1.0  0.95757  0.00765  0.29547  1.0000
  H   H14       1.0  0.54243  0.00765  0.70453  1.0000
  H   H15       1.0  0.95757  0.49235  0.20453  1.0000
  H   H16       1.0  0.54243  0.49235  0.79547  1.0000
  H   H17       1.0  0.08388  0.09707  0.78113  1.0000
  H   H18       1.0  0.41612  0.09707  0.21887  1.0000
  H   H19       1.0  0.08388  0.40293  0.71887  1.0000
  H   H20       1.0  0.41612  0.40293  0.28113  1.0000
  H   H21       1.0  0.91612  0.90293  0.21887  1.0000
  H   H22       1.0  0.58388  0.90293  0.78113  1.0000
  H   H23       1.0  0.91612  0.59707  0.28113  1.0000
  H   H24       1.0  0.58388  0.59707  0.71887  1.0000
  H   H25       1.0  0.22500  0.08506  0.69498  1.0000
  H   H26       1.0  0.27500  0.08507  0.30502  1.0000
  H   H27       1.0  0.22500  0.41494  0.80502  1.0000
  H   H28       1.0  0.27500  0.41493  0.19498  1.0000
  H   H29       1.0  0.77500  0.91493  0.30502  1.0000
  H   H30       1.0  0.72500  0.91493  0.69498  1.0000
  H   H31       1.0  0.77500  0.58506  0.19498  1.0000
  H   H32       1.0  0.72500  0.58507  0.80502  1.0000
  H   H33       1.0  0.93608  0.02960  0.56596  1.0000
  H   H34       1.0  0.56392  0.02960  0.43404  1.0000
  H   H35       1.0  0.93608  0.47040  0.93404  1.0000
  H   H36       1.0  0.56392  0.47040  0.06596  1.0000
  H   H37       1.0  0.06392  0.97040  0.43404  1.0000
  H   H38       1.0  0.43608  0.97040  0.56596  1.0000
  H   H39       1.0  0.06392  0.52960  0.06596  1.0000
  H   H40       1.0  0.43609  0.52960  0.93404  1.0000
  H   H41       1.0  0.11390  0.12295  0.54307  1.0000
  H   H42       1.0  0.38610  0.12295  0.45693  1.0000
  H   H43       1.0  0.11390  0.37705  0.95693  1.0000
  H   H44       1.0  0.38610  0.37705  0.04307  1.0000
  H   H45       1.0  0.88610  0.87705  0.45693  1.0000
  H   H46       1.0  0.61390  0.87705  0.54307  1.0000
  H   H47       1.0  0.88610  0.62295  0.04307  1.0000
  H   H48       1.0  0.61390  0.62295  0.95693  1.0000
  H   H49       1.0  0.89882  0.16772  0.52248  1.0000
  H   H50       1.0  0.60118  0.16772  0.47752  1.0000
  H   H51       1.0  0.89882  0.33228  0.97752  1.0000
  H   H52       1.0  0.60118  0.33228  0.02248  1.0000
  H   H53       1.0  0.10118  0.83228  0.47752  1.0000
  H   H54       1.0  0.39882  0.83228  0.52248  1.0000
  H   H55       1.0  0.10118  0.66772  0.02248  1.0000
  H   H56       1.0  0.39882  0.66772  0.97752  1.0000
  C   C1        1.0  0.32808  0.37911  0.56116  1.0000
  C   C2        1.0  0.17192  0.37911  0.43884  1.0000
  C   C3        1.0  0.32808  0.12089  0.93884  1.0000
  C   C4        1.0  0.17192  0.12089  0.06116  1.0000
  C   C5        1.0  0.67192  0.62089  0.43884  1.0000
  C   C6        1.0  0.82808  0.62089  0.56116  1.0000
  C   C7        1.0  0.67192  0.87911  0.06116  1.0000
  C   C8        1.0  0.82808  0.87911  0.93884  1.0000
  C   C9        1.0  0.32953  0.49248  0.56392  1.0000
  C   C10       1.0  0.17047  0.49248  0.43608  1.0000
  C   C11       1.0  0.32953  0.00752  0.93608  1.0000
  C   C12       1.0  0.17047  0.00752  0.06392  1.0000
  C   C13       1.0  0.67047  0.50752  0.43608  1.0000
  C   C14       1.0  0.82953  0.50752  0.56392  1.0000
  C   C15       1.0  0.67047  0.99248  0.06392  1.0000
  C   C16       1.0  0.82953  0.99248  0.93608  1.0000
  C   C17       1.0  0.25000  0.55909  0.50000  1.0000
  C   C18       1.0  0.25000  0.94091  0.00000  1.0000
  C   C19       1.0  0.75000  0.44091  0.50000  1.0000
  C   C20       1.0  0.75000  0.05909  1.00000  1.0000
  C   C21       1.0  0.09248  0.07618  0.71617  1.0000
  C   C22       1.0  0.40752  0.07618  0.28383  1.0000
  C   C23       1.0  0.09248  0.42382  0.78383  1.0000
  C   C24       1.0  0.40752  0.42382  0.21617  1.0000
  C   C25       1.0  0.90752  0.92382  0.28383  1.0000
  C   C26       1.0  0.59248  0.92382  0.71617  1.0000
  C   C27       1.0  0.90753  0.57618  0.21617  1.0000
  C   C28       1.0  0.59248  0.57618  0.78383  1.0000
  C   C29       1.0  0.97962  0.11657  0.56239  1.0000
  C   C30       1.0  0.52038  0.11657  0.43761  1.0000
  C   C31       1.0  0.97962  0.38343  0.93761  1.0000
  C   C32       1.0  0.52038  0.38343  0.06239  1.0000
  C   C33       1.0  0.02038  0.88343  0.43761  1.0000
  C   C34       1.0  0.47962  0.88343  0.56239  1.0000
  C   C35       1.0  0.02038  0.61657  0.06239  1.0000
  C   C36       1.0  0.47962  0.61657  0.93761  1.0000
  C   C37       1.0  0.41022  0.30243  0.62303  1.0000
  C   C38       1.0  0.08978  0.30242  0.37697  1.0000
  C   C39       1.0  0.41022  0.19757  0.87697  1.0000
  C   C40       1.0  0.08978  0.19757  0.12303  1.0000
  C   C41       1.0  0.58978  0.69758  0.37697  1.0000
  C   C42       1.0  0.91022  0.69758  0.62303  1.0000
  C   C43       1.0  0.58978  0.80243  0.12303  1.0000
  C   C44       1.0  0.91022  0.80243  0.87697  1.0000
  S   S1        1.0  0.96473  0.17552  0.66216  1.0000
  S   S2        1.0  0.53527  0.17552  0.33784  1.0000
  S   S3        1.0  0.96473  0.32448  0.83784  1.0000
  S   S4        1.0  0.53527  0.32448  0.16216  1.0000
  S   S5        1.0  0.03527  0.82448  0.33784  1.0000
  S   S6        1.0  0.46473  0.82448  0.66216  1.0000
  S   S7        1.0  0.03527  0.67552  0.16216  1.0000
  S   S8        1.0  0.46473  0.67552  0.83784  1.0000
  O   O1        1.0  0.25000  0.32152  0.50000  1.0000
  O   O2        1.0  0.25000  0.17847  1.00000  1.0000
  O   O3        1.0  0.75000  0.67848  0.50000  1.0000
  O   O4        1.0  0.75000  0.82153  1.00000  1.0000
  O   O5        1.0  0.25000  0.66367  0.50000  1.0000
  O   O6        1.0  0.25000  0.83633  0.00000  1.0000
  O   O7        1.0  0.75000  0.33633  0.50000  1.0000
  O   O8        1.0  0.75000  0.16367  1.00000  1.0000
  O   O9        1.0  0.77947  0.14858  0.68882  1.0000
  O   O10       1.0  0.72053  0.14858  0.31118  1.0000
  O   O11       1.0  0.77947  0.35142  0.81118  1.0000
  O   O12       1.0  0.72053  0.35142  0.18882  1.0000
  O   O13       1.0  0.22053  0.85142  0.31118  1.0000
  O   O14       1.0  0.27947  0.85142  0.68882  1.0000
  O   O15       1.0  0.22053  0.64858  0.18882  1.0000
  O   O16       1.0  0.27947  0.64858  0.81118  1.0000
  O   O17       1.0  0.50315  0.35404  0.67638  1.0000
  O   O18       1.0  0.99685  0.35403  0.32362  1.0000
  O   O19       1.0  0.50315  0.14596  0.82362  1.0000
  O   O20       1.0  0.99685  0.14596  0.17638  1.0000
  O   O21       1.0  0.49685  0.64596  0.32362  1.0000
  O   O22       1.0  0.00314  0.64596  0.67638  1.0000
  O   O23       1.0  0.49685  0.85404  0.17638  1.0000
  O   O24       1.0  0.00315  0.85404  0.82362  1.0000
  O   O25       1.0  0.38415  0.19987  0.61914  1.0000
  O   O26       1.0  0.11585  0.19986  0.38086  1.0000
  O   O27       1.0  0.38415  0.30013  0.88086  1.0000
  O   O28       1.0  0.11585  0.30013  0.11914  1.0000
  O   O29       1.0  0.61585  0.80014  0.38086  1.0000
  O   O30       1.0  0.88415  0.80014  0.61914  1.0000
  O   O31       1.0  0.61585  0.69987  0.11914  1.0000
  O   O32       1.0  0.88415  0.69987  0.88086  1.0000
