data_image0
_chemical_formula_structural       Cd2H40C20N4O10
_chemical_formula_sum              "Cd2 H40 C20 N4 O10"
_cell_length_a       8.92125
_cell_length_b       9.8074
_cell_length_c       9.80862
_cell_angle_alpha    117.495
_cell_angle_beta     96.0858
_cell_angle_gamma    96.0914

_space_group_name_H-M_alt    "P 1"
_space_group_IT_number       1

loop_
  _space_group_symop_operation_xyz
  'x, y, z'

loop_
  _atom_site_type_symbol
  _atom_site_label
  _atom_site_symmetry_multiplicity
  _atom_site_fract_x
  _atom_site_fract_y
  _atom_site_fract_z
  _atom_site_occupancy
  Cd  Cd1       1.0  0.61702  0.73223  0.22968  1.0000
  Cd  Cd2       1.0  0.11704  0.22970  0.73223  1.0000
  H   H1        1.0  0.85468  0.03446  0.37586  1.0000
  H   H2        1.0  0.35465  0.37585  0.03445  1.0000
  H   H3        1.0  0.85267  0.95280  0.48079  1.0000
  H   H4        1.0  0.35268  0.48082  0.95282  1.0000
  H   H5        1.0  0.60520  0.09849  0.47404  1.0000
  H   H6        1.0  0.10518  0.47405  0.09846  1.0000
  H   H7        1.0  0.47970  0.03486  0.29605  1.0000
  H   H8        1.0  0.97970  0.29601  0.03485  1.0000
  H   H9        1.0  0.29005  0.16840  0.42704  1.0000
  H   H10       1.0  0.79002  0.42699  0.16835  1.0000
  H   H11       1.0  0.42889  0.26145  0.59949  1.0000
  H   H12       1.0  0.92886  0.59947  0.26140  1.0000
  H   H13       1.0  0.44903  0.78738  0.54479  1.0000
  H   H14       1.0  0.94903  0.54480  0.78741  1.0000
  H   H15       1.0  0.60701  0.93927  0.60259  1.0000
  H   H16       1.0  0.10702  0.60261  0.93927  1.0000
  H   H17       1.0  0.46482  0.13138  0.75463  1.0000
  H   H18       1.0  0.96484  0.75465  0.13137  1.0000
  H   H19       1.0  0.32395  0.97582  0.72666  1.0000
  H   H20       1.0  0.82397  0.72669  0.97584  1.0000
  H   H21       1.0  0.12949  0.85615  0.49466  1.0000
  H   H22       1.0  0.62951  0.49467  0.85617  1.0000
  H   H23       1.0  0.10029  0.95150  0.38159  1.0000
  H   H24       1.0  0.60027  0.38156  0.95148  1.0000
  H   H25       1.0  0.27000  0.81701  0.21691  1.0000
  H   H26       1.0  0.76999  0.21686  0.81700  1.0000
  H   H27       1.0  0.27404  0.69978  0.31009  1.0000
  H   H28       1.0  0.77406  0.31008  0.69981  1.0000
  H   H29       1.0  0.69612  0.38656  0.43823  1.0000
  H   H30       1.0  0.19614  0.43823  0.38656  1.0000
  H   H31       1.0  0.49529  0.31306  0.36566  1.0000
  H   H32       1.0  0.99530  0.36567  0.31308  1.0000
  H   H33       1.0  0.56067  0.48445  0.55003  1.0000
  H   H34       1.0  0.06071  0.55006  0.48446  1.0000
  H   H35       1.0  0.32129  0.65280  0.75573  1.0000
  H   H36       1.0  0.82128  0.75570  0.65281  1.0000
  H   H37       1.0  0.46524  0.81321  0.78507  1.0000
  H   H38       1.0  0.96522  0.78504  0.81319  1.0000
  H   H39       1.0  0.30526  0.84978  0.88216  1.0000
  H   H40       1.0  0.80525  0.88214  0.84977  1.0000
  C   C1        1.0  0.48642  0.04751  0.41385  1.0000
  C   C2        1.0  0.98641  0.41383  0.04749  1.0000
  C   C3        1.0  0.37156  0.14719  0.50400  1.0000
  C   C4        1.0  0.87154  0.50398  0.14716  1.0000
  C   C5        1.0  0.48339  0.90416  0.55786  1.0000
  C   C6        1.0  0.98339  0.55787  0.90418  1.0000
  C   C7        1.0  0.39077  0.02281  0.66553  1.0000
  C   C8        1.0  0.89078  0.66555  0.02281  1.0000
  C   C9        1.0  0.18852  0.91932  0.44231  1.0000
  C   C10       1.0  0.68852  0.44229  0.91932  1.0000
  C   C11       1.0  0.29137  0.82096  0.33098  1.0000
  C   C12       1.0  0.79137  0.33095  0.82097  1.0000
  C   C13       1.0  0.57941  0.52109  0.35264  1.0000
  C   C14       1.0  0.07942  0.35264  0.52109  1.0000
  C   C15       1.0  0.58233  0.41851  0.43017  1.0000
  C   C16       1.0  0.08235  0.43019  0.41852  1.0000
  C   C17       1.0  0.47550  0.76472  0.97708  1.0000
  C   C18       1.0  0.97550  0.97707  0.76470  1.0000
  C   C19       1.0  0.38684  0.76879  0.83975  1.0000
  C   C20       1.0  0.88683  0.83973  0.76878  1.0000
  N   N1        1.0  0.45499  0.88937  0.39935  1.0000
  N   N2        1.0  0.95499  0.39934  0.88938  1.0000
  N   N3        1.0  0.28217  0.06504  0.57178  1.0000
  N   N4        1.0  0.78217  0.57177  0.06502  1.0000
  O   O1        1.0  0.68485  0.64138  0.40842  1.0000
  O   O2        1.0  0.18482  0.40842  0.64135  1.0000
  O   O3        1.0  0.82529  0.93256  0.37091  1.0000
  O   O4        1.0  0.32529  0.37092  0.93256  1.0000
  O   O5        1.0  0.47466  0.48642  0.23729  1.0000
  O   O6        1.0  0.97465  0.23726  0.48640  1.0000
  O   O7        1.0  0.41572  0.66862  0.02118  1.0000
  O   O8        1.0  0.91575  0.02116  0.66860  1.0000
  O   O9        1.0  0.60201  0.85469  0.04853  1.0000
  O   O10       1.0  0.10200  0.04855  0.85469  1.0000
