data_image0
_chemical_formula_structural       Zn2H40C48N8O8
_chemical_formula_sum              "Zn2 H40 C48 N8 O8"
_cell_length_a       9.8627
_cell_length_b       10.522
_cell_length_c       12.9069
_cell_angle_alpha    76.5599
_cell_angle_beta     67.2805
_cell_angle_gamma    62.0356

_space_group_name_H-M_alt    "P 1"
_space_group_IT_number       1

loop_
  _space_group_symop_operation_xyz
  'x, y, z'

loop_
  _atom_site_type_symbol
  _atom_site_label
  _atom_site_symmetry_multiplicity
  _atom_site_fract_x
  _atom_site_fract_y
  _atom_site_fract_z
  _atom_site_occupancy
  Zn  Zn1       1.0  0.74017  0.74897  0.24958  1.0000
  Zn  Zn2       1.0  0.25983  0.25104  0.75042  1.0000
  H   H1        1.0  0.51606  0.89481  0.11729  1.0000
  H   H2        1.0  0.47262  0.39613  0.61722  1.0000
  H   H3        1.0  0.48394  0.10520  0.88271  1.0000
  H   H4        1.0  0.52738  0.60386  0.38278  1.0000
  H   H5        1.0  0.46009  0.84925  0.96408  1.0000
  H   H6        1.0  0.72803  0.34966  0.46288  1.0000
  H   H7        1.0  0.53991  0.15075  0.03592  1.0000
  H   H8        1.0  0.27197  0.65033  0.53713  1.0000
  H   H9        1.0  0.44181  0.81641  0.82748  1.0000
  H   H10       1.0  0.91565  0.31638  0.32619  1.0000
  H   H11       1.0  0.55819  0.18359  0.17252  1.0000
  H   H12       1.0  0.08435  0.68362  0.67381  1.0000
  H   H13       1.0  0.40852  0.76064  0.66849  1.0000
  H   H14       1.0  0.16446  0.26026  0.16665  1.0000
  H   H15       1.0  0.59148  0.23937  0.33151  1.0000
  H   H16       1.0  0.83554  0.73974  0.83335  1.0000
  H   H17       1.0  0.73826  0.33554  0.68289  1.0000
  H   H18       1.0  0.24465  0.83513  0.18221  1.0000
  H   H19       1.0  0.26174  0.66447  0.31710  1.0000
  H   H20       1.0  0.75535  0.16486  0.81779  1.0000
  H   H21       1.0  0.79039  0.36912  0.84512  1.0000
  H   H22       1.0  0.99546  0.86923  0.34489  1.0000
  H   H23       1.0  0.20961  0.63088  0.15488  1.0000
  H   H24       1.0  0.00454  0.13076  0.65511  1.0000
  H   H25       1.0  0.83299  0.41132  0.97188  1.0000
  H   H26       1.0  0.78216  0.91255  0.47179  1.0000
  H   H27       1.0  0.16701  0.58868  0.02812  1.0000
  H   H28       1.0  0.21784  0.08745  0.52821  1.0000
  H   H29       1.0  0.86935  0.47708  0.12850  1.0000
  H   H30       1.0  0.52254  0.97930  0.62936  1.0000
  H   H31       1.0  0.13065  0.52292  0.87150  1.0000
  H   H32       1.0  0.47746  0.02070  0.37064  1.0000
  H   H33       1.0  0.82345  0.09980  0.00486  1.0000
  H   H34       1.0  0.07244  0.59944  0.50461  1.0000
  H   H35       1.0  0.17655  0.90020  0.99515  1.0000
  H   H36       1.0  0.92757  0.40057  0.49539  1.0000
  H   H37       1.0  0.91263  0.09824  0.09917  1.0000
  H   H38       1.0  0.88948  0.59834  0.59921  1.0000
  H   H39       1.0  0.08737  0.90177  0.90083  1.0000
  H   H40       1.0  0.11052  0.40166  0.40079  1.0000
  C   C1        1.0  0.58344  0.78865  0.08324  1.0000
  C   C2        1.0  0.54480  0.28997  0.58311  1.0000
  C   C3        1.0  0.41656  0.21135  0.91676  1.0000
  C   C4        1.0  0.45520  0.71002  0.41689  1.0000
  C   C5        1.0  0.55205  0.76131  0.99686  1.0000
  C   C6        1.0  0.69024  0.26217  0.49608  1.0000
  C   C7        1.0  0.44796  0.23869  0.00314  1.0000
  C   C8        1.0  0.30976  0.73783  0.50392  1.0000
  C   C9        1.0  0.64125  0.62486  0.95227  1.0000
  C   C10       1.0  0.78137  0.12563  0.45165  1.0000
  C   C11       1.0  0.35876  0.37515  0.04773  1.0000
  C   C12       1.0  0.21863  0.87436  0.54835  1.0000
  C   C13       1.0  0.61723  0.59595  0.85522  1.0000
  C   C14       1.0  0.93208  0.09615  0.35434  1.0000
  C   C15       1.0  0.38277  0.40406  0.14478  1.0000
  C   C16       1.0  0.06792  0.90384  0.64566  1.0000
  C   C17       1.0  0.51060  0.70595  0.80154  1.0000
  C   C18       1.0  0.98306  0.20591  0.30026  1.0000
  C   C19       1.0  0.48940  0.29405  0.19846  1.0000
  C   C20       1.0  0.01694  0.79408  0.69974  1.0000
  C   C21       1.0  0.49155  0.67531  0.71010  1.0000
  C   C22       1.0  0.12478  0.17500  0.20851  1.0000
  C   C23       1.0  0.50845  0.32470  0.28990  1.0000
  C   C24       1.0  0.87522  0.82499  0.79149  1.0000
  C   C25       1.0  0.67352  0.44066  0.71870  1.0000
  C   C26       1.0  0.16835  0.94040  0.21779  1.0000
  C   C27       1.0  0.32648  0.55935  0.28130  1.0000
  C   C28       1.0  0.83165  0.05960  0.78221  1.0000
  C   C29       1.0  0.70158  0.45956  0.81078  1.0000
  C   C30       1.0  0.02862  0.95958  0.31016  1.0000
  C   C31       1.0  0.29842  0.54044  0.18922  1.0000
  C   C32       1.0  0.97138  0.04042  0.68984  1.0000
  C   C33       1.0  0.75703  0.51972  0.00165  1.0000
  C   C34       1.0  0.72035  0.02093  0.50150  1.0000
  C   C35       1.0  0.24297  0.48029  0.99835  1.0000
  C   C36       1.0  0.27965  0.97907  0.49850  1.0000
  C   C37       1.0  0.77996  0.55539  0.08881  1.0000
  C   C38       1.0  0.57421  0.05714  0.58919  1.0000
  C   C39       1.0  0.22004  0.44462  0.91119  1.0000
  C   C40       1.0  0.42579  0.94285  0.41081  1.0000
  C   C41       1.0  0.86961  0.91300  0.11768  1.0000
  C   C42       1.0  0.09912  0.41274  0.61757  1.0000
  C   C43       1.0  0.13040  0.08700  0.88233  1.0000
  C   C44       1.0  0.90087  0.58726  0.38243  1.0000
  C   C45       1.0  0.91715  0.02940  0.04427  1.0000
  C   C46       1.0  0.00907  0.52925  0.54418  1.0000
  C   C47       1.0  0.08285  0.97060  0.95573  1.0000
  C   C48       1.0  0.99092  0.47076  0.45582  1.0000
  N   N1        1.0  0.69586  0.68782  0.12870  1.0000
  N   N2        1.0  0.48679  0.18957  0.62908  1.0000
  N   N3        1.0  0.30414  0.31218  0.87130  1.0000
  N   N4        1.0  0.51321  0.81042  0.37092  1.0000
  N   N5        1.0  0.57017  0.54491  0.66806  1.0000
  N   N6        1.0  0.21863  0.04453  0.16661  1.0000
  N   N7        1.0  0.42983  0.45509  0.33194  1.0000
  N   N8        1.0  0.78137  0.95547  0.83339  1.0000
  O   O1        1.0  0.72270  0.95285  0.18625  1.0000
  O   O2        1.0  0.13665  0.45305  0.68611  1.0000
  O   O3        1.0  0.27730  0.04715  0.81376  1.0000
  O   O4        1.0  0.86335  0.54695  0.31390  1.0000
  O   O5        1.0  0.96933  0.78177  0.11216  1.0000
  O   O6        1.0  0.13649  0.28153  0.61211  1.0000
  O   O7        1.0  0.03067  0.21824  0.88784  1.0000
  O   O8        1.0  0.86350  0.71847  0.38789  1.0000
