data_image0
_chemical_formula_structural       Cu2H28C40N4O8
_chemical_formula_sum              "Cu2 H28 C40 N4 O8"
_cell_length_a       9.5996
_cell_length_b       9.92692
_cell_length_c       9.92675
_cell_angle_alpha    81.2723
_cell_angle_beta     79.3487
_cell_angle_gamma    79.3488

_space_group_name_H-M_alt    "P 1"
_space_group_IT_number       1

loop_
  _space_group_symop_operation_xyz
  'x, y, z'

loop_
  _atom_site_type_symbol
  _atom_site_label
  _atom_site_symmetry_multiplicity
  _atom_site_fract_x
  _atom_site_fract_y
  _atom_site_fract_z
  _atom_site_occupancy
  Cu  Cu1       1.0  0.25000  0.11247  0.88752  1.0000
  Cu  Cu2       1.0  0.75000  0.88753  0.11247  1.0000
  H   H1        1.0  0.03885  0.29804  0.74214  1.0000
  H   H2        1.0  0.53885  0.74215  0.29804  1.0000
  H   H3        1.0  0.96116  0.70196  0.25785  1.0000
  H   H4        1.0  0.46117  0.25785  0.70196  1.0000
  H   H5        1.0  0.35275  0.96662  0.64066  1.0000
  H   H6        1.0  0.85276  0.64066  0.96662  1.0000
  H   H7        1.0  0.64725  0.03338  0.35934  1.0000
  H   H8        1.0  0.14726  0.35933  0.03338  1.0000
  H   H9        1.0  0.28224  0.97481  0.40775  1.0000
  H   H10       1.0  0.78226  0.40775  0.97482  1.0000
  H   H11       1.0  0.71774  0.02519  0.59225  1.0000
  H   H12       1.0  0.21775  0.59224  0.02519  1.0000
  H   H13       1.0  0.87575  0.42001  0.57786  1.0000
  H   H14       1.0  0.37575  0.57787  0.42001  1.0000
  H   H15       1.0  0.12425  0.57999  0.42214  1.0000
  H   H16       1.0  0.62426  0.42214  0.57998  1.0000
  H   H17       1.0  0.79428  0.43913  0.34972  1.0000
  H   H18       1.0  0.29427  0.34974  0.43913  1.0000
  H   H19       1.0  0.20572  0.56088  0.65027  1.0000
  H   H20       1.0  0.70573  0.65027  0.56087  1.0000
  H   H21       1.0  0.91386  0.27318  0.18213  1.0000
  H   H22       1.0  0.41386  0.18214  0.27319  1.0000
  H   H23       1.0  0.08614  0.72682  0.81787  1.0000
  H   H24       1.0  0.58614  0.81786  0.72681  1.0000
  H   H25       1.0  0.11671  0.09270  0.23660  1.0000
  H   H26       1.0  0.61673  0.23660  0.09271  1.0000
  H   H27       1.0  0.88327  0.90730  0.76340  1.0000
  H   H28       1.0  0.38328  0.76339  0.90730  1.0000
  C   C1        1.0  0.04869  0.92891  0.98741  1.0000
  C   C2        1.0  0.54868  0.98741  0.92890  1.0000
  C   C3        1.0  0.95131  0.07110  0.01259  1.0000
  C   C4        1.0  0.45131  0.01259  0.07110  1.0000
  C   C5        1.0  0.08988  0.22953  0.66459  1.0000
  C   C6        1.0  0.58988  0.66459  0.22954  1.0000
  C   C7        1.0  0.91012  0.77047  0.33541  1.0000
  C   C8        1.0  0.41013  0.33541  0.77047  1.0000
  C   C9        1.0  0.26521  0.04254  0.60609  1.0000
  C   C10       1.0  0.76522  0.60609  0.04255  1.0000
  C   C11       1.0  0.73479  0.95745  0.39391  1.0000
  C   C12       1.0  0.23479  0.39390  0.95745  1.0000
  C   C13       1.0  0.22457  0.04703  0.47949  1.0000
  C   C14       1.0  0.72458  0.47950  0.04704  1.0000
  C   C15       1.0  0.77542  0.95296  0.52050  1.0000
  C   C16       1.0  0.27543  0.52050  0.95297  1.0000
  C   C17       1.0  0.10922  0.14834  0.44079  1.0000
  C   C18       1.0  0.60923  0.44079  0.14835  1.0000
  C   C19       1.0  0.89077  0.85166  0.55922  1.0000
  C   C20       1.0  0.39077  0.55921  0.85166  1.0000
  C   C21       1.0  0.03989  0.24306  0.53735  1.0000
  C   C22       1.0  0.53990  0.53736  0.24307  1.0000
  C   C23       1.0  0.96010  0.75693  0.46265  1.0000
  C   C24       1.0  0.46011  0.46264  0.75693  1.0000
  C   C25       1.0  0.92586  0.34818  0.50331  1.0000
  C   C26       1.0  0.42586  0.50331  0.34818  1.0000
  C   C27       1.0  0.07413  0.65182  0.49669  1.0000
  C   C28       1.0  0.57414  0.49669  0.65182  1.0000
  C   C29       1.0  0.88164  0.35839  0.37720  1.0000
  C   C30       1.0  0.38163  0.37721  0.35839  1.0000
  C   C31       1.0  0.11837  0.64161  0.62280  1.0000
  C   C32       1.0  0.61837  0.62280  0.64161  1.0000
  C   C33       1.0  0.94939  0.26449  0.28164  1.0000
  C   C34       1.0  0.44940  0.28165  0.26449  1.0000
  C   C35       1.0  0.05060  0.73552  0.71836  1.0000
  C   C36       1.0  0.55061  0.71835  0.73551  1.0000
  C   C37       1.0  0.06119  0.16172  0.31209  1.0000
  C   C38       1.0  0.56120  0.31210  0.16173  1.0000
  C   C39       1.0  0.93880  0.83828  0.68791  1.0000
  C   C40       1.0  0.43880  0.68790  0.83828  1.0000
  N   N1        1.0  0.19804  0.13354  0.69747  1.0000
  N   N2        1.0  0.69804  0.69748  0.13354  1.0000
  N   N3        1.0  0.80196  0.86646  0.30252  1.0000
  N   N4        1.0  0.30196  0.30252  0.86646  1.0000
  O   O1        1.0  0.17885  0.93110  0.92957  1.0000
  O   O2        1.0  0.67885  0.92956  0.93109  1.0000
  O   O3        1.0  0.82115  0.06890  0.07042  1.0000
  O   O4        1.0  0.32115  0.07043  0.06891  1.0000
  O   O5        1.0  0.99480  0.82031  0.02385  1.0000
  O   O6        1.0  0.49479  0.02385  0.82030  1.0000
  O   O7        1.0  0.00521  0.17970  0.97614  1.0000
  O   O8        1.0  0.50521  0.97615  0.17970  1.0000
