data_image0
_chemical_formula_structural       Co2H28C40N4O8
_chemical_formula_sum              "Co2 H28 C40 N4 O8"
_cell_length_a       9.14251
_cell_length_b       9.98461
_cell_length_c       9.98331
_cell_angle_alpha    83.0009
_cell_angle_beta     80.6012
_cell_angle_gamma    80.6246

_space_group_name_H-M_alt    "P 1"
_space_group_IT_number       1

loop_
  _space_group_symop_operation_xyz
  'x, y, z'

loop_
  _atom_site_type_symbol
  _atom_site_label
  _atom_site_symmetry_multiplicity
  _atom_site_fract_x
  _atom_site_fract_y
  _atom_site_fract_z
  _atom_site_occupancy
  Co  Co1       1.0  0.25008  0.11008  0.88975  1.0000
  Co  Co2       1.0  0.75003  0.88965  0.11007  1.0000
  H   H1        1.0  0.03652  0.30073  0.75264  1.0000
  H   H2        1.0  0.53628  0.75263  0.30054  1.0000
  H   H3        1.0  0.96442  0.69998  0.24702  1.0000
  H   H4        1.0  0.46434  0.24705  0.69982  1.0000
  H   H5        1.0  0.34512  0.95950  0.66025  1.0000
  H   H6        1.0  0.84551  0.66015  0.95960  1.0000
  H   H7        1.0  0.65544  0.04108  0.33900  1.0000
  H   H8        1.0  0.15595  0.33889  0.04145  1.0000
  H   H9        1.0  0.27897  0.97011  0.42550  1.0000
  H   H10       1.0  0.77966  0.42523  0.97044  1.0000
  H   H11       1.0  0.72084  0.03032  0.57410  1.0000
  H   H12       1.0  0.22141  0.57395  0.03053  1.0000
  H   H13       1.0  0.87793  0.42508  0.58389  1.0000
  H   H14       1.0  0.37754  0.58393  0.42484  1.0000
  H   H15       1.0  0.12310  0.57597  0.41585  1.0000
  H   H16       1.0  0.62298  0.41583  0.57555  1.0000
  H   H17       1.0  0.79652  0.44419  0.35458  1.0000
  H   H18       1.0  0.29608  0.35463  0.44395  1.0000
  H   H19       1.0  0.20311  0.55621  0.64582  1.0000
  H   H20       1.0  0.70303  0.64581  0.55548  1.0000
  H   H21       1.0  0.91552  0.27637  0.18896  1.0000
  H   H22       1.0  0.41558  0.18886  0.27644  1.0000
  H   H23       1.0  0.08279  0.72331  0.81172  1.0000
  H   H24       1.0  0.58293  0.81173  0.72267  1.0000
  H   H25       1.0  0.11731  0.09243  0.24803  1.0000
  H   H26       1.0  0.61787  0.24774  0.09280  1.0000
  H   H27       1.0  0.88117  0.90724  0.75232  1.0000
  H   H28       1.0  0.38159  0.75231  0.90697  1.0000
  C   C1        1.0  0.04739  0.93042  0.98407  1.0000
  C   C2        1.0  0.54740  0.98401  0.93043  1.0000
  C   C3        1.0  0.95245  0.06932  0.01555  1.0000
  C   C4        1.0  0.45245  0.01544  0.06938  1.0000
  C   C5        1.0  0.08764  0.23072  0.67670  1.0000
  C   C6        1.0  0.58757  0.67664  0.23062  1.0000
  C   C7        1.0  0.91299  0.76988  0.32299  1.0000
  C   C8        1.0  0.41305  0.32299  0.76978  1.0000
  C   C9        1.0  0.26016  0.03824  0.62312  1.0000
  C   C10       1.0  0.76047  0.62299  0.03830  1.0000
  C   C11       1.0  0.74014  0.96223  0.37640  1.0000
  C   C12       1.0  0.24051  0.37633  0.96241  1.0000
  C   C13       1.0  0.22188  0.04481  0.49491  1.0000
  C   C14       1.0  0.72237  0.49470  0.04500  1.0000
  C   C15       1.0  0.77805  0.95561  0.50475  1.0000
  C   C16       1.0  0.27849  0.50467  0.95571  1.0000
  C   C17       1.0  0.10897  0.14898  0.45215  1.0000
  C   C18       1.0  0.60927  0.45198  0.14910  1.0000
  C   C19       1.0  0.89074  0.85134  0.54776  1.0000
  C   C20       1.0  0.39104  0.54772  0.85122  1.0000
  C   C21       1.0  0.04026  0.24512  0.54750  1.0000
  C   C22       1.0  0.54027  0.54740  0.24509  1.0000
  C   C23       1.0  0.96005  0.75547  0.45232  1.0000
  C   C24       1.0  0.46018  0.45231  0.75528  1.0000
  C   C25       1.0  0.92762  0.35212  0.51048  1.0000
  C   C26       1.0  0.42741  0.51046  0.35197  1.0000
  C   C27       1.0  0.07276  0.64859  0.48944  1.0000
  C   C28       1.0  0.57276  0.48943  0.64819  1.0000
  C   C29       1.0  0.88374  0.36249  0.38341  1.0000
  C   C30       1.0  0.38350  0.38340  0.36237  1.0000
  C   C31       1.0  0.11592  0.63787  0.61683  1.0000
  C   C32       1.0  0.61594  0.61683  0.63730  1.0000
  C   C33       1.0  0.95115  0.26750  0.28906  1.0000
  C   C34       1.0  0.45121  0.28896  0.26754  1.0000
  C   C35       1.0  0.04775  0.73246  0.71135  1.0000
  C   C36       1.0  0.54789  0.71135  0.73193  1.0000
  C   C37       1.0  0.06224  0.16300  0.32223  1.0000
  C   C38       1.0  0.56259  0.32204  0.16320  1.0000
  C   C39       1.0  0.93675  0.83698  0.67800  1.0000
  C   C40       1.0  0.43706  0.67797  0.83668  1.0000
  N   N1        1.0  0.19348  0.13102  0.71402  1.0000
  N   N2        1.0  0.69354  0.71394  0.13098  1.0000
  N   N3        1.0  0.80695  0.86935  0.28563  1.0000
  N   N4        1.0  0.30712  0.28560  0.86942  1.0000
  O   O1        1.0  0.18194  0.93232  0.92436  1.0000
  O   O2        1.0  0.68190  0.92423  0.93230  1.0000
  O   O3        1.0  0.81783  0.06745  0.07515  1.0000
  O   O4        1.0  0.31787  0.07506  0.06756  1.0000
  O   O5        1.0  0.98692  0.82428  0.01801  1.0000
  O   O6        1.0  0.48700  0.01805  0.82427  1.0000
  O   O7        1.0  0.01290  0.17547  0.98167  1.0000
  O   O8        1.0  0.51287  0.98149  0.17553  1.0000
