data_image0
_chemical_formula_structural       Ag4H60C58N8O8
_chemical_formula_sum              "Ag4 H60 C58 N8 O8"
_cell_length_a       10.0206
_cell_length_b       10.3001
_cell_length_c       15.233
_cell_angle_alpha    76.9717
_cell_angle_beta     72.2289
_cell_angle_gamma    86.7433

_space_group_name_H-M_alt    "P 1"
_space_group_IT_number       1

loop_
  _space_group_symop_operation_xyz
  'x, y, z'

loop_
  _atom_site_type_symbol
  _atom_site_label
  _atom_site_symmetry_multiplicity
  _atom_site_fract_x
  _atom_site_fract_y
  _atom_site_fract_z
  _atom_site_occupancy
  Ag  Ag1       1.0  0.59849  0.90443  0.54302  1.0000
  Ag  Ag2       1.0  0.40151  0.09557  0.45698  1.0000
  Ag  Ag3       1.0  0.55197  0.53429  0.07842  1.0000
  Ag  Ag4       1.0  0.44802  0.46571  0.92158  1.0000
  H   H1        1.0  0.49771  0.61770  0.35271  1.0000
  H   H2        1.0  0.50229  0.38230  0.64729  1.0000
  H   H3        1.0  0.65118  0.53869  0.37492  1.0000
  H   H4        1.0  0.34882  0.46131  0.62508  1.0000
  H   H5        1.0  0.69233  0.65145  0.20295  1.0000
  H   H6        1.0  0.30767  0.34855  0.79705  1.0000
  H   H7        1.0  0.63916  0.80276  0.23429  1.0000
  H   H8        1.0  0.36084  0.19724  0.76571  1.0000
  H   H9        1.0  0.83992  0.80478  0.29944  1.0000
  H   H10       1.0  0.16008  0.19522  0.70056  1.0000
  H   H11       1.0  0.89049  0.64598  0.27933  1.0000
  H   H12       1.0  0.10951  0.35402  0.72067  1.0000
  H   H13       1.0  0.94043  0.73375  0.10454  1.0000
  H   H14       1.0  0.05957  0.26625  0.89546  1.0000
  H   H15       1.0  0.88435  0.89188  0.12280  1.0000
  H   H16       1.0  0.11565  0.10812  0.87720  1.0000
  H   H17       1.0  0.13353  0.74404  0.17637  1.0000
  H   H18       1.0  0.86647  0.25597  0.82363  1.0000
  H   H19       1.0  0.08007  0.90457  0.19369  1.0000
  H   H20       1.0  0.91993  0.09543  0.80631  1.0000
  H   H21       1.0  0.13134  0.98878  0.01845  1.0000
  H   H22       1.0  0.86866  0.01121  0.98155  1.0000
  H   H23       1.0  0.17959  0.82736  0.00049  1.0000
  H   H24       1.0  0.82041  0.17265  0.99951  1.0000
  H   H25       1.0  0.38503  0.98189  0.97448  1.0000
  H   H26       1.0  0.61497  0.01812  0.02552  1.0000
  H   H27       1.0  0.33064  0.97694  0.09642  1.0000
  H   H28       1.0  0.66936  0.02307  0.90358  1.0000
  H   H29       1.0  0.89843  0.84750  0.43159  1.0000
  H   H30       1.0  0.10156  0.15251  0.56841  1.0000
  H   H31       1.0  0.12295  0.96925  0.33927  1.0000
  H   H32       1.0  0.87704  0.03076  0.66073  1.0000
  H   H33       1.0  0.91511  0.32968  0.40788  1.0000
  H   H34       1.0  0.08489  0.67032  0.59212  1.0000
  H   H35       1.0  0.70194  0.19003  0.50207  1.0000
  H   H36       1.0  0.29805  0.80998  0.49793  1.0000
  H   H37       1.0  0.25832  0.09900  0.21998  1.0000
  H   H38       1.0  0.74168  0.90100  0.78002  1.0000
  H   H39       1.0  0.46256  0.24577  0.12037  1.0000
  H   H40       1.0  0.53744  0.75423  0.87963  1.0000
  H   H41       1.0  0.32644  0.54153  0.27035  1.0000
  H   H42       1.0  0.67356  0.45847  0.72966  1.0000
  H   H43       1.0  0.12179  0.40560  0.38039  1.0000
  H   H44       1.0  0.87821  0.59440  0.61961  1.0000
  H   H45       1.0  0.46227  0.63652  0.64505  1.0000
  H   H46       1.0  0.53773  0.36348  0.35495  1.0000
  H   H47       1.0  0.24132  0.54119  0.76406  1.0000
  H   H48       1.0  0.75868  0.45880  0.23594  1.0000
  H   H49       1.0  0.14347  0.93726  0.81595  1.0000
  H   H50       1.0  0.85653  0.06274  0.18406  1.0000
  H   H51       1.0  0.37305  0.01285  0.69842  1.0000
  H   H52       1.0  0.62696  0.98715  0.30158  1.0000
  H   H53       1.0  0.80434  0.41383  0.94652  1.0000
  H   H54       1.0  0.19566  0.58617  0.05349  1.0000
  H   H55       1.0  0.04138  0.48416  0.83618  1.0000
  H   H56       1.0  0.95862  0.51583  0.16382  1.0000
  H   H57       1.0  0.97151  0.86451  0.91757  1.0000
  H   H58       1.0  0.02850  0.13549  0.08243  1.0000
  H   H59       1.0  0.73670  0.77809  0.02233  1.0000
  H   H60       1.0  0.26331  0.22191  0.97767  1.0000
  C   C1        1.0  0.59524  0.71635  0.42821  1.0000
  C   C2        1.0  0.40476  0.28366  0.57179  1.0000
  C   C3        1.0  0.60430  0.63533  0.35402  1.0000
  C   C4        1.0  0.39570  0.36467  0.64598  1.0000
  C   C5        1.0  0.69199  0.70966  0.25561  1.0000
  C   C6        1.0  0.30801  0.29034  0.74439  1.0000
  C   C7        1.0  0.84223  0.73893  0.25111  1.0000
  C   C8        1.0  0.15777  0.26108  0.74889  1.0000
  C   C9        1.0  0.93502  0.80149  0.15202  1.0000
  C   C10       1.0  0.06498  0.19851  0.84798  1.0000
  C   C11       1.0  0.08387  0.83515  0.14724  1.0000
  C   C12       1.0  0.91613  0.16485  0.85276  1.0000
  C   C13       1.0  0.17699  0.89522  0.04744  1.0000
  C   C14       1.0  0.82301  0.10478  0.95256  1.0000
  C   C15       1.0  0.32754  0.92028  0.04381  1.0000
  C   C16       1.0  0.67246  0.07972  0.95619  1.0000
  C   C17       1.0  0.41060  0.79195  0.05930  1.0000
  C   C18       1.0  0.58940  0.20805  0.94070  1.0000
  C   C19       1.0  0.90834  0.95461  0.42468  1.0000
  C   C20       1.0  0.09165  0.04539  0.57532  1.0000
  C   C21       1.0  0.03221  0.02392  0.37220  1.0000
  C   C22       1.0  0.96779  0.97608  0.62779  1.0000
  C   C23       1.0  0.03979  0.16199  0.36473  1.0000
  C   C24       1.0  0.96021  0.83801  0.63527  1.0000
  C   C25       1.0  0.91842  0.22260  0.41223  1.0000
  C   C26       1.0  0.08158  0.77740  0.58777  1.0000
  C   C27       1.0  0.79858  0.14669  0.46414  1.0000
  C   C28       1.0  0.20142  0.85332  0.53586  1.0000
  C   C29       1.0  0.16760  0.24090  0.30798  1.0000
  C   C30       1.0  0.83240  0.75910  0.69202  1.0000
  C   C31       1.0  0.26887  0.19566  0.23514  1.0000
  C   C32       1.0  0.73113  0.80434  0.76486  1.0000
  C   C33       1.0  0.38302  0.27646  0.17876  1.0000
  C   C34       1.0  0.61698  0.72354  0.82124  1.0000
  C   C35       1.0  0.30723  0.44236  0.26221  1.0000
  C   C36       1.0  0.69277  0.55764  0.73779  1.0000
  C   C37       1.0  0.19164  0.36650  0.32234  1.0000
  C   C38       1.0  0.80836  0.63350  0.67766  1.0000
  C   C39       1.0  0.38878  0.69831  0.68647  1.0000
  C   C40       1.0  0.61122  0.30169  0.31353  1.0000
  C   C41       1.0  0.26379  0.64675  0.75235  1.0000
  C   C42       1.0  0.73621  0.35325  0.24765  1.0000
  C   C43       1.0  0.16882  0.73095  0.80086  1.0000
  C   C44       1.0  0.83119  0.26904  0.19914  1.0000
  C   C45       1.0  0.21051  0.86493  0.78172  1.0000
  C   C46       1.0  0.78950  0.13506  0.21829  1.0000
  C   C47       1.0  0.33840  0.90901  0.71622  1.0000
  C   C48       1.0  0.66160  0.09099  0.28378  1.0000
  C   C49       1.0  0.84819  0.51225  0.93809  1.0000
  C   C50       1.0  0.15181  0.48775  0.06191  1.0000
  C   C51       1.0  0.97984  0.55343  0.87654  1.0000
  C   C52       1.0  0.02016  0.44657  0.12346  1.0000
  C   C53       1.0  0.03049  0.68210  0.86655  1.0000
  C   C54       1.0  0.96952  0.31790  0.13345  1.0000
  C   C55       1.0  0.94085  0.76361  0.92077  1.0000
  C   C56       1.0  0.05915  0.23638  0.07923  1.0000
  C   C57       1.0  0.81011  0.71652  0.98046  1.0000
  C   C58       1.0  0.18989  0.28348  0.01954  1.0000
  N   N1        1.0  0.79299  0.01430  0.47027  1.0000
  N   N2        1.0  0.20701  0.98570  0.52973  1.0000
  N   N3        1.0  0.40095  0.39965  0.19037  1.0000
  N   N4        1.0  0.59904  0.60035  0.80963  1.0000
  N   N5        1.0  0.42601  0.82744  0.66794  1.0000
  N   N6        1.0  0.57399  0.17256  0.33206  1.0000
  N   N7        1.0  0.76399  0.59235  0.98982  1.0000
  N   N8        1.0  0.23601  0.40764  0.01018  1.0000
  O   O1        1.0  0.66659  0.68099  0.48535  1.0000
  O   O2        1.0  0.33340  0.31901  0.51465  1.0000
  O   O3        1.0  0.51804  0.82006  0.42494  1.0000
  O   O4        1.0  0.48196  0.17994  0.57506  1.0000
  O   O5        1.0  0.38478  0.69729  0.02426  1.0000
  O   O6        1.0  0.61522  0.30271  0.97574  1.0000
  O   O7        1.0  0.50091  0.78696  0.10260  1.0000
  O   O8        1.0  0.49909  0.21304  0.89740  1.0000
