data_image0
_chemical_formula_structural       Sr4H32C8N32O16
_chemical_formula_sum              "Sr4 H32 C8 N32 O16"
_cell_length_a       5.41259
_cell_length_b       14.0408
_cell_length_c       21.1061
_cell_angle_alpha    90.002
_cell_angle_beta     90.0005
_cell_angle_gamma    89.9992

_space_group_name_H-M_alt    "P 1"
_space_group_IT_number       1

loop_
  _space_group_symop_operation_xyz
  'x, y, z'

loop_
  _atom_site_type_symbol
  _atom_site_label
  _atom_site_symmetry_multiplicity
  _atom_site_fract_x
  _atom_site_fract_y
  _atom_site_fract_z
  _atom_site_occupancy
  Sr  Sr1       1.0  0.49998  0.16485  0.25000  1.0000
  Sr  Sr2       1.0  0.50002  0.33515  0.75001  1.0000
  Sr  Sr3       1.0  0.50001  0.83515  0.75001  1.0000
  Sr  Sr4       1.0  0.49999  0.66485  0.25000  1.0000
  H   H1        1.0  0.12595  0.04184  0.15728  1.0000
  H   H2        1.0  0.87404  0.04185  0.34272  1.0000
  H   H3        1.0  0.87405  0.45816  0.65728  1.0000
  H   H4        1.0  0.12598  0.45816  0.84271  1.0000
  H   H5        1.0  0.87407  0.95815  0.84272  1.0000
  H   H6        1.0  0.12596  0.95816  0.65728  1.0000
  H   H7        1.0  0.12591  0.54183  0.34271  1.0000
  H   H8        1.0  0.87402  0.54185  0.15727  1.0000
  H   H9        1.0  0.86619  0.27573  0.15946  1.0000
  H   H10       1.0  0.13373  0.27574  0.34054  1.0000
  H   H11       1.0  0.13379  0.22427  0.65947  1.0000
  H   H12       1.0  0.86625  0.22427  0.84055  1.0000
  H   H13       1.0  0.13380  0.72428  0.84053  1.0000
  H   H14       1.0  0.86624  0.72426  0.65946  1.0000
  H   H15       1.0  0.86623  0.77573  0.34054  1.0000
  H   H16       1.0  0.13374  0.77574  0.15946  1.0000
  H   H17       1.0  0.31761  0.10371  0.11579  1.0000
  H   H18       1.0  0.68239  0.10370  0.38422  1.0000
  H   H19       1.0  0.68237  0.39629  0.61578  1.0000
  H   H20       1.0  0.31765  0.39629  0.88422  1.0000
  H   H21       1.0  0.68241  0.89631  0.88421  1.0000
  H   H22       1.0  0.31764  0.89628  0.61578  1.0000
  H   H23       1.0  0.31762  0.60370  0.38422  1.0000
  H   H24       1.0  0.68236  0.60371  0.11578  1.0000
  H   H25       1.0  0.93462  0.17001  0.15307  1.0000
  H   H26       1.0  0.06534  0.17001  0.34694  1.0000
  H   H27       1.0  0.06537  0.33000  0.65308  1.0000
  H   H28       1.0  0.93468  0.32998  0.84694  1.0000
  H   H29       1.0  0.06537  0.83000  0.84693  1.0000
  H   H30       1.0  0.93465  0.82999  0.65306  1.0000
  H   H31       1.0  0.93464  0.67001  0.34692  1.0000
  H   H32       1.0  0.06533  0.67001  0.15307  1.0000
  C   C1        1.0  0.39455  0.41492  0.22912  1.0000
  C   C2        1.0  0.60543  0.41489  0.27087  1.0000
  C   C3        1.0  0.60542  0.08518  0.72912  1.0000
  C   C4        1.0  0.39464  0.08502  0.77089  1.0000
  C   C5        1.0  0.60545  0.58508  0.77090  1.0000
  C   C6        1.0  0.39463  0.58509  0.72914  1.0000
  C   C7        1.0  0.39458  0.91495  0.27089  1.0000
  C   C8        1.0  0.60539  0.91487  0.22912  1.0000
  N   N1        1.0  0.28458  0.33565  0.20705  1.0000
  N   N2        1.0  0.71542  0.33562  0.29295  1.0000
  N   N3        1.0  0.71556  0.16444  0.70704  1.0000
  N   N4        1.0  0.28470  0.16431  0.79293  1.0000
  N   N5        1.0  0.71550  0.66437  0.79292  1.0000
  N   N6        1.0  0.28456  0.66435  0.70706  1.0000
  N   N7        1.0  0.28462  0.83567  0.29294  1.0000
  N   N8        1.0  0.71548  0.83560  0.20703  1.0000
  N   N9        1.0  0.09414  0.36765  0.17243  1.0000
  N   N10       1.0  0.90584  0.36766  0.32757  1.0000
  N   N11       1.0  0.90592  0.13233  0.67242  1.0000
  N   N12       1.0  0.09426  0.13236  0.82756  1.0000
  N   N13       1.0  0.90582  0.63235  0.82758  1.0000
  N   N14       1.0  0.09421  0.63233  0.67242  1.0000
  N   N15       1.0  0.09416  0.86765  0.32756  1.0000
  N   N16       1.0  0.90588  0.86767  0.17242  1.0000
  N   N17       1.0  0.09207  0.46170  0.17346  1.0000
  N   N18       1.0  0.90784  0.46171  0.32653  1.0000
  N   N19       1.0  0.90779  0.03829  0.67348  1.0000
  N   N20       1.0  0.09208  0.03831  0.82655  1.0000
  N   N21       1.0  0.90787  0.53830  0.82655  1.0000
  N   N22       1.0  0.09218  0.53829  0.67346  1.0000
  N   N23       1.0  0.09205  0.96169  0.32655  1.0000
  N   N24       1.0  0.90783  0.96171  0.17347  1.0000
  N   N25       1.0  0.28013  0.49423  0.20879  1.0000
  N   N26       1.0  0.71979  0.49420  0.29119  1.0000
  N   N27       1.0  0.71973  0.00585  0.70883  1.0000
  N   N28       1.0  0.28009  0.00573  0.79121  1.0000
  N   N29       1.0  0.71992  0.50576  0.79118  1.0000
  N   N30       1.0  0.28017  0.50579  0.70882  1.0000
  N   N31       1.0  0.28007  0.99425  0.29121  1.0000
  N   N32       1.0  0.71976  0.99418  0.20882  1.0000
  O   O1        1.0  0.78917  0.21123  0.15991  1.0000
  O   O2        1.0  0.21076  0.21125  0.34010  1.0000
  O   O3        1.0  0.21081  0.28876  0.65991  1.0000
  O   O4        1.0  0.78922  0.28876  0.84010  1.0000
  O   O5        1.0  0.21081  0.78877  0.84009  1.0000
  O   O6        1.0  0.78920  0.78876  0.65989  1.0000
  O   O7        1.0  0.78919  0.71124  0.34008  1.0000
  O   O8        1.0  0.21077  0.71125  0.15990  1.0000
  O   O9        1.0  0.22577  0.10341  0.15536  1.0000
  O   O10       1.0  0.77417  0.10342  0.34463  1.0000
  O   O11       1.0  0.77426  0.39658  0.65537  1.0000
  O   O12       1.0  0.22582  0.39658  0.84465  1.0000
  O   O13       1.0  0.77420  0.89659  0.84463  1.0000
  O   O14       1.0  0.22579  0.89658  0.65535  1.0000
  O   O15       1.0  0.22580  0.60340  0.34464  1.0000
  O   O16       1.0  0.77418  0.60342  0.15536  1.0000
