data_image0
_chemical_formula_structural       Zn2H36C44N8O12
_chemical_formula_sum              "Zn2 H36 C44 N8 O12"
_cell_length_a       5.8659
_cell_length_b       16.3577
_cell_length_c       13.8581
_cell_angle_alpha    85.2553
_cell_angle_beta     77.7175
_cell_angle_gamma    79.7511

_space_group_name_H-M_alt    "P 1"
_space_group_IT_number       1

loop_
  _space_group_symop_operation_xyz
  'x, y, z'

loop_
  _atom_site_type_symbol
  _atom_site_label
  _atom_site_symmetry_multiplicity
  _atom_site_fract_x
  _atom_site_fract_y
  _atom_site_fract_z
  _atom_site_occupancy
  Zn  Zn1       1.0  0.33281  0.25012  0.74971  1.0000
  Zn  Zn2       1.0  0.66718  0.74987  0.25029  1.0000
  H   H1        1.0  0.26614  0.43579  0.75261  1.0000
  H   H2        1.0  0.45341  0.06439  0.74720  1.0000
  H   H3        1.0  0.73376  0.56421  0.24746  1.0000
  H   H4        1.0  0.54665  0.93561  0.25275  1.0000
  H   H5        1.0  0.44773  0.54106  0.81483  1.0000
  H   H6        1.0  0.80254  0.95911  0.68564  1.0000
  H   H7        1.0  0.55216  0.45893  0.18525  1.0000
  H   H8        1.0  0.19755  0.04091  0.31430  1.0000
  H   H9        1.0  0.91083  0.33837  0.93100  1.0000
  H   H10       1.0  0.18050  0.16178  0.56847  1.0000
  H   H11       1.0  0.08916  0.66161  0.06902  1.0000
  H   H12       1.0  0.81952  0.83827  0.43151  1.0000
  H   H13       1.0  0.70511  0.24070  0.86568  1.0000
  H   H14       1.0  0.81164  0.25947  0.63316  1.0000
  H   H15       1.0  0.29490  0.75928  0.13432  1.0000
  H   H16       1.0  0.18835  0.74055  0.36683  1.0000
  H   H17       1.0  0.76249  0.60859  0.81406  1.0000
  H   H18       1.0  0.18420  0.89181  0.68654  1.0000
  H   H19       1.0  0.23755  0.39137  0.18595  1.0000
  H   H20       1.0  0.81587  0.10824  0.31344  1.0000
  H   H21       1.0  0.88114  0.63151  0.91640  1.0000
  H   H22       1.0  0.42767  0.86863  0.58395  1.0000
  H   H23       1.0  0.11903  0.36845  0.08358  1.0000
  H   H24       1.0  0.57247  0.13141  0.41606  1.0000
  H   H25       1.0  0.57694  0.62433  0.93183  1.0000
  H   H26       1.0  0.13142  0.87572  0.56909  1.0000
  H   H27       1.0  0.42318  0.37568  0.06819  1.0000
  H   H28       1.0  0.86876  0.12428  0.43088  1.0000
  H   H29       1.0  0.80534  0.43303  0.65547  1.0000
  H   H30       1.0  0.89251  0.06694  0.84497  1.0000
  H   H31       1.0  0.19452  0.56701  0.34460  1.0000
  H   H32       1.0  0.10752  0.93299  0.15495  1.0000
  H   H33       1.0  0.48972  0.61239  0.54615  1.0000
  H   H34       1.0  0.64705  0.88739  0.95487  1.0000
  H   H35       1.0  0.51019  0.38767  0.45394  1.0000
  H   H36       1.0  0.35298  0.11256  0.04504  1.0000
  C   C1        1.0  0.40667  0.41695  0.79412  1.0000
  C   C2        1.0  0.61700  0.08322  0.70569  1.0000
  C   C3        1.0  0.59325  0.58304  0.20595  1.0000
  C   C4        1.0  0.38305  0.91679  0.29425  1.0000
  C   C5        1.0  0.51033  0.47541  0.82918  1.0000
  C   C6        1.0  0.81426  0.02475  0.67100  1.0000
  C   C7        1.0  0.48958  0.52457  0.17089  1.0000
  C   C8        1.0  0.18582  0.97527  0.32894  1.0000
  C   C9        1.0  0.69357  0.44831  0.88075  1.0000
  C   C10       1.0  0.02238  0.05185  0.61930  1.0000
  C   C11       1.0  0.30637  0.55168  0.11930  1.0000
  C   C12       1.0  0.97769  0.94818  0.38065  1.0000
  C   C13       1.0  0.76585  0.36207  0.89336  1.0000
  C   C14       1.0  0.02131  0.13810  0.60627  1.0000
  C   C15       1.0  0.23411  0.63792  0.10668  1.0000
  C   C16       1.0  0.97872  0.86193  0.39370  1.0000
  C   C17       1.0  0.65320  0.30767  0.85681  1.0000
  C   C18       1.0  0.81765  0.19249  0.64245  1.0000
  C   C19       1.0  0.34676  0.69231  0.14323  1.0000
  C   C20       1.0  0.18236  0.80753  0.35752  1.0000
  C   C21       1.0  0.80853  0.50730  0.92109  1.0000
  C   C22       1.0  0.23656  0.99284  0.57909  1.0000
  C   C23       1.0  0.19144  0.49269  0.07896  1.0000
  C   C24       1.0  0.76353  0.00719  0.42086  1.0000
  C   C25       1.0  0.75684  0.59815  0.89382  1.0000
  C   C26       1.0  0.24768  0.90203  0.60669  1.0000
  C   C27       1.0  0.24324  0.40183  0.10619  1.0000
  C   C28       1.0  0.75244  0.09800  0.39329  1.0000
  C   C29       1.0  0.24892  0.35565  0.58937  1.0000
  C   C30       1.0  0.19410  0.14457  0.91022  1.0000
  C   C31       1.0  0.75098  0.64441  0.41071  1.0000
  C   C32       1.0  0.80590  0.85538  0.08971  1.0000
  C   C33       1.0  0.12002  0.42912  0.54248  1.0000
  C   C34       1.0  0.09181  0.07095  0.95726  1.0000
  C   C35       1.0  0.87984  0.57091  0.45758  1.0000
  C   C36       1.0  0.90825  0.92898  0.04267  1.0000
  C   C37       1.0  0.88912  0.46299  0.58755  1.0000
  C   C38       1.0  0.93916  0.03698  0.91266  1.0000
  C   C39       1.0  0.11074  0.53705  0.41251  1.0000
  C   C40       1.0  0.06093  0.96294  0.08726  1.0000
  C   C41       1.0  0.76571  0.53351  0.54675  1.0000
  C   C42       1.0  0.84540  0.96638  0.95371  1.0000
  C   C43       1.0  0.23416  0.46652  0.45331  1.0000
  C   C44       1.0  0.15466  0.03356  0.04621  1.0000
  N   N1        1.0  0.47550  0.33461  0.80807  1.0000
  N   N2        1.0  0.61779  0.16555  0.69132  1.0000
  N   N3        1.0  0.52444  0.66537  0.19197  1.0000
  N   N4        1.0  0.38223  0.83446  0.30865  1.0000
  N   N5        1.0  0.94735  0.47285  0.98066  1.0000
  N   N6        1.0  0.40102  0.02718  0.51932  1.0000
  N   N7        1.0  0.05252  0.52713  0.01943  1.0000
  N   N8        1.0  0.59905  0.97285  0.48062  1.0000
  O   O1        1.0  0.13501  0.32396  0.67054  1.0000
  O   O2        1.0  0.12916  0.17630  0.82929  1.0000
  O   O3        1.0  0.86490  0.67607  0.32951  1.0000
  O   O4        1.0  0.87081  0.82366  0.17065  1.0000
  O   O5        1.0  0.46211  0.32738  0.55138  1.0000
  O   O6        1.0  0.34157  0.17290  0.94785  1.0000
  O   O7        1.0  0.53784  0.67272  0.44872  1.0000
  O   O8        1.0  0.65844  0.82706  0.05207  1.0000
  O   O9        1.0  0.54182  0.56451  0.59232  1.0000
  O   O10       1.0  0.69749  0.93529  0.90855  1.0000
  O   O11       1.0  0.45806  0.43553  0.40773  1.0000
  O   O12       1.0  0.30257  0.06465  0.09136  1.0000
