data_image0
_chemical_formula_structural       Cd2H40C40N4O14
_chemical_formula_sum              "Cd2 H40 C40 N4 O14"
_cell_length_a       6.46801
_cell_length_b       10.8433
_cell_length_c       14.948
_cell_angle_alpha    76.2639
_cell_angle_beta     77.504
_cell_angle_gamma    72.6478

_space_group_name_H-M_alt    "P 1"
_space_group_IT_number       1

loop_
  _space_group_symop_operation_xyz
  'x, y, z'

loop_
  _atom_site_type_symbol
  _atom_site_label
  _atom_site_symmetry_multiplicity
  _atom_site_fract_x
  _atom_site_fract_y
  _atom_site_fract_z
  _atom_site_occupancy
  Cd  Cd1       1.0  0.85540  0.24999  0.74993  1.0000
  Cd  Cd2       1.0  0.14460  0.75002  0.25007  1.0000
  H   H1        1.0  0.34739  0.17643  0.74480  1.0000
  H   H2        1.0  0.26873  0.32371  0.75526  1.0000
  H   H3        1.0  0.65261  0.82357  0.25520  1.0000
  H   H4        1.0  0.73128  0.67629  0.24474  1.0000
  H   H5        1.0  0.37736  0.69561  0.73281  1.0000
  H   H6        1.0  0.80601  0.80431  0.76720  1.0000
  H   H7        1.0  0.62265  0.30440  0.26719  1.0000
  H   H8        1.0  0.19400  0.19570  0.23280  1.0000
  H   H9        1.0  0.42222  0.64669  0.84992  1.0000
  H   H10       1.0  0.91905  0.85332  0.65009  1.0000
  H   H11       1.0  0.57778  0.35332  0.15008  1.0000
  H   H12       1.0  0.08096  0.14668  0.34991  1.0000
  H   H13       1.0  0.40380  0.46063  0.95060  1.0000
  H   H14       1.0  0.81485  0.03946  0.54945  1.0000
  H   H15       1.0  0.59620  0.53938  0.04939  1.0000
  H   H16       1.0  0.18516  0.96055  0.45055  1.0000
  H   H17       1.0  0.74579  0.63053  0.88898  1.0000
  H   H18       1.0  0.26625  0.86866  0.61076  1.0000
  H   H19       1.0  0.25420  0.36948  0.11102  1.0000
  H   H20       1.0  0.73377  0.13134  0.38924  1.0000
  H   H21       1.0  0.56859  0.34025  0.58912  1.0000
  H   H22       1.0  0.49790  0.15968  0.91117  1.0000
  H   H23       1.0  0.43141  0.65975  0.41088  1.0000
  H   H24       1.0  0.50210  0.84031  0.08883  1.0000
  H   H25       1.0  0.59234  0.42574  0.41635  1.0000
  H   H26       1.0  0.43549  0.07431  0.08399  1.0000
  H   H27       1.0  0.40766  0.57425  0.58365  1.0000
  H   H28       1.0  0.56452  0.92569  0.91601  1.0000
  H   H29       1.0  0.96340  0.43184  0.32105  1.0000
  H   H30       1.0  0.71770  0.06882  0.17887  1.0000
  H   H31       1.0  0.03659  0.56815  0.67895  1.0000
  H   H32       1.0  0.28229  0.93118  0.82114  1.0000
  H   H33       1.0  0.29121  0.34635  0.40186  1.0000
  H   H34       1.0  0.04055  0.15430  0.09760  1.0000
  H   H35       1.0  0.70877  0.65365  0.59814  1.0000
  H   H36       1.0  0.95942  0.84571  0.90240  1.0000
  H   H37       1.0  0.23909  0.26251  0.57523  1.0000
  H   H38       1.0  0.07710  0.23785  0.92424  1.0000
  H   H39       1.0  0.76091  0.73748  0.42476  1.0000
  H   H40       1.0  0.92289  0.76216  0.07577  1.0000
  C   C1        1.0  0.53399  0.49040  0.77135  1.0000
  C   C2        1.0  0.79573  0.00955  0.72868  1.0000
  C   C3        1.0  0.46601  0.50961  0.22865  1.0000
  C   C4        1.0  0.20426  0.99045  0.27132  1.0000
  C   C5        1.0  0.37028  0.61731  0.79452  1.0000
  C   C6        1.0  0.78221  0.88261  0.70550  1.0000
  C   C7        1.0  0.62972  0.38270  0.20548  1.0000
  C   C8        1.0  0.21780  0.11739  0.29449  1.0000
  C   C9        1.0  0.08230  0.55358  0.90900  1.0000
  C   C10       1.0  0.54526  0.94612  0.59093  1.0000
  C   C11       1.0  0.91770  0.44643  0.09100  1.0000
  C   C12       1.0  0.45475  0.05387  0.40907  1.0000
  C   C13       1.0  0.22678  0.47913  0.97136  1.0000
  C   C14       1.0  0.67714  0.02097  0.52867  1.0000
  C   C15       1.0  0.77321  0.52088  0.02863  1.0000
  C   C16       1.0  0.32288  0.97903  0.47132  1.0000
  C   C17       1.0  0.85638  0.57360  0.93826  1.0000
  C   C18       1.0  0.36884  0.92593  0.56160  1.0000
  C   C19       1.0  0.14363  0.42641  0.06174  1.0000
  C   C20       1.0  0.63118  0.07407  0.43840  1.0000
  C   C21       1.0  0.72508  0.34357  0.54440  1.0000
  C   C22       1.0  0.61336  0.15643  0.95569  1.0000
  C   C23       1.0  0.27491  0.65642  0.45560  1.0000
  C   C24       1.0  0.38663  0.84355  0.04432  1.0000
  C   C25       1.0  0.73984  0.39058  0.44872  1.0000
  C   C26       1.0  0.58000  0.10959  0.05140  1.0000
  C   C27       1.0  0.26014  0.60941  0.55128  1.0000
  C   C28       1.0  0.41999  0.89040  0.94860  1.0000
  C   C29       1.0  0.94481  0.39437  0.39591  1.0000
  C   C30       1.0  0.73623  0.10603  0.10397  1.0000
  C   C31       1.0  0.05518  0.60562  0.60409  1.0000
  C   C32       1.0  0.26376  0.89397  0.89603  1.0000
  C   C33       1.0  0.12828  0.34744  0.44104  1.0000
  C   C34       1.0  0.91775  0.15297  0.05859  1.0000
  C   C35       1.0  0.87172  0.65255  0.55896  1.0000
  C   C36       1.0  0.08225  0.84704  0.94142  1.0000
  C   C37       1.0  0.10087  0.30089  0.53679  1.0000
  C   C38       1.0  0.93901  0.19937  0.96283  1.0000
  C   C39       1.0  0.89913  0.69910  0.46321  1.0000
  C   C40       1.0  0.06099  0.80063  0.03717  1.0000
  N   N1        1.0  0.90204  0.30080  0.58786  1.0000
  N   N2        1.0  0.79082  0.19930  0.91199  1.0000
  N   N3        1.0  0.09796  0.69919  0.41214  1.0000
  N   N4        1.0  0.20918  0.80070  0.08800  1.0000
  O   O1        1.0  0.46622  0.39947  0.75639  1.0000
  O   O2        1.0  0.62205  0.10038  0.74389  1.0000
  O   O3        1.0  0.53379  0.60054  0.24361  1.0000
  O   O4        1.0  0.37794  0.89961  0.25611  1.0000
  O   O5        1.0  0.73455  0.48401  0.76706  1.0000
  O   O6        1.0  0.98574  0.01601  0.73273  1.0000
  O   O7        1.0  0.26545  0.51599  0.23294  1.0000
  O   O8        1.0  0.01425  0.98399  0.26727  1.0000
  O   O9        1.0  0.14684  0.61296  0.81910  1.0000
  O   O10       1.0  0.57918  0.88683  0.68085  1.0000
  O   O11       1.0  0.85317  0.38706  0.18089  1.0000
  O   O12       1.0  0.42083  0.11317  0.31914  1.0000
  O   O13       1.0  0.21335  0.25015  0.74995  1.0000
  O   O14       1.0  0.78665  0.74986  0.25005  1.0000
