data_image0
_chemical_formula_structural       Cd2H46C50N6O12
_chemical_formula_sum              "Cd2 H46 C50 N6 O12"
_cell_length_a       9.59861
_cell_length_b       11.752
_cell_length_c       12.2215
_cell_angle_alpha    77.9627
_cell_angle_beta     71.2148
_cell_angle_gamma    70.8874

_space_group_name_H-M_alt    "P 1"
_space_group_IT_number       1

loop_
  _space_group_symop_operation_xyz
  'x, y, z'

loop_
  _atom_site_type_symbol
  _atom_site_label
  _atom_site_symmetry_multiplicity
  _atom_site_fract_x
  _atom_site_fract_y
  _atom_site_fract_z
  _atom_site_occupancy
  Cd  Cd1       1.0  0.77421  0.27262  0.21109  1.0000
  Cd  Cd2       1.0  0.22579  0.72738  0.78891  1.0000
  H   H1        1.0  0.61406  0.91066  0.28478  1.0000
  H   H2        1.0  0.38595  0.08934  0.71522  1.0000
  H   H3        1.0  0.46908  0.00438  0.38631  1.0000
  H   H4        1.0  0.53092  0.99562  0.61369  1.0000
  H   H5        1.0  0.70941  0.94254  0.09645  1.0000
  H   H6        1.0  0.29060  0.05746  0.90355  1.0000
  H   H7        1.0  0.22800  0.06965  0.11554  1.0000
  H   H8        1.0  0.77201  0.93034  0.88445  1.0000
  H   H9        1.0  0.28649  0.26506  0.19984  1.0000
  H   H10       1.0  0.71351  0.73494  0.80016  1.0000
  H   H11       1.0  0.20106  0.22319  0.34718  1.0000
  H   H12       1.0  0.79894  0.77681  0.65282  1.0000
  H   H13       1.0  0.98670  0.30253  0.46677  1.0000
  H   H14       1.0  0.01330  0.69746  0.53323  1.0000
  H   H15       1.0  0.17568  0.60712  0.35284  1.0000
  H   H16       1.0  0.82432  0.39288  0.64716  1.0000
  H   H17       1.0  0.81327  0.18962  0.46372  1.0000
  H   H18       1.0  0.18673  0.81037  0.53628  1.0000
  H   H19       1.0  0.67485  0.19150  0.67709  1.0000
  H   H20       1.0  0.32514  0.80850  0.32291  1.0000
  H   H21       1.0  0.40018  0.31519  0.73550  1.0000
  H   H22       1.0  0.59982  0.68481  0.26450  1.0000
  H   H23       1.0  0.27446  0.43333  0.57783  1.0000
  H   H24       1.0  0.72555  0.56669  0.42217  1.0000
  H   H25       1.0  0.42950  0.42249  0.37130  1.0000
  H   H26       1.0  0.57050  0.57752  0.62870  1.0000
  H   H27       1.0  0.43337  0.41543  0.18877  1.0000
  H   H28       1.0  0.56663  0.58457  0.81123  1.0000
  H   H29       1.0  0.27650  0.61807  0.12487  1.0000
  H   H30       1.0  0.72350  0.38193  0.87513  1.0000
  H   H31       1.0  0.40906  0.78170  0.02427  1.0000
  H   H32       1.0  0.59094  0.21830  0.97573  1.0000
  H   H33       1.0  0.68916  0.73425  0.00413  1.0000
  H   H34       1.0  0.31084  0.26575  0.99587  1.0000
  H   H35       1.0  0.82477  0.52945  0.08759  1.0000
  H   H36       1.0  0.17523  0.47055  0.91241  1.0000
  H   H37       1.0  0.84566  0.08260  0.02479  1.0000
  H   H38       1.0  0.15434  0.91741  0.97521  1.0000
  H   H39       1.0  0.97481  0.04852  0.81475  1.0000
  H   H40       1.0  0.02518  0.95148  0.18525  1.0000
  H   H41       1.0  0.10514  0.19945  0.68407  1.0000
  H   H42       1.0  0.89486  0.80055  0.31593  1.0000
  H   H43       1.0  0.10310  0.37930  0.77017  1.0000
  H   H44       1.0  0.89689  0.62070  0.22983  1.0000
  H   H45       1.0  0.98559  0.38985  0.98245  1.0000
  H   H46       1.0  0.01440  0.61016  0.01755  1.0000
  C   C1        1.0  0.61668  0.09791  0.25483  1.0000
  C   C2        1.0  0.38333  0.90208  0.74517  1.0000
  C   C3        1.0  0.53052  0.00083  0.29349  1.0000
  C   C4        1.0  0.46949  0.99917  0.70651  1.0000
  C   C5        1.0  0.46320  0.00754  0.11977  1.0000
  C   C6        1.0  0.53681  0.99246  0.88022  1.0000
  C   C7        1.0  0.61693  0.96884  0.05489  1.0000
  C   C8        1.0  0.38308  0.03115  0.94511  1.0000
  C   C9        1.0  0.34691  0.03829  0.06409  1.0000
  C   C10       1.0  0.65310  0.96170  0.93591  1.0000
  C   C11       1.0  0.04029  0.29945  0.24289  1.0000
  C   C12       1.0  0.95971  0.70055  0.75712  1.0000
  C   C13       1.0  0.18568  0.29296  0.27322  1.0000
  C   C14       1.0  0.81432  0.70704  0.72678  1.0000
  C   C15       1.0  0.09303  0.44943  0.39698  1.0000
  C   C16       1.0  0.90697  0.55057  0.60302  1.0000
  C   C17       1.0  0.99394  0.38877  0.48042  1.0000
  C   C18       1.0  0.00606  0.61123  0.51958  1.0000
  C   C19       1.0  0.09801  0.56060  0.41760  1.0000
  C   C20       1.0  0.90199  0.43940  0.58240  1.0000
  C   C21       1.0  0.69452  0.24370  0.49393  1.0000
  C   C22       1.0  0.30548  0.75630  0.50607  1.0000
  C   C23       1.0  0.61715  0.24515  0.61184  1.0000
  C   C24       1.0  0.38285  0.75485  0.38816  1.0000
  C   C25       1.0  0.46383  0.31330  0.64395  1.0000
  C   C26       1.0  0.53617  0.68670  0.35605  1.0000
  C   C27       1.0  0.39369  0.37827  0.55729  1.0000
  C   C28       1.0  0.60632  0.62174  0.44271  1.0000
  C   C29       1.0  0.48018  0.37288  0.44147  1.0000
  C   C30       1.0  0.51983  0.62713  0.55853  1.0000
  C   C31       1.0  0.48474  0.48956  0.15032  1.0000
  C   C32       1.0  0.51526  0.51044  0.84968  1.0000
  C   C33       1.0  0.39828  0.60302  0.11284  1.0000
  C   C34       1.0  0.60171  0.39698  0.88715  1.0000
  C   C35       1.0  0.47116  0.69308  0.05826  1.0000
  C   C36       1.0  0.52884  0.30691  0.94174  1.0000
  C   C37       1.0  0.62785  0.66656  0.04571  1.0000
  C   C38       1.0  0.37214  0.33344  0.95429  1.0000
  C   C39       1.0  0.70460  0.55268  0.08976  1.0000
  C   C40       1.0  0.29540  0.44732  0.91024  1.0000
  C   C41       1.0  0.90743  0.14408  0.96520  1.0000
  C   C42       1.0  0.09257  0.85593  0.03480  1.0000
  C   C43       1.0  0.97679  0.12664  0.84840  1.0000
  C   C44       1.0  0.02320  0.87336  0.15160  1.0000
  C   C45       1.0  0.05081  0.21050  0.77590  1.0000
  C   C46       1.0  0.94918  0.78950  0.22410  1.0000
  C   C47       1.0  0.05316  0.30807  0.82304  1.0000
  C   C48       1.0  0.94684  0.69194  0.17696  1.0000
  C   C49       1.0  0.98454  0.31637  0.94146  1.0000
  C   C50       1.0  0.01545  0.68363  0.05854  1.0000
  N   N1        1.0  0.62772  0.30708  0.40993  1.0000
  N   N2        1.0  0.37229  0.69292  0.59007  1.0000
  N   N3        1.0  0.63506  0.46502  0.14052  1.0000
  N   N4        1.0  0.36494  0.53498  0.85948  1.0000
  N   N5        1.0  0.91216  0.23640  0.01173  1.0000
  N   N6        1.0  0.08783  0.76360  0.98827  1.0000
  O   O1        1.0  0.74091  0.07062  0.28342  1.0000
  O   O2        1.0  0.25910  0.92938  0.71658  1.0000
  O   O3        1.0  0.56106  0.19825  0.20034  1.0000
  O   O4        1.0  0.43894  0.80174  0.79967  1.0000
  O   O5        1.0  0.41554  0.01726  0.23695  1.0000
  O   O6        1.0  0.58447  0.98274  0.76305  1.0000
  O   O7        1.0  0.00429  0.19986  0.26377  1.0000
  O   O8        1.0  0.99571  0.80014  0.73623  1.0000
  O   O9        1.0  0.96576  0.39847  0.19878  1.0000
  O   O10       1.0  0.03423  0.60153  0.80123  1.0000
  O   O11       1.0  0.18936  0.40662  0.29486  1.0000
  O   O12       1.0  0.81064  0.59337  0.70514  1.0000
