data_image0
_chemical_formula_structural       Zn2H24C32N4O12
_chemical_formula_sum              "Zn2 H24 C32 N4 O12"
_cell_length_a       6.63206
_cell_length_b       9.6646
_cell_length_c       12.1683
_cell_angle_alpha    98.9579
_cell_angle_beta     98.9084
_cell_angle_gamma    98.7838

_space_group_name_H-M_alt    "P 1"
_space_group_IT_number       1

loop_
  _space_group_symop_operation_xyz
  'x, y, z'

loop_
  _atom_site_type_symbol
  _atom_site_label
  _atom_site_symmetry_multiplicity
  _atom_site_fract_x
  _atom_site_fract_y
  _atom_site_fract_z
  _atom_site_occupancy
  Zn  Zn1       1.0  0.64212  0.76005  0.81682  1.0000
  Zn  Zn2       1.0  0.35788  0.23995  0.18318  1.0000
  H   H1        1.0  0.57415  0.80333  0.43443  1.0000
  H   H2        1.0  0.42585  0.19667  0.56558  1.0000
  H   H3        1.0  0.00667  0.71127  0.54683  1.0000
  H   H4        1.0  0.99333  0.28873  0.45317  1.0000
  H   H5        1.0  0.06720  0.45196  0.65634  1.0000
  H   H6        1.0  0.93280  0.54804  0.34365  1.0000
  H   H7        1.0  0.31373  0.51026  0.50535  1.0000
  H   H8        1.0  0.68627  0.48974  0.49465  1.0000
  H   H9        1.0  0.66906  0.05050  0.73593  1.0000
  H   H10       1.0  0.33094  0.94950  0.26407  1.0000
  H   H11       1.0  0.76601  0.30711  0.83139  1.0000
  H   H12       1.0  0.23400  0.69290  0.16861  1.0000
  H   H13       1.0  0.85181  0.36191  0.04554  1.0000
  H   H14       1.0  0.14819  0.63809  0.95447  1.0000
  H   H15       1.0  0.84003  0.16294  0.15158  1.0000
  H   H16       1.0  0.15997  0.83705  0.84842  1.0000
  H   H17       1.0  0.81487  0.98785  0.23100  1.0000
  H   H18       1.0  0.18511  0.01215  0.76900  1.0000
  H   H19       1.0  0.81458  0.76521  0.30886  1.0000
  H   H20       1.0  0.18540  0.23479  0.69114  1.0000
  H   H21       1.0  0.72742  0.52934  0.17686  1.0000
  H   H22       1.0  0.27257  0.47066  0.82314  1.0000
  H   H23       1.0  0.67464  0.53037  0.96556  1.0000
  H   H24       1.0  0.32536  0.46963  0.03444  1.0000
  C   C1        1.0  0.10254  0.63627  0.57589  1.0000
  C   C2        1.0  0.89746  0.36372  0.42411  1.0000
  C   C3        1.0  0.96927  0.52142  0.62004  1.0000
  C   C4        1.0  0.03074  0.47858  0.37996  1.0000
  C   C5        1.0  0.19936  0.57349  0.47509  1.0000
  C   C6        1.0  0.80065  0.42651  0.52490  1.0000
  C   C7        1.0  0.28130  0.72301  0.66754  1.0000
  C   C8        1.0  0.71870  0.27698  0.33246  1.0000
  C   C9        1.0  0.86235  0.58673  0.71352  1.0000
  C   C10       1.0  0.13766  0.41327  0.28648  1.0000
  C   C11       1.0  0.30766  0.69941  0.43236  1.0000
  C   C12       1.0  0.69234  0.30061  0.56764  1.0000
  C   C13       1.0  0.70789  0.08036  0.82777  1.0000
  C   C14       1.0  0.29211  0.91964  0.17223  1.0000
  C   C15       1.0  0.75959  0.22288  0.88161  1.0000
  C   C16       1.0  0.24041  0.77712  0.11839  1.0000
  C   C17       1.0  0.80636  0.25264  0.99942  1.0000
  C   C18       1.0  0.19364  0.74735  0.00059  1.0000
  C   C19       1.0  0.80088  0.14115  0.05984  1.0000
  C   C20       1.0  0.19912  0.85884  0.94016  1.0000
  C   C21       1.0  0.74983  0.00131  0.00045  1.0000
  C   C22       1.0  0.25016  0.99868  0.99955  1.0000
  C   C23       1.0  0.74596  0.87577  0.05646  1.0000
  C   C24       1.0  0.25403  0.12423  0.94354  1.0000
  C   C25       1.0  0.78490  0.88519  0.17402  1.0000
  C   C26       1.0  0.21509  0.11481  0.82598  1.0000
  C   C27       1.0  0.77943  0.76002  0.21772  1.0000
  C   C28       1.0  0.22055  0.23998  0.78228  1.0000
  C   C29       1.0  0.73588  0.62874  0.14445  1.0000
  C   C30       1.0  0.26411  0.37126  0.85555  1.0000
  C   C31       1.0  0.70241  0.62785  0.02854  1.0000
  C   C32       1.0  0.29759  0.37215  0.97146  1.0000
  N   N1        1.0  0.70368  0.97322  0.88581  1.0000
  N   N2        1.0  0.29632  0.02678  0.11419  1.0000
  N   N3        1.0  0.70538  0.74787  0.98604  1.0000
  N   N4        1.0  0.29462  0.25212  0.01396  1.0000
  O   O1        1.0  0.36721  0.65196  0.73897  1.0000
  O   O2        1.0  0.63279  0.34804  0.26103  1.0000
  O   O3        1.0  0.34367  0.85151  0.66750  1.0000
  O   O4        1.0  0.65634  0.14849  0.33250  1.0000
  O   O5        1.0  0.83879  0.71789  0.71483  1.0000
  O   O6        1.0  0.16122  0.28212  0.28517  1.0000
  O   O7        1.0  0.79712  0.51273  0.78090  1.0000
  O   O8        1.0  0.20288  0.48727  0.21910  1.0000
  O   O9        1.0  0.21961  0.78467  0.38848  1.0000
  O   O10       1.0  0.78041  0.21532  0.61153  1.0000
  O   O11       1.0  0.51746  0.71200  0.45345  1.0000
  O   O12       1.0  0.48255  0.28800  0.54655  1.0000
