data_image0
_chemical_formula_structural       Ca4H8C8O16
_chemical_formula_sum              "Ca4 H8 C8 O16"
_cell_length_a       6.79027
_cell_length_b       6.79019
_cell_length_c       9.38472
_cell_angle_alpha    90.0035
_cell_angle_beta     89.9988
_cell_angle_gamma    90.0036

_space_group_name_H-M_alt    "P 1"
_space_group_IT_number       1

loop_
  _space_group_symop_operation_xyz
  'x, y, z'

loop_
  _atom_site_type_symbol
  _atom_site_label
  _atom_site_symmetry_multiplicity
  _atom_site_fract_x
  _atom_site_fract_y
  _atom_site_fract_z
  _atom_site_occupancy
  Ca  Ca1       1.0  0.78805  0.78806  0.00002  1.0000
  Ca  Ca2       1.0  0.71186  0.28812  0.75000  1.0000
  Ca  Ca3       1.0  0.28816  0.71187  0.25002  1.0000
  Ca  Ca4       1.0  0.21192  0.21193  0.50001  1.0000
  H   H1        1.0  0.34150  0.86288  0.81759  1.0000
  H   H2        1.0  0.63708  0.84169  0.56788  1.0000
  H   H3        1.0  0.36293  0.15827  0.06786  1.0000
  H   H4        1.0  0.84171  0.63710  0.43212  1.0000
  H   H5        1.0  0.15829  0.36295  0.93213  1.0000
  H   H6        1.0  0.65850  0.13711  0.31758  1.0000
  H   H7        1.0  0.86289  0.34151  0.18242  1.0000
  H   H8        1.0  0.13709  0.65855  0.68242  1.0000
  C   C1        1.0  0.30017  0.80900  0.92484  1.0000
  C   C2        1.0  0.69107  0.80033  0.67505  1.0000
  C   C3        1.0  0.30895  0.19965  0.17502  1.0000
  C   C4        1.0  0.80039  0.69109  0.32493  1.0000
  C   C5        1.0  0.19963  0.30894  0.82495  1.0000
  C   C6        1.0  0.69981  0.19097  0.42483  1.0000
  C   C7        1.0  0.80900  0.30018  0.07516  1.0000
  C   C8        1.0  0.19098  0.69982  0.57516  1.0000
  O   O1        1.0  0.43856  0.77917  0.01411  1.0000
  O   O2        1.0  0.72080  0.93862  0.76441  1.0000
  O   O3        1.0  0.27921  0.06140  0.26440  1.0000
  O   O4        1.0  0.93868  0.72086  0.23562  1.0000
  O   O5        1.0  0.06136  0.27918  0.73562  1.0000
  O   O6        1.0  0.56141  0.22077  0.51408  1.0000
  O   O7        1.0  0.77920  0.43858  0.98592  1.0000
  O   O8        1.0  0.22079  0.56141  0.48593  1.0000
  O   O9        1.0  0.12051  0.78282  0.95249  1.0000
  O   O10       1.0  0.71734  0.62072  0.70271  1.0000
  O   O11       1.0  0.28268  0.37927  0.20269  1.0000
  O   O12       1.0  0.62078  0.71731  0.29724  1.0000
  O   O13       1.0  0.37925  0.28270  0.79727  1.0000
  O   O14       1.0  0.87945  0.21716  0.45250  1.0000
  O   O15       1.0  0.78281  0.12054  0.04751  1.0000
  O   O16       1.0  0.21719  0.87947  0.54749  1.0000
