data_image0
_chemical_formula_structural       Ag4H48C52S8N4O12
_chemical_formula_sum              "Ag4 H48 C52 S8 N4 O12"
_cell_length_a       5.17778
_cell_length_b       15.045
_cell_length_c       17.831
_cell_angle_alpha    90
_cell_angle_beta     90
_cell_angle_gamma    93.0891

_space_group_name_H-M_alt    "P 1"
_space_group_IT_number       1

loop_
  _space_group_symop_operation_xyz
  'x, y, z'

loop_
  _atom_site_type_symbol
  _atom_site_label
  _atom_site_symmetry_multiplicity
  _atom_site_fract_x
  _atom_site_fract_y
  _atom_site_fract_z
  _atom_site_occupancy
  Ag  Ag1       1.0  0.82701  0.14263  0.73348  1.0000
  Ag  Ag2       1.0  0.82701  0.64264  0.76652  1.0000
  Ag  Ag3       1.0  0.17299  0.85736  0.26652  1.0000
  Ag  Ag4       1.0  0.17299  0.35736  0.23348  1.0000
  H   H1        1.0  0.45134  0.94153  0.69869  1.0000
  H   H2        1.0  0.45134  0.44153  0.80131  1.0000
  H   H3        1.0  0.54866  0.05847  0.30131  1.0000
  H   H4        1.0  0.54866  0.55847  0.19869  1.0000
  H   H5        1.0  0.17440  0.96609  0.64469  1.0000
  H   H6        1.0  0.17441  0.46609  0.85531  1.0000
  H   H7        1.0  0.82560  0.03391  0.35531  1.0000
  H   H8        1.0  0.82560  0.53391  0.14469  1.0000
  H   H9        1.0  0.26852  0.18357  0.84913  1.0000
  H   H10       1.0  0.26849  0.68357  0.65086  1.0000
  H   H11       1.0  0.73154  0.81643  0.15085  1.0000
  H   H12       1.0  0.73147  0.31642  0.34914  1.0000
  H   H13       1.0  0.60141  0.21733  0.94721  1.0000
  H   H14       1.0  0.60141  0.71732  0.55279  1.0000
  H   H15       1.0  0.39864  0.78268  0.05278  1.0000
  H   H16       1.0  0.39857  0.28269  0.44722  1.0000
  H   H17       1.0  0.89164  0.10127  0.98806  1.0000
  H   H18       1.0  0.89163  0.60126  0.51194  1.0000
  H   H19       1.0  0.10841  0.89873  0.01193  1.0000
  H   H20       1.0  0.10839  0.39875  0.48807  1.0000
  H   H21       1.0  0.85478  0.95053  0.93041  1.0000
  H   H22       1.0  0.85478  0.45052  0.56960  1.0000
  H   H23       1.0  0.14522  0.04947  0.06959  1.0000
  H   H24       1.0  0.14526  0.54949  0.43041  1.0000
  H   H25       1.0  0.52439  0.91533  0.83224  1.0000
  H   H26       1.0  0.52438  0.41533  0.66776  1.0000
  H   H27       1.0  0.47559  0.08466  0.16777  1.0000
  H   H28       1.0  0.47563  0.58467  0.33224  1.0000
  H   H29       1.0  0.33464  0.24489  0.69826  1.0000
  H   H30       1.0  0.33464  0.74490  0.80173  1.0000
  H   H31       1.0  0.66535  0.75511  0.30174  1.0000
  H   H32       1.0  0.66533  0.25511  0.19827  1.0000
  H   H33       1.0  0.98380  0.33988  0.65599  1.0000
  H   H34       1.0  0.98379  0.83988  0.84400  1.0000
  H   H35       1.0  0.01619  0.66012  0.34401  1.0000
  H   H36       1.0  0.01617  0.16012  0.15600  1.0000
  H   H37       1.0  0.73620  0.30080  0.53895  1.0000
  H   H38       1.0  0.73620  0.80080  0.96105  1.0000
  H   H39       1.0  0.26380  0.69920  0.46105  1.0000
  H   H40       1.0  0.26379  0.19920  0.03896  1.0000
  H   H41       1.0  0.85245  0.16991  0.46283  1.0000
  H   H42       1.0  0.85247  0.66991  0.03717  1.0000
  H   H43       1.0  0.14754  0.83009  0.53717  1.0000
  H   H44       1.0  0.14754  0.33009  0.96284  1.0000
  H   H45       1.0  0.19810  0.07420  0.50595  1.0000
  H   H46       1.0  0.19813  0.57420  0.99405  1.0000
  H   H47       1.0  0.80188  0.92580  0.49405  1.0000
  H   H48       1.0  0.80189  0.42580  0.00595  1.0000
  C   C1        1.0  0.31955  0.99380  0.68439  1.0000
  C   C2        1.0  0.31955  0.49380  0.81561  1.0000
  C   C3        1.0  0.68045  0.00620  0.31561  1.0000
  C   C4        1.0  0.68044  0.50620  0.18439  1.0000
  C   C5        1.0  0.37548  0.04716  0.83490  1.0000
  C   C6        1.0  0.37547  0.54717  0.66510  1.0000
  C   C7        1.0  0.62454  0.95283  0.16510  1.0000
  C   C8        1.0  0.62453  0.45283  0.33490  1.0000
  C   C9        1.0  0.39556  0.13229  0.86715  1.0000
  C   C10       1.0  0.39555  0.63228  0.63285  1.0000
  C   C11       1.0  0.60447  0.86771  0.13285  1.0000
  C   C12       1.0  0.60442  0.36772  0.36715  1.0000
  C   C13       1.0  0.58070  0.15082  0.92288  1.0000
  C   C14       1.0  0.58070  0.65081  0.57711  1.0000
  C   C15       1.0  0.41935  0.84918  0.07711  1.0000
  C   C16       1.0  0.41930  0.34919  0.42290  1.0000
  C   C17       1.0  0.74510  0.08560  0.94568  1.0000
  C   C18       1.0  0.74511  0.58559  0.55432  1.0000
  C   C19       1.0  0.25492  0.91440  0.05432  1.0000
  C   C20       1.0  0.25492  0.41442  0.44569  1.0000
  C   C21       1.0  0.72428  0.00110  0.91321  1.0000
  C   C22       1.0  0.72428  0.50110  0.58679  1.0000
  C   C23       1.0  0.27572  0.99889  0.08679  1.0000
  C   C24       1.0  0.27573  0.49891  0.41321  1.0000
  C   C25       1.0  0.53888  0.98102  0.85824  1.0000
  C   C26       1.0  0.53887  0.48102  0.64177  1.0000
  C   C27       1.0  0.46111  0.01897  0.14177  1.0000
  C   C28       1.0  0.46113  0.51898  0.35823  1.0000
  C   C29       1.0  0.28066  0.15221  0.60615  1.0000
  C   C30       1.0  0.28066  0.65220  0.89385  1.0000
  C   C31       1.0  0.71933  0.84779  0.39385  1.0000
  C   C32       1.0  0.71932  0.34779  0.10615  1.0000
  C   C33       1.0  0.22328  0.22762  0.64801  1.0000
  C   C34       1.0  0.22327  0.72762  0.85199  1.0000
  C   C35       1.0  0.77672  0.77238  0.35200  1.0000
  C   C36       1.0  0.77670  0.27238  0.14801  1.0000
  C   C37       1.0  0.02769  0.28141  0.62320  1.0000
  C   C38       1.0  0.02769  0.78141  0.87680  1.0000
  C   C39       1.0  0.97231  0.71860  0.37680  1.0000
  C   C40       1.0  0.97228  0.21859  0.12320  1.0000
  C   C41       1.0  0.89102  0.25967  0.55753  1.0000
  C   C42       1.0  0.89103  0.75967  0.94246  1.0000
  C   C43       1.0  0.10896  0.74033  0.44246  1.0000
  C   C44       1.0  0.10896  0.24033  0.05754  1.0000
  C   C45       1.0  0.95274  0.18545  0.51531  1.0000
  C   C46       1.0  0.95274  0.68545  0.98469  1.0000
  C   C47       1.0  0.04725  0.81455  0.48469  1.0000
  C   C48       1.0  0.04726  0.31455  0.01532  1.0000
  C   C49       1.0  0.14814  0.13155  0.53931  1.0000
  C   C50       1.0  0.14815  0.63156  0.96069  1.0000
  C   C51       1.0  0.85184  0.86844  0.46069  1.0000
  C   C52       1.0  0.85185  0.36844  0.03931  1.0000
  S   S1        1.0  0.13308  0.01989  0.76675  1.0000
  S   S2        1.0  0.13308  0.51989  0.73326  1.0000
  S   S3        1.0  0.86691  0.98010  0.23326  1.0000
  S   S4        1.0  0.86691  0.48010  0.26674  1.0000
  S   S5        1.0  0.51924  0.07992  0.63755  1.0000
  S   S6        1.0  0.51925  0.57992  0.86245  1.0000
  S   S7        1.0  0.48074  0.92008  0.36245  1.0000
  S   S8        1.0  0.48074  0.42009  0.13755  1.0000
  N   N1        1.0  0.79131  0.32224  0.81421  1.0000
  N   N2        1.0  0.79129  0.82224  0.68580  1.0000
  N   N3        1.0  0.20872  0.67776  0.18580  1.0000
  N   N4        1.0  0.20869  0.17776  0.31421  1.0000
  O   O1        1.0  0.60724  0.31745  0.76751  1.0000
  O   O2        1.0  0.60724  0.81745  0.73250  1.0000
  O   O3        1.0  0.39277  0.68255  0.23250  1.0000
  O   O4        1.0  0.39274  0.18255  0.26751  1.0000
  O   O5        1.0  0.95493  0.26098  0.81480  1.0000
  O   O6        1.0  0.95491  0.76098  0.68519  1.0000
  O   O7        1.0  0.04510  0.73902  0.18519  1.0000
  O   O8        1.0  0.04508  0.23902  0.31481  1.0000
  O   O9        1.0  0.81629  0.38559  0.86008  1.0000
  O   O10       1.0  0.81625  0.88559  0.63992  1.0000
  O   O11       1.0  0.18375  0.61441  0.13992  1.0000
  O   O12       1.0  0.18371  0.11441  0.36008  1.0000
