data_image0
_chemical_formula_structural       Ca4H32C16O28
_chemical_formula_sum              "Ca4 H32 C16 O28"
_cell_length_a       6.60035
_cell_length_b       6.91682
_cell_length_c       17.5809
_cell_angle_alpha    90
_cell_angle_beta     89.9996
_cell_angle_gamma    90.0001

_space_group_name_H-M_alt    "P 1"
_space_group_IT_number       1

loop_
  _space_group_symop_operation_xyz
  'x, y, z'

loop_
  _atom_site_type_symbol
  _atom_site_label
  _atom_site_symmetry_multiplicity
  _atom_site_fract_x
  _atom_site_fract_y
  _atom_site_fract_z
  _atom_site_occupancy
  Ca  Ca1       1.0  0.43811  0.74728  0.20387  1.0000
  Ca  Ca2       1.0  0.56189  0.24728  0.79613  1.0000
  Ca  Ca3       1.0  0.06189  0.24728  0.70387  1.0000
  Ca  Ca4       1.0  0.93811  0.74728  0.29613  1.0000
  H   H1        1.0  0.25710  0.66911  0.47294  1.0000
  H   H2        1.0  0.74290  0.16910  0.52706  1.0000
  H   H3        1.0  0.24292  0.16910  0.97294  1.0000
  H   H4        1.0  0.75709  0.66910  0.02706  1.0000
  H   H5        1.0  0.72540  0.68233  0.47421  1.0000
  H   H6        1.0  0.27459  0.18233  0.52579  1.0000
  H   H7        1.0  0.77461  0.18234  0.97421  1.0000
  H   H8        1.0  0.22541  0.68233  0.02579  1.0000
  H   H9        1.0  0.55997  0.35339  0.14221  1.0000
  H   H10       1.0  0.44003  0.85339  0.85779  1.0000
  H   H11       1.0  0.94003  0.85339  0.64221  1.0000
  H   H12       1.0  0.05997  0.35339  0.35779  1.0000
  H   H13       1.0  0.56714  0.03120  0.09026  1.0000
  H   H14       1.0  0.43286  0.53119  0.90975  1.0000
  H   H15       1.0  0.93286  0.53119  0.59026  1.0000
  H   H16       1.0  0.06713  0.03119  0.40975  1.0000
  H   H17       1.0  0.73667  0.08981  0.20952  1.0000
  H   H18       1.0  0.26333  0.58981  0.79048  1.0000
  H   H19       1.0  0.76333  0.58981  0.70952  1.0000
  H   H20       1.0  0.23667  0.08981  0.29048  1.0000
  H   H21       1.0  0.31942  0.35162  0.14103  1.0000
  H   H22       1.0  0.68058  0.85162  0.85897  1.0000
  H   H23       1.0  0.18058  0.85162  0.64103  1.0000
  H   H24       1.0  0.81941  0.35162  0.35897  1.0000
  H   H25       1.0  0.32802  0.02708  0.08818  1.0000
  H   H26       1.0  0.67198  0.52708  0.91182  1.0000
  H   H27       1.0  0.17198  0.52708  0.58818  1.0000
  H   H28       1.0  0.82802  0.02708  0.41182  1.0000
  H   H29       1.0  0.64748  0.08784  0.29516  1.0000
  H   H30       1.0  0.35252  0.58784  0.70484  1.0000
  H   H31       1.0  0.85251  0.58784  0.79516  1.0000
  H   H32       1.0  0.14749  0.08784  0.20484  1.0000
  C   C1        1.0  0.43350  0.67018  0.36694  1.0000
  C   C2        1.0  0.56649  0.17017  0.63306  1.0000
  C   C3        1.0  0.06651  0.17017  0.86694  1.0000
  C   C4        1.0  0.93349  0.67017  0.13306  1.0000
  C   C5        1.0  0.41183  0.67179  0.45108  1.0000
  C   C6        1.0  0.58817  0.17179  0.54892  1.0000
  C   C7        1.0  0.08819  0.17179  0.95108  1.0000
  C   C8        1.0  0.91183  0.67178  0.04891  1.0000
  C   C9        1.0  0.57232  0.67792  0.49771  1.0000
  C   C10       1.0  0.42766  0.17792  0.50229  1.0000
  C   C11       1.0  0.92769  0.17791  0.99771  1.0000
  C   C12       1.0  0.07231  0.67792  0.00229  1.0000
  C   C13       1.0  0.55667  0.67770  0.58220  1.0000
  C   C14       1.0  0.44332  0.17770  0.41779  1.0000
  C   C15       1.0  0.94333  0.17771  0.08221  1.0000
  C   C16       1.0  0.05667  0.67770  0.91779  1.0000
  O   O1        1.0  0.27215  0.66627  0.32701  1.0000
  O   O2        1.0  0.72784  0.16627  0.67299  1.0000
  O   O3        1.0  0.22784  0.16627  0.82701  1.0000
  O   O4        1.0  0.77216  0.66627  0.17299  1.0000
  O   O5        1.0  0.60711  0.67489  0.33600  1.0000
  O   O6        1.0  0.39289  0.17489  0.66400  1.0000
  O   O7        1.0  0.89289  0.17489  0.83600  1.0000
  O   O8        1.0  0.10711  0.67489  0.16400  1.0000
  O   O9        1.0  0.72412  0.67673  0.61889  1.0000
  O   O10       1.0  0.27588  0.17673  0.38111  1.0000
  O   O11       1.0  0.77589  0.17674  0.11889  1.0000
  O   O12       1.0  0.22411  0.67673  0.88111  1.0000
  O   O13       1.0  0.38289  0.67542  0.61400  1.0000
  O   O14       1.0  0.61711  0.17542  0.38600  1.0000
  O   O15       1.0  0.11711  0.17542  0.11400  1.0000
  O   O16       1.0  0.88289  0.67542  0.88600  1.0000
  O   O17       1.0  0.43862  0.42132  0.16006  1.0000
  O   O18       1.0  0.56138  0.92132  0.83994  1.0000
  O   O19       1.0  0.06138  0.92132  0.66006  1.0000
  O   O20       1.0  0.93862  0.42132  0.33994  1.0000
  O   O21       1.0  0.44910  0.94244  0.08960  1.0000
  O   O22       1.0  0.55091  0.44244  0.91040  1.0000
  O   O23       1.0  0.05091  0.44244  0.58960  1.0000
  O   O24       1.0  0.94909  0.94244  0.41040  1.0000
  O   O25       1.0  0.68889  0.00472  0.25153  1.0000
  O   O26       1.0  0.31112  0.50472  0.74847  1.0000
  O   O27       1.0  0.81111  0.50471  0.75153  1.0000
  O   O28       1.0  0.18889  0.00471  0.24847  1.0000
