data_image0
_chemical_formula_structural       Cd4H28C44N16O8
_chemical_formula_sum              "Cd4 H28 C44 N16 O8"
_cell_length_a       8.47077
_cell_length_b       10.1799
_cell_length_c       12.5399
_cell_angle_alpha    90
_cell_angle_beta     97.3607
_cell_angle_gamma    90

_space_group_name_H-M_alt    "P 1"
_space_group_IT_number       1

loop_
  _space_group_symop_operation_xyz
  'x, y, z'

loop_
  _atom_site_type_symbol
  _atom_site_label
  _atom_site_symmetry_multiplicity
  _atom_site_fract_x
  _atom_site_fract_y
  _atom_site_fract_z
  _atom_site_occupancy
  Cd  Cd1       1.0  0.76716  0.67720  0.82378  1.0000
  Cd  Cd2       1.0  0.73284  0.17720  0.17622  1.0000
  Cd  Cd3       1.0  0.23284  0.32280  0.17622  1.0000
  Cd  Cd4       1.0  0.26716  0.82280  0.82378  1.0000
  H   H1        1.0  0.61844  0.49653  0.06656  1.0000
  H   H2        1.0  0.88157  0.99653  0.93344  1.0000
  H   H3        1.0  0.38157  0.50347  0.93344  1.0000
  H   H4        1.0  0.11843  0.00347  0.06656  1.0000
  H   H5        1.0  0.11153  0.23824  0.87562  1.0000
  H   H6        1.0  0.38847  0.73824  0.12438  1.0000
  H   H7        1.0  0.88847  0.76176  0.12438  1.0000
  H   H8        1.0  0.61153  0.26176  0.87562  1.0000
  H   H9        1.0  0.98016  0.60083  0.62079  1.0000
  H   H10       1.0  0.51984  0.10083  0.37921  1.0000
  H   H11       1.0  0.01984  0.39917  0.37921  1.0000
  H   H12       1.0  0.48016  0.89917  0.62079  1.0000
  H   H13       1.0  0.12924  0.03990  0.68637  1.0000
  H   H14       1.0  0.37076  0.53990  0.31363  1.0000
  H   H15       1.0  0.87076  0.96010  0.31363  1.0000
  H   H16       1.0  0.62924  0.46010  0.68637  1.0000
  H   H17       1.0  0.25806  0.25501  0.71350  1.0000
  H   H18       1.0  0.24194  0.75501  0.28650  1.0000
  H   H19       1.0  0.74194  0.74499  0.28650  1.0000
  H   H20       1.0  0.75806  0.24499  0.71350  1.0000
  H   H21       1.0  0.20647  0.17362  0.53284  1.0000
  H   H22       1.0  0.29353  0.67362  0.46716  1.0000
  H   H23       1.0  0.79354  0.82638  0.46716  1.0000
  H   H24       1.0  0.70647  0.32638  0.53284  1.0000
  H   H25       1.0  0.18343  0.43618  0.58032  1.0000
  H   H26       1.0  0.31658  0.93617  0.41968  1.0000
  H   H27       1.0  0.81657  0.56383  0.41968  1.0000
  H   H28       1.0  0.68343  0.06382  0.58032  1.0000
  C   C1        1.0  0.71017  0.44972  0.02704  1.0000
  C   C2        1.0  0.78984  0.94972  0.97296  1.0000
  C   C3        1.0  0.28983  0.55028  0.97296  1.0000
  C   C4        1.0  0.21016  0.05028  0.02704  1.0000
  C   C5        1.0  0.88090  0.40438  0.92262  1.0000
  C   C6        1.0  0.61911  0.90438  0.07738  1.0000
  C   C7        1.0  0.11910  0.59562  0.07738  1.0000
  C   C8        1.0  0.38089  0.09562  0.92262  1.0000
  C   C9        1.0  0.08687  0.31609  0.81652  1.0000
  C   C10       1.0  0.41314  0.81609  0.18348  1.0000
  C   C11       1.0  0.91314  0.68391  0.18348  1.0000
  C   C12       1.0  0.58686  0.18391  0.81652  1.0000
  C   C13       1.0  0.90955  0.84417  0.67619  1.0000
  C   C14       1.0  0.59045  0.34417  0.32381  1.0000
  C   C15       1.0  0.09045  0.15583  0.32382  1.0000
  C   C16       1.0  0.40955  0.65583  0.67618  1.0000
  C   C17       1.0  0.01244  0.51846  0.67455  1.0000
  C   C18       1.0  0.48756  0.01845  0.32545  1.0000
  C   C19       1.0  0.98756  0.48154  0.32545  1.0000
  C   C20       1.0  0.51244  0.98154  0.67455  1.0000
  C   C21       1.0  0.07363  0.02258  0.60442  1.0000
  C   C22       1.0  0.42637  0.52258  0.39558  1.0000
  C   C23       1.0  0.92637  0.97742  0.39558  1.0000
  C   C24       1.0  0.57363  0.47742  0.60442  1.0000
  C   C25       1.0  0.16566  0.32552  0.72629  1.0000
  C   C26       1.0  0.33434  0.82552  0.27371  1.0000
  C   C27       1.0  0.83434  0.67448  0.27371  1.0000
  C   C28       1.0  0.66566  0.17447  0.72629  1.0000
  C   C29       1.0  0.95793  0.92416  0.58541  1.0000
  C   C30       1.0  0.54206  0.42416  0.41459  1.0000
  C   C31       1.0  0.04206  0.07584  0.41459  1.0000
  C   C32       1.0  0.45793  0.57584  0.58541  1.0000
  C   C33       1.0  0.97232  0.41101  0.83201  1.0000
  C   C34       1.0  0.52768  0.91101  0.16799  1.0000
  C   C35       1.0  0.02768  0.58899  0.16799  1.0000
  C   C36       1.0  0.47232  0.08899  0.83201  1.0000
  C   C37       1.0  0.11568  0.09756  0.51976  1.0000
  C   C38       1.0  0.38432  0.59756  0.48024  1.0000
  C   C39       1.0  0.88432  0.90244  0.48024  1.0000
  C   C40       1.0  0.61568  0.40244  0.51976  1.0000
  C   C41       1.0  0.12569  0.42664  0.65259  1.0000
  C   C42       1.0  0.37431  0.92663  0.34741  1.0000
  C   C43       1.0  0.87431  0.57337  0.34741  1.0000
  C   C44       1.0  0.62569  0.07337  0.65259  1.0000
  N   N1        1.0  0.78066  0.33603  0.06064  1.0000
  N   N2        1.0  0.71934  0.83603  0.93936  1.0000
  N   N3        1.0  0.21934  0.66397  0.93936  1.0000
  N   N4        1.0  0.28066  0.16397  0.06064  1.0000
  N   N5        1.0  0.89121  0.30619  0.99412  1.0000
  N   N6        1.0  0.60879  0.80619  0.00587  1.0000
  N   N7        1.0  0.10879  0.69381  0.00588  1.0000
  N   N8        1.0  0.39121  0.19381  0.99413  1.0000
  N   N9        1.0  0.93828  0.51188  0.76275  1.0000
  N   N10       1.0  0.56172  0.01188  0.23725  1.0000
  N   N11       1.0  0.06172  0.48812  0.23725  1.0000
  N   N12       1.0  0.43828  0.98812  0.76275  1.0000
  N   N13       1.0  0.76962  0.49635  0.93988  1.0000
  N   N14       1.0  0.73039  0.99635  0.06011  1.0000
  N   N15       1.0  0.23038  0.50365  0.06011  1.0000
  N   N16       1.0  0.26961  0.00365  0.93989  1.0000
  O   O1        1.0  0.99214  0.84841  0.76886  1.0000
  O   O2        1.0  0.50786  0.34841  0.23114  1.0000
  O   O3        1.0  0.00786  0.15159  0.23114  1.0000
  O   O4        1.0  0.49214  0.65159  0.76886  1.0000
  O   O5        1.0  0.78354  0.77496  0.65714  1.0000
  O   O6        1.0  0.71646  0.27496  0.34286  1.0000
  O   O7        1.0  0.21646  0.22504  0.34286  1.0000
  O   O8        1.0  0.28354  0.72504  0.65714  1.0000
