data_image0
_chemical_formula_structural       Na2P4H76C46N2O12
_chemical_formula_sum              "Na2 P4 H76 C46 N2 O12"
_cell_length_a       8.15457
_cell_length_b       12.0868
_cell_length_c       14.6767
_cell_angle_alpha    90
_cell_angle_beta     90
_cell_angle_gamma    106.049

_space_group_name_H-M_alt    "P 1"
_space_group_IT_number       1

loop_
  _space_group_symop_operation_xyz
  'x, y, z'

loop_
  _atom_site_type_symbol
  _atom_site_label
  _atom_site_symmetry_multiplicity
  _atom_site_fract_x
  _atom_site_fract_y
  _atom_site_fract_z
  _atom_site_occupancy
  Na  Na1       1.0  0.70941  0.37590  0.37995  1.0000
  Na  Na2       1.0  0.29059  0.62410  0.87994  1.0000
  P   P1        1.0  0.49782  0.45393  0.66052  1.0000
  P   P2        1.0  0.50217  0.54607  0.16052  1.0000
  P   P3        1.0  0.65646  0.67457  0.58855  1.0000
  P   P4        1.0  0.34354  0.32543  0.08855  1.0000
  H   H1        1.0  0.16336  0.04506  0.60014  1.0000
  H   H2        1.0  0.83664  0.95494  0.10014  1.0000
  H   H3        1.0  0.12523  0.09957  0.76044  1.0000
  H   H4        1.0  0.87477  0.90043  0.26044  1.0000
  H   H5        1.0  0.83263  0.05156  0.82745  1.0000
  H   H6        1.0  0.16737  0.94845  0.32745  1.0000
  H   H7        1.0  0.09063  0.59828  0.21800  1.0000
  H   H8        1.0  0.90937  0.40172  0.71800  1.0000
  H   H9        1.0  0.87457  0.51891  0.19402  1.0000
  H   H10       1.0  0.12543  0.48110  0.69401  1.0000
  H   H11       1.0  0.28556  0.56663  0.54477  1.0000
  H   H12       1.0  0.71444  0.43337  0.04477  1.0000
  H   H13       1.0  0.12678  0.61737  0.48875  1.0000
  H   H14       1.0  0.87323  0.38263  0.98875  1.0000
  H   H15       1.0  0.21006  0.67573  0.59641  1.0000
  H   H16       1.0  0.78993  0.32427  0.09641  1.0000
  H   H17       1.0  0.47452  0.84553  0.75188  1.0000
  H   H18       1.0  0.52548  0.15447  0.25188  1.0000
  H   H19       1.0  0.44746  0.97099  0.70005  1.0000
  H   H20       1.0  0.55254  0.02901  0.20005  1.0000
  H   H21       1.0  0.52975  0.97720  0.81352  1.0000
  H   H22       1.0  0.47025  0.02280  0.31352  1.0000
  H   H23       1.0  0.04419  0.97922  0.45462  1.0000
  H   H24       1.0  0.95580  0.02077  0.95462  1.0000
  H   H25       1.0  0.82027  0.95128  0.43693  1.0000
  H   H26       1.0  0.17972  0.04872  0.93692  1.0000
  H   H27       1.0  0.90585  0.83902  0.47223  1.0000
  H   H28       1.0  0.09415  0.16098  0.97223  1.0000
  H   H29       1.0  0.26730  0.87260  0.52298  1.0000
  H   H30       1.0  0.73269  0.12740  0.02298  1.0000
  H   H31       1.0  0.19865  0.80933  0.41490  1.0000
  H   H32       1.0  0.80135  0.19066  0.91491  1.0000
  H   H33       1.0  0.40474  0.90898  0.42745  1.0000
  H   H34       1.0  0.59526  0.09102  0.92745  1.0000
  H   H35       1.0  0.33698  0.26086  0.49087  1.0000
  H   H36       1.0  0.66302  0.73914  0.99087  1.0000
  H   H37       1.0  0.28318  0.10942  0.46592  1.0000
  H   H38       1.0  0.71682  0.89058  0.96592  1.0000
  H   H39       1.0  0.33357  0.21284  0.37485  1.0000
  H   H40       1.0  0.66643  0.78716  0.87485  1.0000
  H   H41       1.0  0.05475  0.21469  0.29643  1.0000
  H   H42       1.0  0.94525  0.78531  0.79643  1.0000
  H   H43       1.0  0.94769  0.19600  0.18915  1.0000
  H   H44       1.0  0.05231  0.80400  0.68915  1.0000
  H   H45       1.0  0.82835  0.15010  0.29172  1.0000
  H   H46       1.0  0.17165  0.84990  0.79172  1.0000
  H   H47       1.0  0.53201  0.09976  0.56530  1.0000
  H   H48       1.0  0.46799  0.90024  0.06529  1.0000
  H   H49       1.0  0.56104  0.25117  0.58451  1.0000
  H   H50       1.0  0.43896  0.74882  0.08451  1.0000
  H   H51       1.0  0.07713  0.40093  0.17247  1.0000
  H   H52       1.0  0.92287  0.59907  0.67247  1.0000
  H   H53       1.0  0.14959  0.42666  0.28726  1.0000
  H   H54       1.0  0.85042  0.57333  0.78725  1.0000
  H   H55       1.0  0.52523  0.75677  0.35376  1.0000
  H   H56       1.0  0.47477  0.24323  0.85376  1.0000
  H   H57       1.0  0.31848  0.65847  0.34761  1.0000
  H   H58       1.0  0.68153  0.34153  0.84761  1.0000
  H   H59       1.0  0.48589  0.61674  0.40247  1.0000
  H   H60       1.0  0.51412  0.38326  0.90247  1.0000
  H   H61       1.0  0.06915  0.26971  0.45018  1.0000
  H   H62       1.0  0.93084  0.73028  0.95017  1.0000
  H   H63       1.0  0.10781  0.33110  0.56208  1.0000
  H   H64       1.0  0.89219  0.66890  0.06207  1.0000
  H   H65       1.0  0.09796  0.42096  0.46590  1.0000
  H   H66       1.0  0.90204  0.57903  0.96589  1.0000
  H   H67       1.0  0.82980  0.19047  0.60668  1.0000
  H   H68       1.0  0.17020  0.80952  0.10668  1.0000
  H   H69       1.0  0.81646  0.14235  0.49125  1.0000
  H   H70       1.0  0.18354  0.85765  0.99124  1.0000
  H   H71       1.0  0.77424  0.64958  0.29022  1.0000
  H   H72       1.0  0.22576  0.35040  0.79021  1.0000
  H   H73       1.0  0.99053  0.72683  0.31631  1.0000
  H   H74       1.0  0.00947  0.27317  0.81630  1.0000
  H   H75       1.0  0.84531  0.66253  0.40652  1.0000
  H   H76       1.0  0.15470  0.33747  0.90651  1.0000
  C   C1        1.0  0.53648  0.77484  0.54256  1.0000
  C   C2        1.0  0.46352  0.22516  0.04256  1.0000
  C   C3        1.0  0.38017  0.73649  0.48116  1.0000
  C   C4        1.0  0.61983  0.26351  0.98116  1.0000
  C   C5        1.0  0.57176  0.51920  0.55189  1.0000
  C   C6        1.0  0.42823  0.48079  0.05189  1.0000
  C   C7        1.0  0.03636  0.02159  0.63063  1.0000
  C   C8        1.0  0.96364  0.97841  0.13063  1.0000
  C   C9        1.0  0.01511  0.05284  0.72045  1.0000
  C   C10       1.0  0.98489  0.94716  0.22046  1.0000
  C   C11       1.0  0.53112  0.60325  0.69259  1.0000
  C   C12       1.0  0.46888  0.39675  0.19259  1.0000
  C   C13       1.0  0.85148  0.02545  0.75812  1.0000
  C   C14       1.0  0.14851  0.97456  0.25812  1.0000
  C   C15       1.0  0.89720  0.96123  0.57803  1.0000
  C   C16       1.0  0.10280  0.03877  0.07803  1.0000
  C   C17       1.0  0.98259  0.52655  0.24137  1.0000
  C   C18       1.0  0.01742  0.47345  0.74137  1.0000
  C   C19       1.0  0.24250  0.64317  0.53089  1.0000
  C   C20       1.0  0.75750  0.35683  0.03089  1.0000
  C   C21       1.0  0.53109  0.93900  0.74593  1.0000
  C   C22       1.0  0.46891  0.06101  0.24593  1.0000
  C   C23       1.0  0.91850  0.93153  0.48036  1.0000
  C   C24       1.0  0.08149  0.06847  0.98036  1.0000
  C   C25       1.0  0.30892  0.83842  0.46046  1.0000
  C   C26       1.0  0.69107  0.16158  0.96046  1.0000
  C   C27       1.0  0.36304  0.19522  0.44531  1.0000
  C   C28       1.0  0.63697  0.80478  0.94531  1.0000
  C   C29       1.0  0.93519  0.21572  0.26165  1.0000
  C   C30       1.0  0.06481  0.78428  0.76165  1.0000
  C   C31       1.0  0.70861  0.96599  0.70801  1.0000
  C   C32       1.0  0.29140  0.03402  0.20801  1.0000
  C   C33       1.0  0.59446  0.18719  0.53948  1.0000
  C   C34       1.0  0.40554  0.81281  0.03948  1.0000
  C   C35       1.0  0.03813  0.41761  0.24205  1.0000
  C   C36       1.0  0.96187  0.58240  0.74205  1.0000
  C   C37       1.0  0.73329  0.93118  0.61834  1.0000
  C   C38       1.0  0.26670  0.06882  0.11834  1.0000
  C   C39       1.0  0.43151  0.68914  0.39130  1.0000
  C   C40       1.0  0.56849  0.31086  0.89130  1.0000
  C   C41       1.0  0.04494  0.33577  0.49606  1.0000
  C   C42       1.0  0.95506  0.66423  0.99605  1.0000
  C   C43       1.0  0.78441  0.20498  0.53798  1.0000
  C   C44       1.0  0.21559  0.79502  0.03798  1.0000
  C   C45       1.0  0.88303  0.65285  0.33590  1.0000
  C   C46       1.0  0.11698  0.34715  0.83589  1.0000
  N   N1        1.0  0.58852  0.88106  0.56581  1.0000
  N   N2        1.0  0.41148  0.11894  0.06581  1.0000
  O   O1        1.0  0.93184  0.54819  0.33169  1.0000
  O   O2        1.0  0.06818  0.45182  0.83168  1.0000
  O   O3        1.0  0.58032  0.47666  0.47581  1.0000
  O   O4        1.0  0.41966  0.52334  0.97582  1.0000
  O   O5        1.0  0.49229  0.64869  0.76154  1.0000
  O   O6        1.0  0.50771  0.35131  0.26154  1.0000
  O   O7        1.0  0.53938  0.19972  0.44839  1.0000
  O   O8        1.0  0.46063  0.80029  0.94838  1.0000
  O   O9        1.0  0.89931  0.32413  0.27239  1.0000
  O   O10       1.0  0.10069  0.67587  0.77239  1.0000
  O   O11       1.0  0.86615  0.31937  0.50715  1.0000
  O   O12       1.0  0.13385  0.68063  0.00715  1.0000
