data_image0
_chemical_formula_structural       Ca2H44C24O24
_chemical_formula_sum              "Ca2 H44 C24 O24"
_cell_length_a       5.74065
_cell_length_b       6.81932
_cell_length_c       19.3104
_cell_angle_alpha    90.0003
_cell_angle_beta     90.0006
_cell_angle_gamma    89.9997

_space_group_name_H-M_alt    "P 1"
_space_group_IT_number       1

loop_
  _space_group_symop_operation_xyz
  'x, y, z'

loop_
  _atom_site_type_symbol
  _atom_site_label
  _atom_site_symmetry_multiplicity
  _atom_site_fract_x
  _atom_site_fract_y
  _atom_site_fract_z
  _atom_site_occupancy
  Ca  Ca1       1.0  0.27706  0.00001  1.00000  1.0000
  Ca  Ca2       1.0  0.72294  0.50000  0.50000  1.0000
  H   H1        1.0  0.55434  0.80189  0.12412  1.0000
  H   H2        1.0  0.55433  0.19811  0.87587  1.0000
  H   H3        1.0  0.44567  0.30189  0.37588  1.0000
  H   H4        1.0  0.44567  0.69811  0.62412  1.0000
  H   H5        1.0  0.18961  0.16579  0.13886  1.0000
  H   H6        1.0  0.18961  0.83422  0.86114  1.0000
  H   H7        1.0  0.81038  0.66579  0.36114  1.0000
  H   H8        1.0  0.81039  0.33421  0.63886  1.0000
  H   H9        1.0  0.73737  0.22171  0.00315  1.0000
  H   H10       1.0  0.73737  0.77831  0.99685  1.0000
  H   H11       1.0  0.26263  0.72170  0.49685  1.0000
  H   H12       1.0  0.26263  0.27830  0.50315  1.0000
  H   H13       1.0  0.19342  0.11436  0.26429  1.0000
  H   H14       1.0  0.19344  0.88563  0.73572  1.0000
  H   H15       1.0  0.80658  0.61436  0.23571  1.0000
  H   H16       1.0  0.80657  0.38563  0.76428  1.0000
  H   H17       1.0  0.43792  0.51491  0.19583  1.0000
  H   H18       1.0  0.43793  0.48510  0.80417  1.0000
  H   H19       1.0  0.56208  0.01491  0.30417  1.0000
  H   H20       1.0  0.56209  0.98509  0.69583  1.0000
  H   H21       1.0  0.13937  0.45923  0.19277  1.0000
  H   H22       1.0  0.13937  0.54078  0.80723  1.0000
  H   H23       1.0  0.86064  0.95923  0.30723  1.0000
  H   H24       1.0  0.86064  0.04077  0.69277  1.0000
  H   H25       1.0  0.26169  0.49628  0.05121  1.0000
  H   H26       1.0  0.26169  0.50373  0.94879  1.0000
  H   H27       1.0  0.73830  0.99628  0.44879  1.0000
  H   H28       1.0  0.73830  0.00372  0.55121  1.0000
  H   H29       1.0  0.67706  0.48230  0.07671  1.0000
  H   H30       1.0  0.67706  0.51770  0.92329  1.0000
  H   H31       1.0  0.32294  0.98230  0.42329  1.0000
  H   H32       1.0  0.32294  0.01770  0.57671  1.0000
  H   H33       1.0  0.63867  0.27443  0.13186  1.0000
  H   H34       1.0  0.63866  0.72557  0.86814  1.0000
  H   H35       1.0  0.36134  0.77443  0.36814  1.0000
  H   H36       1.0  0.36133  0.22557  0.63186  1.0000
  H   H37       1.0  0.11927  0.77654  0.26018  1.0000
  H   H38       1.0  0.11928  0.22346  0.73981  1.0000
  H   H39       1.0  0.88073  0.27653  0.23982  1.0000
  H   H40       1.0  0.88072  0.72345  0.76019  1.0000
  H   H41       1.0  0.42099  0.81616  0.24424  1.0000
  H   H42       1.0  0.42101  0.18384  0.75576  1.0000
  H   H43       1.0  0.57901  0.31616  0.25577  1.0000
  H   H44       1.0  0.57900  0.68384  0.74423  1.0000
  C   C1        1.0  0.98430  0.76954  0.12073  1.0000
  C   C2        1.0  0.98434  0.23046  0.87926  1.0000
  C   C3        1.0  0.01568  0.26954  0.37928  1.0000
  C   C4        1.0  0.01566  0.73046  0.62074  1.0000
  C   C5        1.0  0.22920  0.74554  0.15333  1.0000
  C   C6        1.0  0.22919  0.25445  0.84667  1.0000
  C   C7        1.0  0.77081  0.24554  0.34667  1.0000
  C   C8        1.0  0.77082  0.75446  0.65333  1.0000
  C   C9        1.0  0.28205  0.52539  0.16309  1.0000
  C   C10       1.0  0.28205  0.47462  0.83691  1.0000
  C   C11       1.0  0.71795  0.02539  0.33691  1.0000
  C   C12       1.0  0.71795  0.97461  0.66309  1.0000
  C   C13       1.0  0.31738  0.40803  0.09582  1.0000
  C   C14       1.0  0.31737  0.59197  0.90418  1.0000
  C   C15       1.0  0.68262  0.90803  0.40418  1.0000
  C   C16       1.0  0.68262  0.09197  0.59582  1.0000
  C   C17       1.0  0.57231  0.34979  0.08529  1.0000
  C   C18       1.0  0.57231  0.65021  0.91471  1.0000
  C   C19       1.0  0.42768  0.84979  0.41471  1.0000
  C   C20       1.0  0.42769  0.15021  0.58529  1.0000
  C   C21       1.0  0.24421  0.84459  0.22431  1.0000
  C   C22       1.0  0.24423  0.15541  0.77569  1.0000
  C   C23       1.0  0.75579  0.34459  0.27569  1.0000
  C   C24       1.0  0.75577  0.65541  0.72431  1.0000
  O   O1        1.0  0.97167  0.81734  0.05735  1.0000
  O   O2        1.0  0.97165  0.18267  0.94265  1.0000
  O   O3        1.0  0.02833  0.31734  0.44266  1.0000
  O   O4        1.0  0.02835  0.68264  0.55734  1.0000
  O   O5        1.0  0.80900  0.73430  0.15924  1.0000
  O   O6        1.0  0.80897  0.26569  0.84075  1.0000
  O   O7        1.0  0.19101  0.23431  0.34076  1.0000
  O   O8        1.0  0.19103  0.76569  0.65925  1.0000
  O   O9        1.0  0.39276  0.83394  0.10742  1.0000
  O   O10       1.0  0.39277  0.16607  0.89258  1.0000
  O   O11       1.0  0.60724  0.33394  0.39258  1.0000
  O   O12       1.0  0.60724  0.66607  0.60741  1.0000
  O   O13       1.0  0.17105  0.23619  0.09395  1.0000
  O   O14       1.0  0.17104  0.76382  0.90605  1.0000
  O   O15       1.0  0.82895  0.73618  0.40606  1.0000
  O   O16       1.0  0.82896  0.26382  0.59395  1.0000
  O   O17       1.0  0.58443  0.22163  0.02692  1.0000
  O   O18       1.0  0.58442  0.77837  0.97308  1.0000
  O   O19       1.0  0.41557  0.72163  0.47308  1.0000
  O   O20       1.0  0.41557  0.27836  0.52693  1.0000
  O   O21       1.0  0.20315  0.05006  0.21771  1.0000
  O   O22       1.0  0.20318  0.94994  0.78228  1.0000
  O   O23       1.0  0.79684  0.55005  0.28229  1.0000
  O   O24       1.0  0.79683  0.44994  0.71771  1.0000
