data_image0
_chemical_formula_structural       Mo4H28C28N4O16
_chemical_formula_sum              "Mo4 H28 C28 N4 O16"
_cell_length_a       7.40158
_cell_length_b       8.30769
_cell_length_c       14.0514
_cell_angle_alpha    90.0002
_cell_angle_beta     90.0004
_cell_angle_gamma    113.972

_space_group_name_H-M_alt    "P 1"
_space_group_IT_number       1

loop_
  _space_group_symop_operation_xyz
  'x, y, z'

loop_
  _atom_site_type_symbol
  _atom_site_label
  _atom_site_symmetry_multiplicity
  _atom_site_fract_x
  _atom_site_fract_y
  _atom_site_fract_z
  _atom_site_occupancy
  Mo  Mo1       1.0  0.76338  0.09606  0.74761  1.0000
  Mo  Mo2       1.0  0.23662  0.40393  0.24761  1.0000
  Mo  Mo3       1.0  0.23663  0.90393  0.25239  1.0000
  Mo  Mo4       1.0  0.76338  0.59606  0.75239  1.0000
  H   H1        1.0  0.08282  0.02812  0.60685  1.0000
  H   H2        1.0  0.91717  0.47188  0.10685  1.0000
  H   H3        1.0  0.91718  0.97188  0.39316  1.0000
  H   H4        1.0  0.08282  0.52812  0.89315  1.0000
  H   H5        1.0  0.92222  0.25533  0.49836  1.0000
  H   H6        1.0  0.07777  0.24467  0.99836  1.0000
  H   H7        1.0  0.07778  0.74467  0.50164  1.0000
  H   H8        1.0  0.92223  0.75533  0.00164  1.0000
  H   H9        1.0  0.93051  0.44093  0.56563  1.0000
  H   H10       1.0  0.06948  0.05907  0.06563  1.0000
  H   H11       1.0  0.06949  0.55907  0.43437  1.0000
  H   H12       1.0  0.93052  0.94093  0.93437  1.0000
  H   H13       1.0  0.58433  0.33500  0.43065  1.0000
  H   H14       1.0  0.41566  0.16500  0.93064  1.0000
  H   H15       1.0  0.41567  0.66501  0.56936  1.0000
  H   H16       1.0  0.58434  0.83500  0.06936  1.0000
  H   H17       1.0  0.22071  0.00785  0.79426  1.0000
  H   H18       1.0  0.77929  0.49215  0.29426  1.0000
  H   H19       1.0  0.77929  0.99215  0.20575  1.0000
  H   H20       1.0  0.22071  0.50785  0.70574  1.0000
  H   H21       1.0  0.25263  0.82909  0.74088  1.0000
  H   H22       1.0  0.74737  0.67090  0.24088  1.0000
  H   H23       1.0  0.74737  0.17091  0.25912  1.0000
  H   H24       1.0  0.25264  0.32910  0.75911  1.0000
  H   H25       1.0  0.22369  0.20379  0.45738  1.0000
  H   H26       1.0  0.77630  0.29620  0.95737  1.0000
  H   H27       1.0  0.77631  0.79621  0.54263  1.0000
  H   H28       1.0  0.22369  0.70379  0.04262  1.0000
  C   C1        1.0  0.24082  0.08491  0.59251  1.0000
  C   C2        1.0  0.75918  0.41508  0.09251  1.0000
  C   C3        1.0  0.75918  0.91509  0.40749  1.0000
  C   C4        1.0  0.24082  0.58492  0.90749  1.0000
  C   C5        1.0  0.64557  0.22862  0.56198  1.0000
  C   C6        1.0  0.35442  0.27138  0.06199  1.0000
  C   C7        1.0  0.35442  0.77138  0.43802  1.0000
  C   C8        1.0  0.64558  0.72862  0.93801  1.0000
  C   C9        1.0  0.86695  0.29582  0.56300  1.0000
  C   C10       1.0  0.13304  0.20418  0.06300  1.0000
  C   C11       1.0  0.13305  0.70419  0.43700  1.0000
  C   C12       1.0  0.86695  0.79582  0.93700  1.0000
  C   C13       1.0  0.37124  0.06563  0.65821  1.0000
  C   C14       1.0  0.62875  0.43437  0.15821  1.0000
  C   C15       1.0  0.62876  0.93437  0.34179  1.0000
  C   C16       1.0  0.37125  0.56563  0.84179  1.0000
  C   C17       1.0  0.52420  0.25638  0.49418  1.0000
  C   C18       1.0  0.47579  0.24361  0.99418  1.0000
  C   C19       1.0  0.47580  0.74362  0.50582  1.0000
  C   C20       1.0  0.52420  0.75639  0.00582  1.0000
  C   C21       1.0  0.32576  0.97284  0.75261  1.0000
  C   C22       1.0  0.67423  0.52716  0.25261  1.0000
  C   C23       1.0  0.67424  0.02716  0.24739  1.0000
  C   C24       1.0  0.32576  0.47284  0.74739  1.0000
  C   C25       1.0  0.32006  0.18266  0.51012  1.0000
  C   C26       1.0  0.67994  0.31734  0.01012  1.0000
  C   C27       1.0  0.67994  0.81734  0.48989  1.0000
  C   C28       1.0  0.32007  0.68266  0.98988  1.0000
  N   N1        1.0  0.56600  0.13502  0.64060  1.0000
  N   N2        1.0  0.43399  0.36497  0.14060  1.0000
  N   N3        1.0  0.43400  0.86498  0.35940  1.0000
  N   N4        1.0  0.56601  0.63503  0.85940  1.0000
  O   O1        1.0  0.50371  0.01594  0.80466  1.0000
  O   O2        1.0  0.49630  0.48406  0.30466  1.0000
  O   O3        1.0  0.49630  0.98406  0.19534  1.0000
  O   O4        1.0  0.50371  0.51594  0.69534  1.0000
  O   O5        1.0  0.92807  0.23287  0.64529  1.0000
  O   O6        1.0  0.07193  0.26713  0.14529  1.0000
  O   O7        1.0  0.07193  0.76713  0.35471  1.0000
  O   O8        1.0  0.92807  0.73287  0.85471  1.0000
  O   O9        1.0  0.92013  0.16707  0.84521  1.0000
  O   O10       1.0  0.07987  0.33292  0.34521  1.0000
  O   O11       1.0  0.07987  0.83293  0.15479  1.0000
  O   O12       1.0  0.92014  0.66707  0.65479  1.0000
  O   O13       1.0  0.75778  0.89104  0.71776  1.0000
  O   O14       1.0  0.24222  0.60896  0.21776  1.0000
  O   O15       1.0  0.24223  0.10897  0.28224  1.0000
  O   O16       1.0  0.75778  0.39103  0.78224  1.0000
