data_image0
_chemical_formula_structural       Cu8H48C64N8O16
_chemical_formula_sum              "Cu8 H48 C64 N8 O16"
_cell_length_a       5.21817
_cell_length_b       15.3172
_cell_length_c       20.149
_cell_angle_alpha    90
_cell_angle_beta     90
_cell_angle_gamma    90

_space_group_name_H-M_alt    "P 1"
_space_group_IT_number       1

loop_
  _space_group_symop_operation_xyz
  'x, y, z'

loop_
  _atom_site_type_symbol
  _atom_site_label
  _atom_site_symmetry_multiplicity
  _atom_site_fract_x
  _atom_site_fract_y
  _atom_site_fract_z
  _atom_site_occupancy
  Cu  Cu1       1.0  0.20517  0.61945  0.48230  1.0000
  Cu  Cu2       1.0  0.29482  0.11945  0.01770  1.0000
  Cu  Cu3       1.0  0.29483  0.38055  0.98231  1.0000
  Cu  Cu4       1.0  0.20517  0.88055  0.51769  1.0000
  Cu  Cu5       1.0  0.79483  0.38056  0.51769  1.0000
  Cu  Cu6       1.0  0.70517  0.88055  0.98231  1.0000
  Cu  Cu7       1.0  0.70518  0.61945  0.01770  1.0000
  Cu  Cu8       1.0  0.79482  0.11945  0.48230  1.0000
  H   H1        1.0  0.48221  0.72646  0.54909  1.0000
  H   H2        1.0  0.01779  0.22646  0.95091  1.0000
  H   H3        1.0  0.01780  0.27354  0.04911  1.0000
  H   H4        1.0  0.48221  0.77354  0.45090  1.0000
  H   H5        1.0  0.51780  0.27354  0.45089  1.0000
  H   H6        1.0  0.98220  0.77354  0.04910  1.0000
  H   H7        1.0  0.98221  0.72646  0.95091  1.0000
  H   H8        1.0  0.51779  0.22646  0.54909  1.0000
  H   H9        1.0  0.26973  0.54673  0.59488  1.0000
  H   H10       1.0  0.23027  0.04673  0.90512  1.0000
  H   H11       1.0  0.23027  0.45327  0.09490  1.0000
  H   H12       1.0  0.26973  0.95327  0.40511  1.0000
  H   H13       1.0  0.73028  0.45327  0.40511  1.0000
  H   H14       1.0  0.76973  0.95327  0.09489  1.0000
  H   H15       1.0  0.76973  0.54673  0.90511  1.0000
  H   H16       1.0  0.73027  0.04673  0.59488  1.0000
  H   H17       1.0  0.02709  0.60583  0.65988  1.0000
  H   H18       1.0  0.47291  0.10583  0.84012  1.0000
  H   H19       1.0  0.47293  0.39417  0.15989  1.0000
  H   H20       1.0  0.02708  0.89417  0.34011  1.0000
  H   H21       1.0  0.97292  0.39417  0.34011  1.0000
  H   H22       1.0  0.52707  0.89417  0.15989  1.0000
  H   H23       1.0  0.52710  0.60583  0.84012  1.0000
  H   H24       1.0  0.97291  0.10583  0.65988  1.0000
  H   H25       1.0  0.67915  0.67877  0.72343  1.0000
  H   H26       1.0  0.82085  0.17877  0.77657  1.0000
  H   H27       1.0  0.82088  0.32123  0.22343  1.0000
  H   H28       1.0  0.67913  0.82123  0.27656  1.0000
  H   H29       1.0  0.32087  0.32123  0.27656  1.0000
  H   H30       1.0  0.17913  0.82123  0.22343  1.0000
  H   H31       1.0  0.17915  0.67877  0.77657  1.0000
  H   H32       1.0  0.32085  0.17877  0.72343  1.0000
  H   H33       1.0  0.58439  0.83758  0.70045  1.0000
  H   H34       1.0  0.91561  0.33757  0.79955  1.0000
  H   H35       1.0  0.91563  0.16242  0.20046  1.0000
  H   H36       1.0  0.58437  0.66242  0.29954  1.0000
  H   H37       1.0  0.41563  0.16242  0.29954  1.0000
  H   H38       1.0  0.08437  0.66242  0.20046  1.0000
  H   H39       1.0  0.08439  0.83757  0.79955  1.0000
  H   H40       1.0  0.41562  0.33758  0.70045  1.0000
  H   H41       1.0  0.84201  0.91332  0.61300  1.0000
  H   H42       1.0  0.65799  0.41331  0.88699  1.0000
  H   H43       1.0  0.65799  0.08669  0.11302  1.0000
  H   H44       1.0  0.84201  0.58669  0.38699  1.0000
  H   H45       1.0  0.15799  0.08669  0.38698  1.0000
  H   H46       1.0  0.34202  0.58668  0.11302  1.0000
  H   H47       1.0  0.34200  0.91331  0.88699  1.0000
  H   H48       1.0  0.15799  0.41332  0.61301  1.0000
  C   C1        1.0  0.33334  0.68153  0.56608  1.0000
  C   C2        1.0  0.16665  0.18153  0.93392  1.0000
  C   C3        1.0  0.16666  0.31847  0.06610  1.0000
  C   C4        1.0  0.33334  0.81847  0.43391  1.0000
  C   C5        1.0  0.66666  0.31847  0.43390  1.0000
  C   C6        1.0  0.83334  0.81847  0.06609  1.0000
  C   C7        1.0  0.83334  0.68153  0.93392  1.0000
  C   C8        1.0  0.66666  0.18153  0.56608  1.0000
  C   C9        1.0  0.12218  0.72109  0.60319  1.0000
  C   C10       1.0  0.37781  0.22109  0.89681  1.0000
  C   C11       1.0  0.37782  0.27891  0.10320  1.0000
  C   C12       1.0  0.12218  0.77891  0.39680  1.0000
  C   C13       1.0  0.87782  0.27891  0.39680  1.0000
  C   C14       1.0  0.62218  0.77891  0.10320  1.0000
  C   C15       1.0  0.62218  0.72109  0.89681  1.0000
  C   C16       1.0  0.87782  0.22109  0.60319  1.0000
  C   C17       1.0  0.39112  0.59232  0.56771  1.0000
  C   C18       1.0  0.10887  0.09231  0.93229  1.0000
  C   C19       1.0  0.10888  0.40769  0.06772  1.0000
  C   C20       1.0  0.39113  0.90769  0.43228  1.0000
  C   C21       1.0  0.60888  0.40769  0.43228  1.0000
  C   C22       1.0  0.89113  0.90769  0.06772  1.0000
  C   C23       1.0  0.89112  0.59232  0.93229  1.0000
  C   C24       1.0  0.60887  0.09232  0.56771  1.0000
  C   C25       1.0  0.98262  0.67432  0.65117  1.0000
  C   C26       1.0  0.51738  0.17432  0.84883  1.0000
  C   C27       1.0  0.51740  0.32568  0.15118  1.0000
  C   C28       1.0  0.98261  0.82568  0.34882  1.0000
  C   C29       1.0  0.01739  0.32568  0.34882  1.0000
  C   C30       1.0  0.48260  0.82568  0.15118  1.0000
  C   C31       1.0  0.48262  0.67432  0.84883  1.0000
  C   C32       1.0  0.01739  0.17432  0.65117  1.0000
  C   C33       1.0  0.87892  0.84553  0.62592  1.0000
  C   C34       1.0  0.62109  0.34553  0.87408  1.0000
  C   C35       1.0  0.62109  0.15447  0.12593  1.0000
  C   C36       1.0  0.87891  0.65447  0.37407  1.0000
  C   C37       1.0  0.12109  0.15447  0.37407  1.0000
  C   C38       1.0  0.37891  0.65447  0.12593  1.0000
  C   C39       1.0  0.37891  0.84553  0.87408  1.0000
  C   C40       1.0  0.12108  0.34553  0.62592  1.0000
  C   C41       1.0  0.78826  0.71499  0.68647  1.0000
  C   C42       1.0  0.71174  0.21499  0.81354  1.0000
  C   C43       1.0  0.71176  0.28501  0.18647  1.0000
  C   C44       1.0  0.78824  0.78501  0.31352  1.0000
  C   C45       1.0  0.21176  0.28501  0.31352  1.0000
  C   C46       1.0  0.28824  0.78501  0.18647  1.0000
  C   C47       1.0  0.28826  0.71499  0.81354  1.0000
  C   C48       1.0  0.21174  0.21499  0.68647  1.0000
  C   C49       1.0  0.73574  0.80291  0.67420  1.0000
  C   C50       1.0  0.76426  0.30291  0.82580  1.0000
  C   C51       1.0  0.76427  0.19709  0.17420  1.0000
  C   C52       1.0  0.73573  0.69709  0.32580  1.0000
  C   C53       1.0  0.26427  0.19709  0.32580  1.0000
  C   C54       1.0  0.23573  0.69709  0.17420  1.0000
  C   C55       1.0  0.23574  0.80291  0.82580  1.0000
  C   C56       1.0  0.26426  0.30291  0.67420  1.0000
  C   C57       1.0  0.65030  0.55816  0.54915  1.0000
  C   C58       1.0  0.84969  0.05816  0.95085  1.0000
  C   C59       1.0  0.84970  0.44184  0.04916  1.0000
  C   C60       1.0  0.65030  0.94184  0.45084  1.0000
  C   C61       1.0  0.34971  0.44184  0.45084  1.0000
  C   C62       1.0  0.15030  0.94184  0.04916  1.0000
  C   C63       1.0  0.15030  0.55816  0.95085  1.0000
  C   C64       1.0  0.34968  0.05816  0.54915  1.0000
  N   N1        1.0  0.06674  0.80631  0.59095  1.0000
  N   N2        1.0  0.43327  0.30631  0.90905  1.0000
  N   N3        1.0  0.43326  0.19369  0.09096  1.0000
  N   N4        1.0  0.06674  0.69369  0.40904  1.0000
  N   N5        1.0  0.93326  0.19369  0.40904  1.0000
  N   N6        1.0  0.56674  0.69369  0.09096  1.0000
  N   N7        1.0  0.56673  0.80631  0.90905  1.0000
  N   N8        1.0  0.93326  0.30631  0.59095  1.0000
  O   O1        1.0  0.70592  0.48263  0.57365  1.0000
  O   O2        1.0  0.79408  0.98263  0.92635  1.0000
  O   O3        1.0  0.79406  0.51736  0.07365  1.0000
  O   O4        1.0  0.70594  0.01736  0.42634  1.0000
  O   O5        1.0  0.29407  0.51736  0.42635  1.0000
  O   O6        1.0  0.20594  0.01736  0.07366  1.0000
  O   O7        1.0  0.20592  0.48263  0.92635  1.0000
  O   O8        1.0  0.29407  0.98263  0.57364  1.0000
  O   O9        1.0  0.78975  0.60388  0.51187  1.0000
  O   O10       1.0  0.71024  0.10388  0.98813  1.0000
  O   O11       1.0  0.71025  0.39612  0.01188  1.0000
  O   O12       1.0  0.78976  0.89612  0.48812  1.0000
  O   O13       1.0  0.21025  0.39612  0.48812  1.0000
  O   O14       1.0  0.28975  0.89612  0.01188  1.0000
  O   O15       1.0  0.28975  0.60387  0.98813  1.0000
  O   O16       1.0  0.21025  0.10388  0.51187  1.0000
