data_image0
_chemical_formula_structural       Cu2H12C16N2O4
_chemical_formula_sum              "Cu2 H12 C16 N2 O4"
_cell_length_a       5.48967
_cell_length_b       6.92775
_cell_length_c       10.0815
_cell_angle_alpha    94.6644
_cell_angle_beta     103.357
_cell_angle_gamma    110.062

_space_group_name_H-M_alt    "P 1"
_space_group_IT_number       1

loop_
  _space_group_symop_operation_xyz
  'x, y, z'

loop_
  _atom_site_type_symbol
  _atom_site_label
  _atom_site_symmetry_multiplicity
  _atom_site_fract_x
  _atom_site_fract_y
  _atom_site_fract_z
  _atom_site_occupancy
  Cu  Cu1       1.0  0.45097  0.60888  0.67020  1.0000
  Cu  Cu2       1.0  0.54902  0.39112  0.32979  1.0000
  H   H1        1.0  0.81784  0.51252  0.15883  1.0000
  H   H2        1.0  0.18217  0.48750  0.84116  1.0000
  H   H3        1.0  0.87233  0.77084  0.43646  1.0000
  H   H4        1.0  0.12768  0.22916  0.56354  1.0000
  H   H5        1.0  0.75830  0.06951  0.41291  1.0000
  H   H6        1.0  0.24168  0.93048  0.58709  1.0000
  H   H7        1.0  0.39301  0.55453  0.06874  1.0000
  H   H8        1.0  0.60700  0.44547  0.93126  1.0000
  H   H9        1.0  0.18266  0.10055  0.08002  1.0000
  H   H10       1.0  0.81734  0.89946  0.91997  1.0000
  H   H11       1.0  0.12162  0.75231  0.95307  1.0000
  H   H12       1.0  0.87840  0.24768  0.04693  1.0000
  C   C1        1.0  0.11838  0.52756  0.34959  1.0000
  C   C2        1.0  0.88158  0.47242  0.65040  1.0000
  C   C3        1.0  0.87386  0.56089  0.27089  1.0000
  C   C4        1.0  0.12614  0.43911  0.72910  1.0000
  C   C5        1.0  0.77324  0.69783  0.32806  1.0000
  C   C6        1.0  0.22678  0.30216  0.67194  1.0000
  C   C7        1.0  0.60392  0.79700  0.24994  1.0000
  C   C8        1.0  0.39609  0.20300  0.75006  1.0000
  C   C9        1.0  0.62239  0.99282  0.31065  1.0000
  C   C10       1.0  0.37762  0.00718  0.68935  1.0000
  C   C11       1.0  0.41969  0.70899  0.11863  1.0000
  C   C12       1.0  0.58031  0.29100  0.88137  1.0000
  C   C13       1.0  0.29762  0.00969  0.12437  1.0000
  C   C14       1.0  0.70237  0.99031  0.87563  1.0000
  C   C15       1.0  0.26458  0.81605  0.05565  1.0000
  C   C16       1.0  0.73542  0.18396  0.94435  1.0000
  N   N1        1.0  0.47586  0.09775  0.24947  1.0000
  N   N2        1.0  0.52413  0.90225  0.75053  1.0000
  O   O1        1.0  0.25885  0.64544  0.46382  1.0000
  O   O2        1.0  0.74113  0.35454  0.53619  1.0000
  O   O3        1.0  0.17220  0.38124  0.28972  1.0000
  O   O4        1.0  0.82779  0.61877  0.71027  1.0000
