data_image0
_chemical_formula_structural       Co4H48C56N16O16
_chemical_formula_sum              "Co4 H48 C56 N16 O16"
_cell_length_a       8.06384
_cell_length_b       11.568
_cell_length_c       16.626
_cell_angle_alpha    90
_cell_angle_beta     90
_cell_angle_gamma    100.99

_space_group_name_H-M_alt    "P 1"
_space_group_IT_number       1

loop_
  _space_group_symop_operation_xyz
  'x, y, z'

loop_
  _atom_site_type_symbol
  _atom_site_label
  _atom_site_symmetry_multiplicity
  _atom_site_fract_x
  _atom_site_fract_y
  _atom_site_fract_z
  _atom_site_occupancy
  Co  Co1       1.0  0.84896  0.42052  0.30043  1.0000
  Co  Co2       1.0  0.15104  0.07948  0.80043  1.0000
  Co  Co3       1.0  0.15104  0.57948  0.69957  1.0000
  Co  Co4       1.0  0.84896  0.92052  0.19957  1.0000
  H   H1        1.0  0.97975  0.18280  0.53956  1.0000
  H   H2        1.0  0.02025  0.31719  0.03956  1.0000
  H   H3        1.0  0.02025  0.81719  0.46044  1.0000
  H   H4        1.0  0.97975  0.68280  0.96044  1.0000
  H   H5        1.0  0.88718  0.01209  0.42193  1.0000
  H   H6        1.0  0.11282  0.48791  0.92193  1.0000
  H   H7        1.0  0.11282  0.98791  0.57807  1.0000
  H   H8        1.0  0.88717  0.51209  0.07807  1.0000
  H   H9        1.0  0.80568  0.13922  0.29191  1.0000
  H   H10       1.0  0.19432  0.36078  0.79191  1.0000
  H   H11       1.0  0.19432  0.86078  0.70809  1.0000
  H   H12       1.0  0.80568  0.63922  0.20809  1.0000
  H   H13       1.0  0.37271  0.74173  0.30639  1.0000
  H   H14       1.0  0.62729  0.75827  0.80639  1.0000
  H   H15       1.0  0.62729  0.25827  0.69361  1.0000
  H   H16       1.0  0.37271  0.24172  0.19361  1.0000
  H   H17       1.0  0.48971  0.54897  0.24852  1.0000
  H   H18       1.0  0.51029  0.95103  0.74852  1.0000
  H   H19       1.0  0.51029  0.45103  0.75148  1.0000
  H   H20       1.0  0.48971  0.04897  0.25148  1.0000
  H   H21       1.0  0.19863  0.38034  0.23053  1.0000
  H   H22       1.0  0.80137  0.11966  0.73053  1.0000
  H   H23       1.0  0.80137  0.61966  0.76947  1.0000
  H   H24       1.0  0.19863  0.88034  0.26947  1.0000
  H   H25       1.0  0.56668  0.42046  0.07474  1.0000
  H   H26       1.0  0.43332  0.07955  0.57474  1.0000
  H   H27       1.0  0.43332  0.57955  0.92526  1.0000
  H   H28       1.0  0.56668  0.92045  0.42526  1.0000
  H   H29       1.0  0.44298  0.37009  0.93859  1.0000
  H   H30       1.0  0.55702  0.12991  0.43859  1.0000
  H   H31       1.0  0.55703  0.62992  0.06141  1.0000
  H   H32       1.0  0.44298  0.87009  0.56141  1.0000
  H   H33       1.0  0.48816  0.18700  0.87006  1.0000
  H   H34       1.0  0.51184  0.31300  0.37007  1.0000
  H   H35       1.0  0.51185  0.81301  0.12993  1.0000
  H   H36       1.0  0.48816  0.68700  0.62994  1.0000
  H   H37       1.0  0.64232  0.05010  0.94008  1.0000
  H   H38       1.0  0.35768  0.44990  0.44008  1.0000
  H   H39       1.0  0.35769  0.94990  0.05992  1.0000
  H   H40       1.0  0.64232  0.55010  0.55993  1.0000
  H   H41       1.0  0.96173  0.37672  0.47342  1.0000
  H   H42       1.0  0.03827  0.12328  0.97342  1.0000
  H   H43       1.0  0.03827  0.62328  0.52658  1.0000
  H   H44       1.0  0.96173  0.87672  0.02658  1.0000
  H   H45       1.0  0.04994  0.67524  0.31813  1.0000
  H   H46       1.0  0.95006  0.82476  0.81813  1.0000
  H   H47       1.0  0.95006  0.32477  0.68187  1.0000
  H   H48       1.0  0.04994  0.17523  0.18187  1.0000
  C   C1        1.0  0.93855  0.18959  0.47784  1.0000
  C   C2        1.0  0.06145  0.31041  0.97784  1.0000
  C   C3        1.0  0.06145  0.81041  0.52216  1.0000
  C   C4        1.0  0.93855  0.68959  0.02216  1.0000
  C   C5        1.0  0.89114  0.10588  0.41782  1.0000
  C   C6        1.0  0.10886  0.39412  0.91782  1.0000
  C   C7        1.0  0.10886  0.89412  0.58218  1.0000
  C   C8        1.0  0.89114  0.60588  0.08218  1.0000
  C   C9        1.0  0.84994  0.16943  0.35128  1.0000
  C   C10       1.0  0.15006  0.33057  0.85128  1.0000
  C   C11       1.0  0.15006  0.83057  0.64872  1.0000
  C   C12       1.0  0.84994  0.66943  0.14872  1.0000
  C   C13       1.0  0.30372  0.65483  0.29035  1.0000
  C   C14       1.0  0.69628  0.84517  0.79036  1.0000
  C   C15       1.0  0.69628  0.34517  0.70964  1.0000
  C   C16       1.0  0.30372  0.15483  0.20964  1.0000
  C   C17       1.0  0.36032  0.55716  0.25989  1.0000
  C   C18       1.0  0.63968  0.94284  0.75989  1.0000
  C   C19       1.0  0.63968  0.44284  0.74011  1.0000
  C   C20       1.0  0.36032  0.05716  0.24011  1.0000
  C   C21       1.0  0.21460  0.47026  0.25167  1.0000
  C   C22       1.0  0.78540  0.02974  0.75167  1.0000
  C   C23       1.0  0.78540  0.52974  0.74833  1.0000
  C   C24       1.0  0.21460  0.97026  0.24833  1.0000
  C   C25       1.0  0.76731  0.30349  0.15947  1.0000
  C   C26       1.0  0.23269  0.19652  0.65947  1.0000
  C   C27       1.0  0.23269  0.69652  0.84053  1.0000
  C   C28       1.0  0.76731  0.80348  0.34053  1.0000
  C   C29       1.0  0.67340  0.26421  0.08372  1.0000
  C   C30       1.0  0.32660  0.23579  0.58373  1.0000
  C   C31       1.0  0.32660  0.73579  0.91627  1.0000
  C   C32       1.0  0.67340  0.76421  0.41627  1.0000
  C   C33       1.0  0.58111  0.33899  0.04496  1.0000
  C   C34       1.0  0.41889  0.16102  0.54496  1.0000
  C   C35       1.0  0.41889  0.66102  0.95504  1.0000
  C   C36       1.0  0.58111  0.83898  0.45504  1.0000
  C   C37       1.0  0.51398  0.31130  0.96853  1.0000
  C   C38       1.0  0.48602  0.18870  0.46853  1.0000
  C   C39       1.0  0.48602  0.68871  0.03147  1.0000
  C   C40       1.0  0.51398  0.81130  0.53147  1.0000
  C   C41       1.0  0.53843  0.20845  0.93020  1.0000
  C   C42       1.0  0.46158  0.29156  0.43020  1.0000
  C   C43       1.0  0.46158  0.79156  0.06980  1.0000
  C   C44       1.0  0.53843  0.70845  0.56980  1.0000
  C   C45       1.0  0.62589  0.13164  0.96920  1.0000
  C   C46       1.0  0.37412  0.36836  0.46920  1.0000
  C   C47       1.0  0.37412  0.86837  0.03080  1.0000
  C   C48       1.0  0.62588  0.63164  0.53080  1.0000
  C   C49       1.0  0.69166  0.15823  0.04627  1.0000
  C   C50       1.0  0.30833  0.34177  0.54627  1.0000
  C   C51       1.0  0.30834  0.84177  0.95373  1.0000
  C   C52       1.0  0.69166  0.65823  0.45373  1.0000
  C   C53       1.0  0.77761  0.07196  0.08858  1.0000
  C   C54       1.0  0.22238  0.42804  0.58858  1.0000
  C   C55       1.0  0.22238  0.92804  0.91142  1.0000
  C   C56       1.0  0.77760  0.57196  0.41142  1.0000
  N   N1        1.0  0.87202  0.28507  0.36952  1.0000
  N   N2        1.0  0.12798  0.21493  0.86952  1.0000
  N   N3        1.0  0.12798  0.71493  0.63048  1.0000
  N   N4        1.0  0.87202  0.78507  0.13048  1.0000
  N   N5        1.0  0.92546  0.29502  0.44676  1.0000
  N   N6        1.0  0.07454  0.20498  0.94676  1.0000
  N   N7        1.0  0.07454  0.70498  0.55324  1.0000
  N   N8        1.0  0.92546  0.79502  0.05324  1.0000
  N   N9        1.0  0.07734  0.51168  0.27573  1.0000
  N   N10       1.0  0.92266  0.98832  0.77573  1.0000
  N   N11       1.0  0.92266  0.48832  0.72427  1.0000
  N   N12       1.0  0.07734  0.01168  0.22427  1.0000
  N   N13       1.0  0.13448  0.62428  0.29903  1.0000
  N   N14       1.0  0.86552  0.87572  0.79903  1.0000
  N   N15       1.0  0.86552  0.37572  0.70097  1.0000
  N   N16       1.0  0.13448  0.12428  0.20097  1.0000
  O   O1        1.0  0.69779  0.36560  0.20928  1.0000
  O   O2        1.0  0.30221  0.13440  0.70928  1.0000
  O   O3        1.0  0.30221  0.63440  0.79072  1.0000
  O   O4        1.0  0.69779  0.86560  0.29072  1.0000
  O   O5        1.0  0.91301  0.28105  0.17093  1.0000
  O   O6        1.0  0.08700  0.21895  0.67094  1.0000
  O   O7        1.0  0.08700  0.71895  0.82906  1.0000
  O   O8        1.0  0.91300  0.78105  0.32907  1.0000
  O   O9        1.0  0.90173  0.03826  0.05703  1.0000
  O   O10       1.0  0.09826  0.46173  0.55703  1.0000
  O   O11       1.0  0.09826  0.96174  0.94297  1.0000
  O   O12       1.0  0.90173  0.53826  0.44297  1.0000
  O   O13       1.0  0.71517  0.03259  0.15722  1.0000
  O   O14       1.0  0.28482  0.46741  0.65722  1.0000
  O   O15       1.0  0.28482  0.96741  0.84278  1.0000
  O   O16       1.0  0.71517  0.53259  0.34278  1.0000
