data_image0
_chemical_formula_structural       Zn2H24C14O14
_chemical_formula_sum              "Zn2 H24 C14 O14"
_cell_length_a       5.01854
_cell_length_b       9.0006
_cell_length_c       10.7854
_cell_angle_alpha    100.337
_cell_angle_beta     89.9559
_cell_angle_gamma    90.0461

_space_group_name_H-M_alt    "P 1"
_space_group_IT_number       1

loop_
  _space_group_symop_operation_xyz
  'x, y, z'

loop_
  _atom_site_type_symbol
  _atom_site_label
  _atom_site_symmetry_multiplicity
  _atom_site_fract_x
  _atom_site_fract_y
  _atom_site_fract_z
  _atom_site_occupancy
  Zn  Zn1       1.0  0.21279  0.99959  0.74974  1.0000
  Zn  Zn2       1.0  0.78729  0.00028  0.25008  1.0000
  H   H1        1.0  0.40344  0.36332  0.51130  1.0000
  H   H2        1.0  0.40382  0.63690  0.98925  1.0000
  H   H3        1.0  0.59618  0.63676  0.48881  1.0000
  H   H4        1.0  0.59650  0.36318  0.01090  1.0000
  H   H5        1.0  0.68111  0.24525  0.47247  1.0000
  H   H6        1.0  0.68098  0.75560  0.02771  1.0000
  H   H7        1.0  0.31872  0.75501  0.52754  1.0000
  H   H8        1.0  0.31920  0.24462  0.97229  1.0000
  H   H9        1.0  0.83123  0.49244  0.59285  1.0000
  H   H10       1.0  0.83276  0.50875  0.90762  1.0000
  H   H11       1.0  0.16794  0.50795  0.40724  1.0000
  H   H12       1.0  0.16795  0.49156  0.09246  1.0000
  H   H13       1.0  0.90100  0.35282  0.67969  1.0000
  H   H14       1.0  0.90037  0.64802  0.82004  1.0000
  H   H15       1.0  0.09921  0.64746  0.32015  1.0000
  H   H16       1.0  0.09936  0.35219  0.17980  1.0000
  H   H17       1.0  0.89115  0.86501  0.57393  1.0000
  H   H18       1.0  0.89152  0.13457  0.92566  1.0000
  H   H19       1.0  0.10858  0.13505  0.42597  1.0000
  H   H20       1.0  0.10885  0.86545  0.07422  1.0000
  H   H21       1.0  0.79552  0.83735  0.71004  1.0000
  H   H22       1.0  0.79639  0.16197  0.78946  1.0000
  H   H23       1.0  0.20427  0.16258  0.28982  1.0000
  H   H24       1.0  0.20393  0.83793  0.21040  1.0000
  C   C1        1.0  0.42254  0.18278  0.61100  1.0000
  C   C2        1.0  0.42224  0.81706  0.88900  1.0000
  C   C3        1.0  0.57752  0.81719  0.38895  1.0000
  C   C4        1.0  0.57768  0.18288  0.11097  1.0000
  C   C5        1.0  0.56024  0.30204  0.55211  1.0000
  C   C6        1.0  0.56037  0.69834  0.94820  1.0000
  C   C7        1.0  0.43953  0.69807  0.44793  1.0000
  C   C8        1.0  0.43980  0.30175  0.05187  1.0000
  C   C9        1.0  0.73366  0.40993  0.64246  1.0000
  C   C10       1.0  0.73398  0.59055  0.85787  1.0000
  C   C11       1.0  0.26608  0.59022  0.35759  1.0000
  C   C12       1.0  0.26618  0.40956  0.14218  1.0000
  C   C13       1.0  0.57734  0.49966  0.75055  1.0000
  C   C14       1.0  0.42264  0.50007  0.24978  1.0000
  O   O1        1.0  0.33214  0.49854  0.75124  1.0000
  O   O2        1.0  0.66778  0.50040  0.24961  1.0000
  O   O3        1.0  0.22179  0.11168  0.55872  1.0000
  O   O4        1.0  0.22210  0.88852  0.94141  1.0000
  O   O5        1.0  0.77809  0.88838  0.44125  1.0000
  O   O6        1.0  0.77812  0.11156  0.05855  1.0000
  O   O7        1.0  0.50746  0.15139  0.71596  1.0000
  O   O8        1.0  0.50622  0.84741  0.78342  1.0000
  O   O9        1.0  0.49294  0.84827  0.28381  1.0000
  O   O10       1.0  0.49341  0.15218  0.21635  1.0000
  O   O11       1.0  0.95888  0.84371  0.65777  1.0000
  O   O12       1.0  0.95949  0.15560  0.84173  1.0000
  O   O13       1.0  0.04091  0.15628  0.34212  1.0000
  O   O14       1.0  0.04083  0.84434  0.15815  1.0000
