data_image0
_chemical_formula_structural       Ag2H22C30N12O4
_chemical_formula_sum              "Ag2 H22 C30 N12 O4"
_cell_length_a       7.77605
_cell_length_b       8.90051
_cell_length_c       10.7845
_cell_angle_alpha    104.58
_cell_angle_beta     93.8001
_cell_angle_gamma    99.0149

_space_group_name_H-M_alt    "P 1"
_space_group_IT_number       1

loop_
  _space_group_symop_operation_xyz
  'x, y, z'

loop_
  _atom_site_type_symbol
  _atom_site_label
  _atom_site_symmetry_multiplicity
  _atom_site_fract_x
  _atom_site_fract_y
  _atom_site_fract_z
  _atom_site_occupancy
  Ag  Ag1       1.0  0.41700  0.15111  0.28010  1.0000
  Ag  Ag2       1.0  0.58300  0.84888  0.71991  1.0000
  H   H1        1.0  0.69706  0.04497  0.06270  1.0000
  H   H2        1.0  0.30293  0.95503  0.93729  1.0000
  H   H3        1.0  0.03431  0.34675  0.96490  1.0000
  H   H4        1.0  0.96569  0.65325  0.03510  1.0000
  H   H5        1.0  0.92828  0.14528  0.91041  1.0000
  H   H6        1.0  0.07172  0.85472  0.08958  1.0000
  H   H7        1.0  0.49574  0.79177  0.09794  1.0000
  H   H8        1.0  0.50426  0.20823  0.90206  1.0000
  H   H9        1.0  0.41890  0.50653  0.09319  1.0000
  H   H10       1.0  0.58109  0.49346  0.90681  1.0000
  H   H11       1.0  0.26509  0.43371  0.27210  1.0000
  H   H12       1.0  0.73491  0.56629  0.72790  1.0000
  H   H13       1.0  0.13567  0.51859  0.47559  1.0000
  H   H14       1.0  0.86433  0.48141  0.52441  1.0000
  H   H15       1.0  0.05418  0.73447  0.64705  1.0000
  H   H16       1.0  0.94582  0.26553  0.35295  1.0000
  H   H17       1.0  0.06806  0.01378  0.74553  1.0000
  H   H18       1.0  0.93194  0.98622  0.25447  1.0000
  H   H19       1.0  0.16514  0.29725  0.73987  1.0000
  H   H20       1.0  0.83487  0.70275  0.26013  1.0000
  H   H21       1.0  0.31729  0.34914  0.55622  1.0000
  H   H22       1.0  0.68272  0.65086  0.44378  1.0000
  C   C1        1.0  0.71948  0.17286  0.10486  1.0000
  C   C2        1.0  0.28052  0.82714  0.89514  1.0000
  C   C3        1.0  0.98579  0.24107  0.99583  1.0000
  C   C4        1.0  0.01421  0.75894  0.00417  1.0000
  C   C5        1.0  0.14021  0.18871  0.06234  1.0000
  C   C6        1.0  0.85979  0.81128  0.93766  1.0000
  C   C7        1.0  0.42302  0.75685  0.17228  1.0000
  C   C8        1.0  0.57698  0.24315  0.82772  1.0000
  C   C9        1.0  0.38263  0.59665  0.17063  1.0000
  C   C10       1.0  0.61737  0.40335  0.82937  1.0000
  C   C11       1.0  0.29805  0.55660  0.26940  1.0000
  C   C12       1.0  0.70194  0.44340  0.73059  1.0000
  C   C13       1.0  0.25476  0.67647  0.36913  1.0000
  C   C14       1.0  0.74524  0.32353  0.63087  1.0000
  C   C15       1.0  0.16740  0.64160  0.47366  1.0000
  C   C16       1.0  0.83259  0.35840  0.52634  1.0000
  C   C17       1.0  0.12448  0.75904  0.56806  1.0000
  C   C18       1.0  0.87552  0.24096  0.43194  1.0000
  C   C19       1.0  0.17194  0.92070  0.56725  1.0000
  C   C20       1.0  0.82806  0.07930  0.43276  1.0000
  C   C21       1.0  0.13564  0.04402  0.66731  1.0000
  C   C22       1.0  0.86437  0.95598  0.33270  1.0000
  C   C23       1.0  0.18772  0.19830  0.66392  1.0000
  C   C24       1.0  0.81228  0.80170  0.33608  1.0000
  C   C25       1.0  0.27302  0.22782  0.55946  1.0000
  C   C26       1.0  0.72699  0.77218  0.44055  1.0000
  C   C27       1.0  0.25921  0.96095  0.46505  1.0000
  C   C28       1.0  0.74079  0.03905  0.53495  1.0000
  C   C29       1.0  0.29919  0.83542  0.36239  1.0000
  C   C30       1.0  0.70082  0.16459  0.63762  1.0000
  N   N1        1.0  0.84789  0.27480  0.07715  1.0000
  N   N2        1.0  0.15211  0.72520  0.92285  1.0000
  N   N3        1.0  0.84096  0.42242  0.14785  1.0000
  N   N4        1.0  0.15904  0.57758  0.85215  1.0000
  N   N5        1.0  0.71016  0.40991  0.21624  1.0000
  N   N6        1.0  0.28984  0.59009  0.78376  1.0000
  N   N7        1.0  0.63203  0.25569  0.19124  1.0000
  N   N8        1.0  0.36796  0.74431  0.80876  1.0000
  N   N9        1.0  0.38063  0.87232  0.26380  1.0000
  N   N10       1.0  0.61938  0.12768  0.73620  1.0000
  N   N11       1.0  0.30697  0.11378  0.46234  1.0000
  N   N12       1.0  0.69303  0.88622  0.53767  1.0000
  O   O1        1.0  0.12526  0.16768  0.17352  1.0000
  O   O2        1.0  0.87474  0.83232  0.82647  1.0000
  O   O3        1.0  0.26592  0.17037  0.99564  1.0000
  O   O4        1.0  0.73408  0.82963  0.00436  1.0000
