data_image0
_chemical_formula_structural       Ag4H32C48N16O12
_chemical_formula_sum              "Ag4 H32 C48 N16 O12"
_cell_length_a       9.75011
_cell_length_b       9.79892
_cell_length_c       13.7265
_cell_angle_alpha    76.3211
_cell_angle_beta     76.2512
_cell_angle_gamma    76.4551

_space_group_name_H-M_alt    "P 1"
_space_group_IT_number       1

loop_
  _space_group_symop_operation_xyz
  'x, y, z'

loop_
  _atom_site_type_symbol
  _atom_site_label
  _atom_site_symmetry_multiplicity
  _atom_site_fract_x
  _atom_site_fract_y
  _atom_site_fract_z
  _atom_site_occupancy
  Ag  Ag1       1.0  0.71028  0.22437  0.85760  1.0000
  Ag  Ag2       1.0  0.22510  0.71086  0.35800  1.0000
  Ag  Ag3       1.0  0.26631  0.24058  0.93773  1.0000
  Ag  Ag4       1.0  0.24100  0.26632  0.43745  1.0000
  H   H1        1.0  0.68230  0.87584  0.96577  1.0000
  H   H2        1.0  0.87597  0.68243  0.46559  1.0000
  H   H3        1.0  0.83355  0.04820  0.65658  1.0000
  H   H4        1.0  0.04900  0.83363  0.15646  1.0000
  H   H5        1.0  0.65496  0.62436  0.92816  1.0000
  H   H6        1.0  0.62286  0.65600  0.42848  1.0000
  H   H7        1.0  0.73952  0.58925  0.80308  1.0000
  H   H8        1.0  0.58752  0.73998  0.30352  1.0000
  H   H9        1.0  0.85152  0.49781  0.20609  1.0000
  H   H10       1.0  0.49740  0.85263  0.70592  1.0000
  H   H11       1.0  0.94999  0.42072  0.36757  1.0000
  H   H12       1.0  0.42036  0.95080  0.86748  1.0000
  H   H13       1.0  0.36936  0.36080  0.20616  1.0000
  H   H14       1.0  0.36140  0.36790  0.70626  1.0000
  H   H15       1.0  0.29062  0.42882  0.03904  1.0000
  H   H16       1.0  0.42924  0.28943  0.53915  1.0000
  H   H17       1.0  0.01273  0.19597  0.82928  1.0000
  H   H18       1.0  0.19488  0.01278  0.32924  1.0000
  H   H19       1.0  0.07466  0.13532  0.65446  1.0000
  H   H20       1.0  0.13404  0.07488  0.15444  1.0000
  H   H21       1.0  0.10683  0.55339  0.51552  1.0000
  H   H22       1.0  0.55443  0.10663  0.01548  1.0000
  H   H23       1.0  0.02211  0.63746  0.68130  1.0000
  H   H24       1.0  0.63878  0.02198  0.18116  1.0000
  H   H25       1.0  0.60460  0.42026  0.12971  1.0000
  H   H26       1.0  0.42031  0.60439  0.62973  1.0000
  H   H27       1.0  0.92733  0.08096  0.24516  1.0000
  H   H28       1.0  0.08122  0.92744  0.74516  1.0000
  H   H29       1.0  0.63629  0.33955  0.44755  1.0000
  H   H30       1.0  0.33930  0.63630  0.94762  1.0000
  H   H31       1.0  0.03031  0.98297  0.48351  1.0000
  H   H32       1.0  0.98315  0.03036  0.98339  1.0000
  C   C1        1.0  0.72203  0.89146  0.88384  1.0000
  C   C2        1.0  0.89158  0.72208  0.38368  1.0000
  C   C3        1.0  0.80149  0.97374  0.72671  1.0000
  C   C4        1.0  0.97419  0.80152  0.22659  1.0000
  C   C5        1.0  0.74822  0.63607  0.86603  1.0000
  C   C6        1.0  0.63489  0.74857  0.36631  1.0000
  C   C7        1.0  0.00854  0.48901  0.01591  1.0000
  C   C8        1.0  0.48900  0.00858  0.51591  1.0000
  C   C9        1.0  0.06301  0.46534  0.11000  1.0000
  C   C10       1.0  0.46539  0.06298  0.60995  1.0000
  C   C11       1.0  0.96690  0.46915  0.20345  1.0000
  C   C12       1.0  0.46890  0.96743  0.70338  1.0000
  C   C13       1.0  0.02137  0.42703  0.29288  1.0000
  C   C14       1.0  0.42685  0.02175  0.79283  1.0000
  C   C15       1.0  0.25537  0.39177  0.20311  1.0000
  C   C16       1.0  0.39219  0.25447  0.70316  1.0000
  C   C17       1.0  0.21076  0.42963  0.10988  1.0000
  C   C18       1.0  0.42998  0.20997  0.60991  1.0000
  C   C19       1.0  0.98796  0.46361  0.86923  1.0000
  C   C20       1.0  0.46356  0.98814  0.36922  1.0000
  C   C21       1.0  0.01386  0.42247  0.76925  1.0000
  C   C22       1.0  0.42253  0.01400  0.26918  1.0000
  C   C23       1.0  0.02719  0.27958  0.76159  1.0000
  C   C24       1.0  0.27895  0.02730  0.26154  1.0000
  C   C25       1.0  0.06427  0.24451  0.66482  1.0000
  C   C26       1.0  0.24376  0.06443  0.16482  1.0000
  C   C27       1.0  0.07785  0.47842  0.58648  1.0000
  C   C28       1.0  0.47899  0.07781  0.08645  1.0000
  C   C29       1.0  0.03463  0.52475  0.67930  1.0000
  C   C30       1.0  0.52548  0.03463  0.17922  1.0000
  C   C31       1.0  0.82637  0.20899  0.07186  1.0000
  C   C32       1.0  0.20914  0.82620  0.57197  1.0000
  C   C33       1.0  0.86970  0.13547  0.44083  1.0000
  C   C34       1.0  0.13565  0.86971  0.94078  1.0000
  C   C35       1.0  0.47321  0.50468  0.31558  1.0000
  C   C36       1.0  0.50478  0.47315  0.81543  1.0000
  C   C37       1.0  0.60232  0.39015  0.29195  1.0000
  C   C38       1.0  0.39021  0.60224  0.79197  1.0000
  C   C39       1.0  0.65409  0.35828  0.19386  1.0000
  C   C40       1.0  0.35834  0.65392  0.69391  1.0000
  C   C41       1.0  0.77065  0.24587  0.17700  1.0000
  C   C42       1.0  0.24594  0.77047  0.67707  1.0000
  C   C43       1.0  0.83721  0.16801  0.25833  1.0000
  C   C44       1.0  0.16810  0.83718  0.75836  1.0000
  C   C45       1.0  0.79098  0.20383  0.35514  1.0000
  C   C46       1.0  0.20386  0.79092  0.85516  1.0000
  C   C47       1.0  0.67234  0.31325  0.37167  1.0000
  C   C48       1.0  0.31318  0.67227  0.87171  1.0000
  N   N1        1.0  0.75026  0.01191  0.82067  1.0000
  N   N2        1.0  0.01255  0.75045  0.32045  1.0000
  N   N3        1.0  0.80596  0.83663  0.72913  1.0000
  N   N4        1.0  0.83640  0.80576  0.22913  1.0000
  N   N5        1.0  0.75340  0.78632  0.82939  1.0000
  N   N6        1.0  0.78595  0.75317  0.32935  1.0000
  N   N7        1.0  0.87543  0.56057  0.90668  1.0000
  N   N8        1.0  0.55989  0.87549  0.40693  1.0000
  N   N9        1.0  0.88628  0.57708  0.99955  1.0000
  N   N10       1.0  0.57651  0.88627  0.49978  1.0000
  N   N11       1.0  0.07419  0.41635  0.93761  1.0000
  N   N12       1.0  0.41666  0.07437  0.43742  1.0000
  N   N13       1.0  0.16299  0.38637  0.29335  1.0000
  N   N14       1.0  0.38653  0.16267  0.79337  1.0000
  N   N15       1.0  0.09389  0.34108  0.57869  1.0000
  N   N16       1.0  0.34094  0.09400  0.07870  1.0000
  O   O1        1.0  0.93488  0.10637  0.06495  1.0000
  O   O2        1.0  0.10665  0.93471  0.56501  1.0000
  O   O3        1.0  0.76247  0.28144  0.00060  1.0000
  O   O4        1.0  0.28176  0.76226  0.50071  1.0000
  O   O5        1.0  0.38980  0.47802  0.40214  1.0000
  O   O6        1.0  0.47758  0.39022  0.90192  1.0000
  O   O7        1.0  0.45489  0.62068  0.25086  1.0000
  O   O8        1.0  0.62134  0.45426  0.75065  1.0000
  O   O9        1.0  0.84241  0.18565  0.51951  1.0000
  O   O10       1.0  0.18601  0.84236  0.01944  1.0000
  O   O11       1.0  0.97046  0.02238  0.42295  1.0000
  O   O12       1.0  0.02257  0.97064  0.92283  1.0000
