data_image0
_chemical_formula_structural       K6H6C2N12O14
_chemical_formula_sum              "K6 H6 C2 N12 O14"
_cell_length_a       7.81358
_cell_length_b       8.98949
_cell_length_c       9.12221
_cell_angle_alpha    66.7331
_cell_angle_beta     92.2737
_cell_angle_gamma    69.9579

_space_group_name_H-M_alt    "P 1"
_space_group_IT_number       1

loop_
  _space_group_symop_operation_xyz
  'x, y, z'

loop_
  _atom_site_type_symbol
  _atom_site_label
  _atom_site_symmetry_multiplicity
  _atom_site_fract_x
  _atom_site_fract_y
  _atom_site_fract_z
  _atom_site_occupancy
  K   K1        1.0  0.28493  0.37965  0.04204  1.0000
  K   K2        1.0  0.71506  0.62035  0.95796  1.0000
  K   K3        1.0  0.07083  0.26803  0.72641  1.0000
  K   K4        1.0  0.92918  0.73195  0.27360  1.0000
  K   K5        1.0  0.45906  0.79274  0.46028  1.0000
  K   K6        1.0  0.54094  0.20727  0.53972  1.0000
  H   H1        1.0  0.01074  0.00094  0.36443  1.0000
  H   H2        1.0  0.98926  0.99906  0.63557  1.0000
  H   H3        1.0  0.71979  0.47280  0.36981  1.0000
  H   H4        1.0  0.28020  0.52720  0.63018  1.0000
  H   H5        1.0  0.54053  0.58328  0.23444  1.0000
  H   H6        1.0  0.45947  0.41672  0.76555  1.0000
  C   C1        1.0  0.94602  0.14052  0.27603  1.0000
  C   C2        1.0  0.05397  0.85948  0.72397  1.0000
  N   N1        1.0  0.74548  0.18493  0.24319  1.0000
  N   N2        1.0  0.25451  0.81507  0.75680  1.0000
  N   N3        1.0  0.70358  0.04557  0.31198  1.0000
  N   N4        1.0  0.29642  0.95442  0.68802  1.0000
  N   N5        1.0  0.97696  0.25035  0.35202  1.0000
  N   N6        1.0  0.02304  0.74965  0.64797  1.0000
  N   N7        1.0  0.11460  0.30072  0.31911  1.0000
  N   N8        1.0  0.88540  0.69927  0.68089  1.0000
  N   N9        1.0  0.02857  0.15507  0.13443  1.0000
  N   N10       1.0  0.97143  0.84494  0.86556  1.0000
  N   N11       1.0  0.16084  0.00168  0.15599  1.0000
  N   N12       1.0  0.83918  0.99833  0.84401  1.0000
  O   O1        1.0  0.62715  0.34639  0.16130  1.0000
  O   O2        1.0  0.37285  0.65361  0.83870  1.0000
  O   O3        1.0  0.52801  0.08070  0.29115  1.0000
  O   O4        1.0  0.47198  0.91930  0.70885  1.0000
  O   O5        1.0  0.87939  0.26672  0.46387  1.0000
  O   O6        1.0  0.12061  0.73327  0.53613  1.0000
  O   O7        1.0  0.15200  0.37577  0.40295  1.0000
  O   O8        1.0  0.84800  0.62423  0.59706  1.0000
  O   O9        1.0  0.97406  0.30250  0.00168  1.0000
  O   O10       1.0  0.02593  0.69750  0.99831  1.0000
  O   O11       1.0  0.23578  0.00755  0.03427  1.0000
  O   O12       1.0  0.76425  0.99246  0.96574  1.0000
  O   O13       1.0  0.62428  0.59582  0.30663  1.0000
  O   O14       1.0  0.37571  0.40418  0.69337  1.0000
