data_image0
_chemical_formula_structural       K12H4C4N24O24
_chemical_formula_sum              "K12 H4 C4 N24 O24"
_cell_length_a       7.33031
_cell_length_b       7.84039
_cell_length_c       19.2085
_cell_angle_alpha    82.1973
_cell_angle_beta     78.9906
_cell_angle_gamma    62.1035

_space_group_name_H-M_alt    "P 1"
_space_group_IT_number       1

loop_
  _space_group_symop_operation_xyz
  'x, y, z'

loop_
  _atom_site_type_symbol
  _atom_site_label
  _atom_site_symmetry_multiplicity
  _atom_site_fract_x
  _atom_site_fract_y
  _atom_site_fract_z
  _atom_site_occupancy
  K   K1        1.0  0.52477  0.00495  0.30462  1.0000
  K   K2        1.0  0.83456  0.49545  0.19549  1.0000
  K   K3        1.0  0.47523  0.99505  0.69538  1.0000
  K   K4        1.0  0.16544  0.50455  0.80451  1.0000
  K   K5        1.0  0.85334  0.22103  0.38687  1.0000
  K   K6        1.0  0.46140  0.27874  0.11309  1.0000
  K   K7        1.0  0.14666  0.77897  0.61313  1.0000
  K   K8        1.0  0.53860  0.72126  0.88691  1.0000
  K   K9        1.0  0.27164  0.26389  0.50559  1.0000
  K   K10       1.0  0.04051  0.23666  0.99450  1.0000
  K   K11       1.0  0.72836  0.73611  0.49441  1.0000
  K   K12       1.0  0.95949  0.76334  0.00550  1.0000
  H   H1        1.0  0.24108  0.78240  0.31524  1.0000
  H   H2        1.0  0.33881  0.71755  0.18471  1.0000
  H   H3        1.0  0.75892  0.21760  0.68476  1.0000
  H   H4        1.0  0.66119  0.28246  0.81529  1.0000
  C   C1        1.0  0.21814  0.67652  0.35502  1.0000
  C   C2        1.0  0.24973  0.82344  0.14493  1.0000
  C   C3        1.0  0.78187  0.32348  0.64498  1.0000
  C   C4        1.0  0.75027  0.17656  0.85507  1.0000
  N   N1        1.0  0.37772  0.48490  0.33369  1.0000
  N   N2        1.0  0.19626  0.01506  0.16627  1.0000
  N   N3        1.0  0.62228  0.51510  0.66631  1.0000
  N   N4        1.0  0.80374  0.98494  0.83373  1.0000
  N   N5        1.0  0.45031  0.48663  0.26541  1.0000
  N   N6        1.0  0.20222  0.01329  0.23455  1.0000
  N   N7        1.0  0.54969  0.51337  0.73459  1.0000
  N   N8        1.0  0.79778  0.98671  0.76545  1.0000
  N   N9        1.0  0.23009  0.72332  0.42495  1.0000
  N   N10       1.0  0.37845  0.77668  0.07501  1.0000
  N   N11       1.0  0.76991  0.27668  0.57505  1.0000
  N   N12       1.0  0.62155  0.22332  0.92499  1.0000
  N   N13       1.0  0.29822  0.85383  0.42078  1.0000
  N   N14       1.0  0.57298  0.64600  0.07917  1.0000
  N   N15       1.0  0.70178  0.14616  0.57922  1.0000
  N   N16       1.0  0.42703  0.35400  0.92083  1.0000
  N   N17       1.0  0.00506  0.70473  0.35498  1.0000
  N   N18       1.0  0.06484  0.79527  0.14499  1.0000
  N   N19       1.0  0.99494  0.29527  0.64502  1.0000
  N   N20       1.0  0.93515  0.20473  0.85501  1.0000
  N   N21       1.0  0.97944  0.55806  0.34213  1.0000
  N   N22       1.0  0.87955  0.94188  0.15785  1.0000
  N   N23       1.0  0.02056  0.44194  0.65787  1.0000
  N   N24       1.0  0.12045  0.05812  0.84215  1.0000
  O   O1        1.0  0.42964  0.33234  0.37683  1.0000
  O   O2        1.0  0.13882  0.16764  0.12315  1.0000
  O   O3        1.0  0.57036  0.66766  0.62316  1.0000
  O   O4        1.0  0.86118  0.83236  0.87685  1.0000
  O   O5        1.0  0.57922  0.31955  0.24191  1.0000
  O   O6        1.0  0.14055  0.18034  0.25806  1.0000
  O   O7        1.0  0.42078  0.68045  0.75809  1.0000
  O   O8        1.0  0.85945  0.81966  0.74194  1.0000
  O   O9        1.0  0.16423  0.64900  0.48296  1.0000
  O   O10       1.0  0.29623  0.85118  0.01702  1.0000
  O   O11       1.0  0.83577  0.35099  0.51704  1.0000
  O   O12       1.0  0.70377  0.14882  0.98298  1.0000
  O   O13       1.0  0.30706  0.90175  0.48108  1.0000
  O   O14       1.0  0.69005  0.59810  0.01886  1.0000
  O   O15       1.0  0.69294  0.09825  0.51892  1.0000
  O   O16       1.0  0.30995  0.40190  0.98114  1.0000
  O   O17       1.0  0.85907  0.88065  0.36612  1.0000
  O   O18       1.0  0.10622  0.61929  0.13387  1.0000
  O   O19       1.0  0.14093  0.11934  0.63388  1.0000
  O   O20       1.0  0.89378  0.38071  0.86613  1.0000
  O   O21       1.0  0.78706  0.60141  0.33932  1.0000
  O   O22       1.0  0.72777  0.89847  0.16072  1.0000
  O   O23       1.0  0.21294  0.39860  0.66068  1.0000
  O   O24       1.0  0.27223  0.10153  0.83928  1.0000
