data_image0
_chemical_formula_structural       Ag4H24C12N28O12
_chemical_formula_sum              "Ag4 H24 C12 N28 O12"
_cell_length_a       6.78691
_cell_length_b       10.3169
_cell_length_c       11.5863
_cell_angle_alpha    89.9997
_cell_angle_beta     89.9999
_cell_angle_gamma    101.371

_space_group_name_H-M_alt    "P 1"
_space_group_IT_number       1

loop_
  _space_group_symop_operation_xyz
  'x, y, z'

loop_
  _atom_site_type_symbol
  _atom_site_label
  _atom_site_symmetry_multiplicity
  _atom_site_fract_x
  _atom_site_fract_y
  _atom_site_fract_z
  _atom_site_occupancy
  Ag  Ag1       1.0  0.78119  0.09980  0.62356  1.0000
  Ag  Ag2       1.0  0.71880  0.40020  0.12356  1.0000
  Ag  Ag3       1.0  0.21881  0.90020  0.37644  1.0000
  Ag  Ag4       1.0  0.28119  0.59980  0.87644  1.0000
  H   H1        1.0  0.99884  0.93662  0.90926  1.0000
  H   H2        1.0  0.50115  0.56338  0.40926  1.0000
  H   H3        1.0  0.00116  0.06338  0.09075  1.0000
  H   H4        1.0  0.49885  0.43662  0.59074  1.0000
  H   H5        1.0  0.99212  0.95751  0.75702  1.0000
  H   H6        1.0  0.50788  0.54249  0.25703  1.0000
  H   H7        1.0  0.00788  0.04248  0.24297  1.0000
  H   H8        1.0  0.49213  0.45752  0.74298  1.0000
  H   H9        1.0  0.15885  0.30427  0.14092  1.0000
  H   H10       1.0  0.34114  0.19573  0.64092  1.0000
  H   H11       1.0  0.84115  0.69573  0.85908  1.0000
  H   H12       1.0  0.65885  0.80428  0.35908  1.0000
  H   H13       1.0  0.20233  0.46145  0.08031  1.0000
  H   H14       1.0  0.29766  0.03855  0.58031  1.0000
  H   H15       1.0  0.79766  0.53854  0.91969  1.0000
  H   H16       1.0  0.70233  0.96146  0.41969  1.0000
  H   H17       1.0  0.02332  0.51289  0.69597  1.0000
  H   H18       1.0  0.47669  0.98711  0.19598  1.0000
  H   H19       1.0  0.97669  0.48710  0.30403  1.0000
  H   H20       1.0  0.52331  0.01289  0.80403  1.0000
  H   H21       1.0  0.96511  0.37191  0.60852  1.0000
  H   H22       1.0  0.53490  0.12809  0.10853  1.0000
  H   H23       1.0  0.03490  0.62808  0.39148  1.0000
  H   H24       1.0  0.46510  0.87191  0.89148  1.0000
  C   C1        1.0  0.02534  0.12744  0.85237  1.0000
  C   C2        1.0  0.47466  0.37257  0.35237  1.0000
  C   C3        1.0  0.97467  0.87257  0.14764  1.0000
  C   C4        1.0  0.52534  0.62744  0.64763  1.0000
  C   C5        1.0  0.10543  0.30932  0.96735  1.0000
  C   C6        1.0  0.39457  0.19068  0.46735  1.0000
  C   C7        1.0  0.89457  0.69067  0.03264  1.0000
  C   C8        1.0  0.60542  0.80933  0.53264  1.0000
  C   C9        1.0  0.03493  0.33530  0.77553  1.0000
  C   C10       1.0  0.46506  0.16470  0.27553  1.0000
  C   C11       1.0  0.96507  0.66469  0.22447  1.0000
  C   C12       1.0  0.53493  0.83531  0.72447  1.0000
  N   N1        1.0  0.99318  0.20235  0.75955  1.0000
  N   N2        1.0  0.50682  0.29765  0.25955  1.0000
  N   N3        1.0  0.00682  0.79764  0.24045  1.0000
  N   N4        1.0  0.49318  0.70236  0.74045  1.0000
  N   N5        1.0  0.07147  0.17731  0.95880  1.0000
  N   N6        1.0  0.42852  0.32269  0.45880  1.0000
  N   N7        1.0  0.92853  0.82269  0.04120  1.0000
  N   N8        1.0  0.57148  0.67732  0.54120  1.0000
  N   N9        1.0  0.10226  0.39349  0.87718  1.0000
  N   N10       1.0  0.39773  0.10650  0.37718  1.0000
  N   N11       1.0  0.89774  0.60650  0.12282  1.0000
  N   N12       1.0  0.60226  0.89349  0.62282  1.0000
  N   N13       1.0  0.00828  0.99752  0.83792  1.0000
  N   N14       1.0  0.49172  0.50247  0.33792  1.0000
  N   N15       1.0  0.99172  0.00246  0.16208  1.0000
  N   N16       1.0  0.50829  0.49754  0.66208  1.0000
  N   N17       1.0  0.14289  0.36309  0.07277  1.0000
  N   N18       1.0  0.35710  0.13690  0.57277  1.0000
  N   N19       1.0  0.85712  0.63691  0.92723  1.0000
  N   N20       1.0  0.64289  0.86310  0.42723  1.0000
  N   N21       1.0  0.00733  0.41272  0.68708  1.0000
  N   N22       1.0  0.49268  0.08728  0.18708  1.0000
  N   N23       1.0  0.99267  0.58728  0.31292  1.0000
  N   N24       1.0  0.50732  0.91272  0.81292  1.0000
  N   N25       1.0  0.93237  0.23319  0.39128  1.0000
  N   N26       1.0  0.56764  0.26680  0.89128  1.0000
  N   N27       1.0  0.06763  0.76680  0.60872  1.0000
  N   N28       1.0  0.43237  0.73320  0.10872  1.0000
  O   O1        1.0  0.00631  0.30052  0.30538  1.0000
  O   O2        1.0  0.49370  0.19948  0.80538  1.0000
  O   O3        1.0  0.99370  0.69948  0.69461  1.0000
  O   O4        1.0  0.50631  0.80052  0.19462  1.0000
  O   O5        1.0  0.93193  0.10986  0.39566  1.0000
  O   O6        1.0  0.56807  0.39013  0.89566  1.0000
  O   O7        1.0  0.06807  0.89014  0.60434  1.0000
  O   O8        1.0  0.43193  0.60987  0.10434  1.0000
  O   O9        1.0  0.85561  0.28728  0.47406  1.0000
  O   O10       1.0  0.64440  0.21272  0.97405  1.0000
  O   O11       1.0  0.14439  0.71272  0.52594  1.0000
  O   O12       1.0  0.35561  0.78728  0.02594  1.0000
