data_image0
_chemical_formula_structural       Na4H28C16S4N8O20
_chemical_formula_sum              "Na4 H28 C16 S4 N8 O20"
_cell_length_a       6.73821
_cell_length_b       9.37154
_cell_length_c       13.7289
_cell_angle_alpha    90
_cell_angle_beta     89.9995
_cell_angle_gamma    90

_space_group_name_H-M_alt    "P 1"
_space_group_IT_number       1

loop_
  _space_group_symop_operation_xyz
  'x, y, z'

loop_
  _atom_site_type_symbol
  _atom_site_label
  _atom_site_symmetry_multiplicity
  _atom_site_fract_x
  _atom_site_fract_y
  _atom_site_fract_z
  _atom_site_occupancy
  Na  Na1       1.0  0.50000  0.25000  0.57314  1.0000
  Na  Na2       1.0  1.00000  0.75000  0.42686  1.0000
  Na  Na3       1.0  0.50000  0.75000  0.42686  1.0000
  Na  Na4       1.0  0.00000  0.25000  0.57314  1.0000
  H   H1        1.0  0.25000  0.13526  0.72822  1.0000
  H   H2        1.0  0.75001  0.36473  0.72822  1.0000
  H   H3        1.0  0.25000  0.63527  0.27178  1.0000
  H   H4        1.0  0.74999  0.86473  0.27178  1.0000
  H   H5        1.0  0.25000  0.30337  0.74262  1.0000
  H   H6        1.0  0.75000  0.19663  0.74262  1.0000
  H   H7        1.0  0.25000  0.80337  0.25738  1.0000
  H   H8        1.0  0.75000  0.69663  0.25738  1.0000
  H   H9        1.0  0.24999  0.27803  0.28713  1.0000
  H   H10       1.0  0.74999  0.22198  0.28712  1.0000
  H   H11       1.0  0.25001  0.77802  0.71288  1.0000
  H   H12       1.0  0.75001  0.72197  0.71288  1.0000
  H   H13       1.0  0.25000  0.29783  0.08863  1.0000
  H   H14       1.0  0.74999  0.20217  0.08863  1.0000
  H   H15       1.0  0.25000  0.79782  0.91138  1.0000
  H   H16       1.0  0.75001  0.70217  0.91137  1.0000
  H   H17       1.0  0.11729  0.03346  0.89244  1.0000
  H   H18       1.0  0.88270  0.46654  0.89243  1.0000
  H   H19       1.0  0.38270  0.53345  0.10757  1.0000
  H   H20       1.0  0.61730  0.96654  0.10756  1.0000
  H   H21       1.0  0.88270  0.96654  0.10756  1.0000
  H   H22       1.0  0.11730  0.53345  0.10757  1.0000
  H   H23       1.0  0.61730  0.46654  0.89243  1.0000
  H   H24       1.0  0.38269  0.03346  0.89243  1.0000
  H   H25       1.0  0.24999  0.19695  0.89954  1.0000
  H   H26       1.0  0.75000  0.30305  0.89954  1.0000
  H   H27       1.0  0.25000  0.69694  0.10047  1.0000
  H   H28       1.0  0.75000  0.80305  0.10046  1.0000
  C   C1        1.0  0.25000  0.10871  0.19078  1.0000
  C   C2        1.0  0.75000  0.39130  0.19078  1.0000
  C   C3        1.0  0.25000  0.60870  0.80922  1.0000
  C   C4        1.0  0.75000  0.89130  0.80922  1.0000
  C   C5        1.0  0.24999  0.18379  0.10000  1.0000
  C   C6        1.0  0.75000  0.31620  0.10000  1.0000
  C   C7        1.0  0.25000  0.68378  0.90000  1.0000
  C   C8        1.0  0.75000  0.81621  0.90000  1.0000
  C   C9        1.0  0.25000  0.08044  0.03037  1.0000
  C   C10       1.0  0.75000  0.41957  0.03036  1.0000
  C   C11       1.0  0.25000  0.58043  0.96964  1.0000
  C   C12       1.0  0.75000  0.91956  0.96963  1.0000
  C   C13       1.0  0.25000  0.08530  0.92263  1.0000
  C   C14       1.0  0.75000  0.41470  0.92262  1.0000
  C   C15       1.0  0.25000  0.58529  0.07738  1.0000
  C   C16       1.0  0.75000  0.91470  0.07737  1.0000
  S   S1        1.0  0.25000  0.07852  0.38877  1.0000
  S   S2        1.0  0.75000  0.42149  0.38876  1.0000
  S   S3        1.0  0.24999  0.57852  0.61123  1.0000
  S   S4        1.0  0.75000  0.92148  0.61123  1.0000
  N   N1        1.0  0.25001  0.96741  0.17692  1.0000
  N   N2        1.0  0.75000  0.53259  0.17691  1.0000
  N   N3        1.0  0.25000  0.46740  0.82308  1.0000
  N   N4        1.0  0.75000  0.03259  0.82309  1.0000
  N   N5        1.0  0.25001  0.17021  0.28067  1.0000
  N   N6        1.0  0.75001  0.32979  0.28067  1.0000
  N   N7        1.0  0.25000  0.67021  0.71933  1.0000
  N   N8        1.0  0.75000  0.82979  0.71933  1.0000
  O   O1        1.0  0.25000  0.94951  0.07353  1.0000
  O   O2        1.0  0.75001  0.55049  0.07353  1.0000
  O   O3        1.0  0.25000  0.44950  0.92647  1.0000
  O   O4        1.0  0.75000  0.05049  0.92647  1.0000
  O   O5        1.0  0.25001  0.19715  0.45792  1.0000
  O   O6        1.0  0.75000  0.30285  0.45792  1.0000
  O   O7        1.0  0.24999  0.69715  0.54209  1.0000
  O   O8        1.0  0.74999  0.80285  0.54208  1.0000
  O   O9        1.0  0.06791  0.99508  0.38711  1.0000
  O   O10       1.0  0.93209  0.50493  0.38711  1.0000
  O   O11       1.0  0.43209  0.49507  0.61289  1.0000
  O   O12       1.0  0.56790  0.00493  0.61289  1.0000
  O   O13       1.0  0.93209  0.00493  0.61289  1.0000
  O   O14       1.0  0.06790  0.49507  0.61289  1.0000
  O   O15       1.0  0.56791  0.50493  0.38711  1.0000
  O   O16       1.0  0.43210  0.99508  0.38711  1.0000
  O   O17       1.0  0.25000  0.22549  0.69378  1.0000
  O   O18       1.0  0.75000  0.27451  0.69378  1.0000
  O   O19       1.0  0.25001  0.72550  0.30622  1.0000
  O   O20       1.0  0.75000  0.77451  0.30622  1.0000
