data_image0
_chemical_formula_structural       Cd4H32C48N8O16
_chemical_formula_sum              "Cd4 H32 C48 N8 O16"
_cell_length_a       7.75225
_cell_length_b       8.06619
_cell_length_c       19.4647
_cell_angle_alpha    90
_cell_angle_beta     90
_cell_angle_gamma    90

_space_group_name_H-M_alt    "P 1"
_space_group_IT_number       1

loop_
  _space_group_symop_operation_xyz
  'x, y, z'

loop_
  _atom_site_type_symbol
  _atom_site_label
  _atom_site_symmetry_multiplicity
  _atom_site_fract_x
  _atom_site_fract_y
  _atom_site_fract_z
  _atom_site_occupancy
  Cd  Cd1       1.0  0.00973  0.03225  0.01063  1.0000
  Cd  Cd2       1.0  0.50974  0.96775  0.98937  1.0000
  Cd  Cd3       1.0  0.50973  0.46775  0.51063  1.0000
  Cd  Cd4       1.0  0.00973  0.53225  0.48937  1.0000
  H   H1        1.0  0.28986  0.29837  0.95400  1.0000
  H   H2        1.0  0.78986  0.70162  0.04600  1.0000
  H   H3        1.0  0.78986  0.20163  0.45400  1.0000
  H   H4        1.0  0.28986  0.79838  0.54600  1.0000
  H   H5        1.0  0.29768  0.55126  0.88127  1.0000
  H   H6        1.0  0.79766  0.44872  0.11873  1.0000
  H   H7        1.0  0.79768  0.94874  0.38126  1.0000
  H   H8        1.0  0.29767  0.05127  0.61873  1.0000
  H   H9        1.0  0.01795  0.68104  0.84409  1.0000
  H   H10       1.0  0.51793  0.31896  0.15591  1.0000
  H   H11       1.0  0.51796  0.81897  0.34409  1.0000
  H   H12       1.0  0.01794  0.18104  0.65591  1.0000
  H   H13       1.0  0.73935  0.55053  0.88467  1.0000
  H   H14       1.0  0.23933  0.44948  0.11533  1.0000
  H   H15       1.0  0.23935  0.94947  0.38467  1.0000
  H   H16       1.0  0.73934  0.05052  0.61533  1.0000
  H   H17       1.0  0.29132  0.14253  0.25490  1.0000
  H   H18       1.0  0.79133  0.85747  0.74510  1.0000
  H   H19       1.0  0.79132  0.35746  0.75490  1.0000
  H   H20       1.0  0.29132  0.64253  0.24510  1.0000
  H   H21       1.0  0.01811  0.17954  0.32298  1.0000
  H   H22       1.0  0.51811  0.82046  0.67702  1.0000
  H   H23       1.0  0.51811  0.32046  0.82298  1.0000
  H   H24       1.0  0.01810  0.67954  0.17702  1.0000
  H   H25       1.0  0.73325  0.13995  0.26117  1.0000
  H   H26       1.0  0.23325  0.86005  0.73882  1.0000
  H   H27       1.0  0.23325  0.36005  0.76118  1.0000
  H   H28       1.0  0.73324  0.63995  0.23883  1.0000
  H   H29       1.0  0.73531  0.07141  0.13669  1.0000
  H   H30       1.0  0.23531  0.92860  0.86331  1.0000
  H   H31       1.0  0.23531  0.42860  0.63669  1.0000
  H   H32       1.0  0.73530  0.57140  0.36331  1.0000
  C   C1        1.0  0.17048  0.35694  0.93716  1.0000
  C   C2        1.0  0.67048  0.64305  0.06284  1.0000
  C   C3        1.0  0.67049  0.14307  0.43716  1.0000
  C   C4        1.0  0.17048  0.85694  0.56284  1.0000
  C   C5        1.0  0.17403  0.49839  0.89613  1.0000
  C   C6        1.0  0.67402  0.50161  0.10387  1.0000
  C   C7        1.0  0.67404  0.00162  0.39613  1.0000
  C   C8        1.0  0.17402  0.99839  0.60387  1.0000
  C   C9        1.0  0.01867  0.56994  0.87584  1.0000
  C   C10       1.0  0.51866  0.43006  0.12416  1.0000
  C   C11       1.0  0.51868  0.93006  0.37584  1.0000
  C   C12       1.0  0.01866  0.06994  0.62416  1.0000
  C   C13       1.0  0.86459  0.49895  0.89813  1.0000
  C   C14       1.0  0.36457  0.50106  0.10187  1.0000
  C   C15       1.0  0.36459  0.00105  0.39813  1.0000
  C   C16       1.0  0.86458  0.99895  0.60187  1.0000
  C   C17       1.0  0.87068  0.35775  0.93945  1.0000
  C   C18       1.0  0.37067  0.64226  0.06055  1.0000
  C   C19       1.0  0.37069  0.14225  0.43945  1.0000
  C   C20       1.0  0.87068  0.85775  0.56055  1.0000
  C   C21       1.0  0.70645  0.27338  0.96281  1.0000
  C   C22       1.0  0.20645  0.72663  0.03719  1.0000
  C   C23       1.0  0.20646  0.22662  0.46281  1.0000
  C   C24       1.0  0.70645  0.77338  0.53719  1.0000
  C   C25       1.0  0.15580  0.09385  0.16094  1.0000
  C   C26       1.0  0.65579  0.90615  0.83905  1.0000
  C   C27       1.0  0.65579  0.40615  0.66094  1.0000
  C   C28       1.0  0.15579  0.59385  0.33906  1.0000
  C   C29       1.0  0.16501  0.13024  0.23095  1.0000
  C   C30       1.0  0.66501  0.86977  0.76905  1.0000
  C   C31       1.0  0.66501  0.36976  0.73095  1.0000
  C   C32       1.0  0.16500  0.63023  0.26905  1.0000
  C   C33       1.0  0.01276  0.15023  0.26822  1.0000
  C   C34       1.0  0.51276  0.84978  0.73178  1.0000
  C   C35       1.0  0.51275  0.34977  0.76822  1.0000
  C   C36       1.0  0.01275  0.65022  0.23178  1.0000
  C   C37       1.0  0.85583  0.12844  0.23427  1.0000
  C   C38       1.0  0.35582  0.87156  0.76573  1.0000
  C   C39       1.0  0.35582  0.37156  0.73427  1.0000
  C   C40       1.0  0.85582  0.62844  0.26573  1.0000
  C   C41       1.0  0.85601  0.09014  0.16442  1.0000
  C   C42       1.0  0.35601  0.90987  0.83558  1.0000
  C   C43       1.0  0.35601  0.40987  0.66442  1.0000
  C   C44       1.0  0.85600  0.59013  0.33558  1.0000
  C   C45       1.0  0.31889  0.07170  0.11911  1.0000
  C   C46       1.0  0.81889  0.92830  0.88089  1.0000
  C   C47       1.0  0.81888  0.42830  0.61911  1.0000
  C   C48       1.0  0.31888  0.57170  0.38089  1.0000
  N   N1        1.0  0.02183  0.28789  0.95795  1.0000
  N   N2        1.0  0.52182  0.71211  0.04205  1.0000
  N   N3        1.0  0.52183  0.21211  0.45795  1.0000
  N   N4        1.0  0.02182  0.78789  0.54205  1.0000
  N   N5        1.0  0.00314  0.07561  0.12833  1.0000
  N   N6        1.0  0.50314  0.92439  0.87167  1.0000
  N   N7        1.0  0.50314  0.42439  0.62833  1.0000
  N   N8        1.0  0.00313  0.57560  0.37167  1.0000
  O   O1        1.0  0.72042  0.16811  0.01249  1.0000
  O   O2        1.0  0.22041  0.83189  0.98751  1.0000
  O   O3        1.0  0.22041  0.33189  0.51249  1.0000
  O   O4        1.0  0.72041  0.66811  0.48751  1.0000
  O   O5        1.0  0.56927  0.30482  0.93145  1.0000
  O   O6        1.0  0.06926  0.69520  0.06855  1.0000
  O   O7        1.0  0.06926  0.19517  0.43145  1.0000
  O   O8        1.0  0.56926  0.80482  0.56855  1.0000
  O   O9        1.0  0.30570  0.10738  0.05457  1.0000
  O   O10       1.0  0.80570  0.89262  0.94542  1.0000
  O   O11       1.0  0.80570  0.39262  0.55458  1.0000
  O   O12       1.0  0.30569  0.60738  0.44543  1.0000
  O   O13       1.0  0.45166  0.02141  0.14889  1.0000
  O   O14       1.0  0.95166  0.97858  0.85111  1.0000
  O   O15       1.0  0.95166  0.47859  0.64889  1.0000
  O   O16       1.0  0.45166  0.52142  0.35112  1.0000
