data_image0
_chemical_formula_structural       Zn4H32C24O16
_chemical_formula_sum              "Zn4 H32 C24 O16"
_cell_length_a       4.80007
_cell_length_b       9.28922
_cell_length_c       16.1385
_cell_angle_alpha    90.149
_cell_angle_beta     90
_cell_angle_gamma    90

_space_group_name_H-M_alt    "P 1"
_space_group_IT_number       1

loop_
  _space_group_symop_operation_xyz
  'x, y, z'

loop_
  _atom_site_type_symbol
  _atom_site_label
  _atom_site_symmetry_multiplicity
  _atom_site_fract_x
  _atom_site_fract_y
  _atom_site_fract_z
  _atom_site_occupancy
  Zn  Zn1       1.0  0.46226  0.21793  0.24629  1.0000
  Zn  Zn2       1.0  0.46226  0.28207  0.75371  1.0000
  Zn  Zn3       1.0  0.53774  0.78207  0.75371  1.0000
  Zn  Zn4       1.0  0.53774  0.71793  0.24629  1.0000
  H   H1        1.0  0.64656  0.62039  0.42554  1.0000
  H   H2        1.0  0.64656  0.87961  0.57446  1.0000
  H   H3        1.0  0.35344  0.37961  0.57446  1.0000
  H   H4        1.0  0.35344  0.12039  0.42554  1.0000
  H   H5        1.0  0.94577  0.59930  0.36474  1.0000
  H   H6        1.0  0.94577  0.90070  0.63526  1.0000
  H   H7        1.0  0.05423  0.40070  0.63526  1.0000
  H   H8        1.0  0.05423  0.09930  0.36474  1.0000
  H   H9        1.0  0.76833  0.38564  0.50058  1.0000
  H   H10       1.0  0.76833  0.11436  0.49942  1.0000
  H   H11       1.0  0.23167  0.61436  0.49942  1.0000
  H   H12       1.0  0.23167  0.88564  0.50058  1.0000
  H   H13       1.0  0.07477  0.37481  0.44146  1.0000
  H   H14       1.0  0.07477  0.12519  0.55854  1.0000
  H   H15       1.0  0.92523  0.62519  0.55853  1.0000
  H   H16       1.0  0.92523  0.87481  0.44146  1.0000
  H   H17       1.0  0.24934  0.31093  0.06422  1.0000
  H   H18       1.0  0.24935  0.18907  0.93578  1.0000
  H   H19       1.0  0.75065  0.68907  0.93578  1.0000
  H   H20       1.0  0.75066  0.81093  0.06422  1.0000
  H   H21       1.0  0.21994  0.45816  0.13020  1.0000
  H   H22       1.0  0.21994  0.04184  0.86980  1.0000
  H   H23       1.0  0.78006  0.54183  0.86980  1.0000
  H   H24       1.0  0.78006  0.95816  0.13020  1.0000
  H   H25       1.0  0.76556  0.52923  0.06298  1.0000
  H   H26       1.0  0.76556  0.97077  0.93702  1.0000
  H   H27       1.0  0.23444  0.47077  0.93702  1.0000
  H   H28       1.0  0.23444  0.02923  0.06298  1.0000
  H   H29       1.0  0.78298  0.37813  0.99763  1.0000
  H   H30       1.0  0.78298  0.12187  0.00237  1.0000
  H   H31       1.0  0.21702  0.62187  0.00237  1.0000
  H   H32       1.0  0.21702  0.87813  0.99763  1.0000
  C   C1        1.0  0.62466  0.45059  0.33806  1.0000
  C   C2        1.0  0.62466  0.04941  0.66194  1.0000
  C   C3        1.0  0.37534  0.54941  0.66194  1.0000
  C   C4        1.0  0.37534  0.95059  0.33806  1.0000
  C   C5        1.0  0.78855  0.53814  0.40000  1.0000
  C   C6        1.0  0.78855  0.96186  0.60000  1.0000
  C   C7        1.0  0.21145  0.46186  0.60000  1.0000
  C   C8        1.0  0.21145  0.03814  0.40000  1.0000
  C   C9        1.0  0.92574  0.45155  0.46880  1.0000
  C   C10       1.0  0.92574  0.04845  0.53120  1.0000
  C   C11       1.0  0.07426  0.54845  0.53120  1.0000
  C   C12       1.0  0.07426  0.95155  0.46880  1.0000
  C   C13       1.0  0.93824  0.29010  0.15678  1.0000
  C   C14       1.0  0.93825  0.20989  0.84322  1.0000
  C   C15       1.0  0.06175  0.70990  0.84322  1.0000
  C   C16       1.0  0.06176  0.79011  0.15678  1.0000
  C   C17       1.0  0.09386  0.38062  0.09455  1.0000
  C   C18       1.0  0.09386  0.11938  0.90545  1.0000
  C   C19       1.0  0.90614  0.61938  0.90545  1.0000
  C   C20       1.0  0.90614  0.88062  0.09455  1.0000
  C   C21       1.0  0.91268  0.45707  0.03087  1.0000
  C   C22       1.0  0.91268  0.04293  0.96913  1.0000
  C   C23       1.0  0.08731  0.54293  0.96913  1.0000
  C   C24       1.0  0.08732  0.95707  0.03087  1.0000
  O   O1        1.0  0.60102  0.31498  0.34863  1.0000
  O   O2        1.0  0.60102  0.18502  0.65137  1.0000
  O   O3        1.0  0.39897  0.68502  0.65137  1.0000
  O   O4        1.0  0.39898  0.81498  0.34863  1.0000
  O   O5        1.0  0.51270  0.51109  0.27508  1.0000
  O   O6        1.0  0.51270  0.98891  0.72492  1.0000
  O   O7        1.0  0.48730  0.48891  0.72492  1.0000
  O   O8        1.0  0.48730  0.01109  0.27508  1.0000
  O   O9        1.0  0.67689  0.27099  0.14638  1.0000
  O   O10       1.0  0.67689  0.22901  0.85362  1.0000
  O   O11       1.0  0.32311  0.72901  0.85362  1.0000
  O   O12       1.0  0.32311  0.77099  0.14638  1.0000
  O   O13       1.0  0.06334  0.23523  0.21903  1.0000
  O   O14       1.0  0.06335  0.26477  0.78097  1.0000
  O   O15       1.0  0.93665  0.76477  0.78097  1.0000
  O   O16       1.0  0.93665  0.73523  0.21903  1.0000
