data_image0
_chemical_formula_structural       Zn2H22C18S2N12O12
_chemical_formula_sum              "Zn2 H22 C18 S2 N12 O12"
_cell_length_a       7.05157
_cell_length_b       8.3127
_cell_length_c       13.3484
_cell_angle_alpha    76.5785
_cell_angle_beta     92.1497
_cell_angle_gamma    64.9587

_space_group_name_H-M_alt    "P 1"
_space_group_IT_number       1

loop_
  _space_group_symop_operation_xyz
  'x, y, z'

loop_
  _atom_site_type_symbol
  _atom_site_label
  _atom_site_symmetry_multiplicity
  _atom_site_fract_x
  _atom_site_fract_y
  _atom_site_fract_z
  _atom_site_occupancy
  Zn  Zn1       1.0  0.31216  0.52456  0.31843  1.0000
  Zn  Zn2       1.0  0.68783  0.47545  0.68157  1.0000
  H   H1        1.0  0.91957  0.64784  0.35017  1.0000
  H   H2        1.0  0.08043  0.35216  0.64982  1.0000
  H   H3        1.0  0.04279  0.74981  0.39021  1.0000
  H   H4        1.0  0.95721  0.25019  0.60980  1.0000
  H   H5        1.0  0.27751  0.37769  0.50193  1.0000
  H   H6        1.0  0.72249  0.62232  0.49807  1.0000
  H   H7        1.0  0.19850  0.29263  0.41985  1.0000
  H   H8        1.0  0.80151  0.70738  0.58015  1.0000
  H   H9        1.0  0.93870  0.82947  0.12257  1.0000
  H   H10       1.0  0.06131  0.17053  0.87743  1.0000
  H   H11       1.0  0.82269  0.98862  0.93340  1.0000
  H   H12       1.0  0.17734  0.01139  0.06660  1.0000
  H   H13       1.0  0.98484  0.83135  0.79731  1.0000
  H   H14       1.0  0.01515  0.16864  0.20269  1.0000
  H   H15       1.0  0.23972  0.50022  0.84797  1.0000
  H   H16       1.0  0.76026  0.49977  0.15203  1.0000
  H   H17       1.0  0.68494  0.08181  0.24019  1.0000
  H   H18       1.0  0.31505  0.91820  0.75981  1.0000
  H   H19       1.0  0.50170  0.13958  0.32853  1.0000
  H   H20       1.0  0.49829  0.86043  0.67146  1.0000
  H   H21       1.0  0.29306  0.92943  0.36803  1.0000
  H   H22       1.0  0.70694  0.07057  0.63198  1.0000
  C   C1        1.0  0.37482  0.29153  0.16815  1.0000
  C   C2        1.0  0.62517  0.70847  0.83185  1.0000
  C   C3        1.0  0.23022  0.47532  0.01451  1.0000
  C   C4        1.0  0.76976  0.52468  0.98548  1.0000
  C   C5        1.0  0.15041  0.57387  0.09195  1.0000
  C   C6        1.0  0.84960  0.42613  0.90804  1.0000
  C   C7        1.0  0.00526  0.75684  0.06470  1.0000
  C   C8        1.0  0.99475  0.24316  0.93530  1.0000
  C   C9        1.0  0.93980  0.84448  0.95653  1.0000
  C   C10       1.0  0.06022  0.15552  0.04346  1.0000
  C   C11       1.0  0.02923  0.75559  0.87953  1.0000
  C   C12       1.0  0.97076  0.24441  0.12046  1.0000
  C   C13       1.0  0.16902  0.57024  0.90614  1.0000
  C   C14       1.0  0.83096  0.42975  0.09385  1.0000
  C   C15       1.0  0.51928  0.11918  0.25068  1.0000
  C   C16       1.0  0.48073  0.88081  0.74932  1.0000
  C   C17       1.0  0.37001  0.88715  0.30304  1.0000
  C   C18       1.0  0.62999  0.11285  0.69696  1.0000
  S   S1        1.0  0.81682  0.34412  0.40431  1.0000
  S   S2        1.0  0.18318  0.65588  0.59569  1.0000
  N   N1        1.0  0.25550  0.44865  0.18968  1.0000
  N   N2        1.0  0.74450  0.55135  0.81032  1.0000
  N   N3        1.0  0.36635  0.29947  0.06158  1.0000
  N   N4        1.0  0.63364  0.70053  0.93841  1.0000
  N   N5        1.0  0.47970  0.96249  0.24560  1.0000
  N   N6        1.0  0.52030  0.03751  0.75441  1.0000
  N   N7        1.0  0.55378  0.87112  0.17271  1.0000
  N   N8        1.0  0.44622  0.12888  0.82729  1.0000
  N   N9        1.0  0.48958  0.74466  0.18526  1.0000
  N   N10       1.0  0.51042  0.25533  0.81474  1.0000
  N   N11       1.0  0.37519  0.75096  0.26562  1.0000
  N   N12       1.0  0.62482  0.24905  0.73439  1.0000
  O   O1        1.0  0.64469  0.36061  0.32801  1.0000
  O   O2        1.0  0.35532  0.63938  0.67199  1.0000
  O   O3        1.0  0.78892  0.53590  0.40154  1.0000
  O   O4        1.0  0.21109  0.46409  0.59847  1.0000
  O   O5        1.0  0.80450  0.25166  0.51134  1.0000
  O   O6        1.0  0.19550  0.74833  0.48867  1.0000
  O   O7        1.0  0.02384  0.24153  0.37198  1.0000
  O   O8        1.0  0.97616  0.75846  0.62803  1.0000
  O   O9        1.0  0.00082  0.72033  0.32638  1.0000
  O   O10       1.0  0.99918  0.27967  0.67362  1.0000
  O   O11       1.0  0.31383  0.32622  0.44007  1.0000
  O   O12       1.0  0.68617  0.67379  0.55993  1.0000
