data_image0
_chemical_formula_structural       Mg4H56C48O16
_chemical_formula_sum              "Mg4 H56 C48 O16"
_cell_length_a       6.91979
_cell_length_b       11.2636
_cell_length_c       15.3196
_cell_angle_alpha    70.5505
_cell_angle_beta     83.1474
_cell_angle_gamma    89.1429

_space_group_name_H-M_alt    "P 1"
_space_group_IT_number       1

loop_
  _space_group_symop_operation_xyz
  'x, y, z'

loop_
  _atom_site_type_symbol
  _atom_site_label
  _atom_site_symmetry_multiplicity
  _atom_site_fract_x
  _atom_site_fract_y
  _atom_site_fract_z
  _atom_site_occupancy
  Mg  Mg1       1.0  0.75054  0.98047  0.75657  1.0000
  Mg  Mg2       1.0  0.24946  0.01953  0.24343  1.0000
  Mg  Mg3       1.0  0.24785  0.90487  0.77443  1.0000
  Mg  Mg4       1.0  0.75216  0.09513  0.22557  1.0000
  H   H1        1.0  0.89155  0.17354  0.44718  1.0000
  H   H2        1.0  0.10845  0.82646  0.55282  1.0000
  H   H3        1.0  0.85881  0.28496  0.50581  1.0000
  H   H4        1.0  0.14119  0.71504  0.49419  1.0000
  H   H5        1.0  0.13470  0.34024  0.58286  1.0000
  H   H6        1.0  0.86530  0.65976  0.41714  1.0000
  H   H7        1.0  0.36408  0.27011  0.57410  1.0000
  H   H8        1.0  0.63591  0.72988  0.42590  1.0000
  H   H9        1.0  0.22577  0.06892  0.43870  1.0000
  H   H10       1.0  0.77423  0.93108  0.56130  1.0000
  H   H11       1.0  0.41557  0.11083  0.49208  1.0000
  H   H12       1.0  0.58443  0.88917  0.50792  1.0000
  H   H13       1.0  0.37145  0.49038  0.46084  1.0000
  H   H14       1.0  0.62855  0.50962  0.53916  1.0000
  H   H15       1.0  0.02225  0.50227  0.43206  1.0000
  H   H16       1.0  0.97775  0.49773  0.56794  1.0000
  H   H17       1.0  0.17777  0.53971  0.32568  1.0000
  H   H18       1.0  0.82223  0.46029  0.67432  1.0000
  H   H19       1.0  0.90636  0.38808  0.33296  1.0000
  H   H20       1.0  0.09364  0.61192  0.66704  1.0000
  H   H21       1.0  0.22543  0.37657  0.24223  1.0000
  H   H22       1.0  0.77457  0.62343  0.75777  1.0000
  H   H23       1.0  0.11052  0.22622  0.29465  1.0000
  H   H24       1.0  0.88948  0.77378  0.70535  1.0000
  H   H25       1.0  0.57875  0.32526  0.42292  1.0000
  H   H26       1.0  0.42125  0.67474  0.57708  1.0000
  H   H27       1.0  0.50915  0.43716  0.32098  1.0000
  H   H28       1.0  0.49085  0.56284  0.67902  1.0000
  H   H29       1.0  0.59865  0.76670  0.90707  1.0000
  H   H30       1.0  0.40136  0.23330  0.09293  1.0000
  H   H31       1.0  0.70599  0.61733  0.93108  1.0000
  H   H32       1.0  0.29401  0.38267  0.06892  1.0000
  H   H33       1.0  0.72134  0.92730  0.97432  1.0000
  H   H34       1.0  0.27866  0.07270  0.02568  1.0000
  H   H35       1.0  0.90679  0.88666  0.04884  1.0000
  H   H36       1.0  0.09322  0.11334  0.95116  1.0000
  H   H37       1.0  0.97753  0.56007  0.03902  1.0000
  H   H38       1.0  0.02247  0.43993  0.96098  1.0000
  H   H39       1.0  0.05680  0.67241  0.08556  1.0000
  H   H40       1.0  0.94320  0.32759  0.91444  1.0000
  H   H41       1.0  0.83645  0.50748  0.20512  1.0000
  H   H42       1.0  0.16355  0.49252  0.79488  1.0000
  H   H43       1.0  0.60550  0.65511  0.25225  1.0000
  H   H44       1.0  0.39451  0.34489  0.74775  1.0000
  H   H45       1.0  0.83991  0.72769  0.21073  1.0000
  H   H46       1.0  0.16009  0.27231  0.78927  1.0000
  H   H47       1.0  0.64214  0.45500  0.09627  1.0000
  H   H48       1.0  0.35786  0.54500  0.90373  1.0000
  H   H49       1.0  0.48661  0.49412  0.18234  1.0000
  H   H50       1.0  0.51339  0.50588  0.81766  1.0000
  H   H51       1.0  0.38218  0.60509  0.02563  1.0000
  H   H52       1.0  0.61782  0.39491  0.97437  1.0000
  H   H53       1.0  0.38054  0.82062  0.03273  1.0000
  H   H54       1.0  0.61946  0.17938  0.96727  1.0000
  H   H55       1.0  0.33735  0.70954  0.14654  1.0000
  H   H56       1.0  0.66265  0.29046  0.85346  1.0000
  C   C1        1.0  0.07996  0.09553  0.60846  1.0000
  C   C2        1.0  0.92004  0.90447  0.39154  1.0000
  C   C3        1.0  0.14027  0.19806  0.51492  1.0000
  C   C4        1.0  0.85973  0.80194  0.48508  1.0000
  C   C5        1.0  0.96546  0.24944  0.46186  1.0000
  C   C6        1.0  0.03454  0.75056  0.53814  1.0000
  C   C7        1.0  0.23809  0.30661  0.53645  1.0000
  C   C8        1.0  0.76191  0.69339  0.46355  1.0000
  C   C9        1.0  0.29063  0.14740  0.45393  1.0000
  C   C10       1.0  0.70937  0.85260  0.54607  1.0000
  C   C11       1.0  0.30346  0.41324  0.44496  1.0000
  C   C12       1.0  0.69653  0.58676  0.55504  1.0000
  C   C13       1.0  0.12918  0.46277  0.39100  1.0000
  C   C14       1.0  0.87082  0.53723  0.60899  1.0000
  C   C15       1.0  0.03347  0.35491  0.37023  1.0000
  C   C16       1.0  0.96653  0.64509  0.62977  1.0000
  C   C17       1.0  0.18005  0.30317  0.30974  1.0000
  C   C18       1.0  0.81995  0.69683  0.69026  1.0000
  C   C19       1.0  0.45303  0.36183  0.38542  1.0000
  C   C20       1.0  0.54696  0.63817  0.61458  1.0000
  C   C21       1.0  0.35918  0.25499  0.36161  1.0000
  C   C22       1.0  0.64082  0.74501  0.63839  1.0000
  C   C23       1.0  0.50649  0.20292  0.30350  1.0000
  C   C24       1.0  0.49351  0.79708  0.69650  1.0000
  C   C25       1.0  0.99390  0.79530  0.90564  1.0000
  C   C26       1.0  0.00610  0.20470  0.09436  1.0000
  C   C27       1.0  0.84282  0.74199  0.98947  1.0000
  C   C28       1.0  0.15718  0.25801  0.01053  1.0000
  C   C29       1.0  0.66246  0.69135  0.96113  1.0000
  C   C30       1.0  0.33754  0.30865  0.03887  1.0000
  C   C31       1.0  0.78013  0.84915  0.02846  1.0000
  C   C32       1.0  0.21987  0.15084  0.97154  1.0000
  C   C33       1.0  0.92815  0.63571  0.06619  1.0000
  C   C34       1.0  0.07185  0.36429  0.93381  1.0000
  C   C35       1.0  0.77423  0.58409  0.15119  1.0000
  C   C36       1.0  0.22577  0.41591  0.84881  1.0000
  C   C37       1.0  0.71351  0.69023  0.18987  1.0000
  C   C38       1.0  0.28649  0.30977  0.81013  1.0000
  C   C39       1.0  0.59754  0.53288  0.12184  1.0000
  C   C40       1.0  0.40246  0.46712  0.87816  1.0000
  C   C41       1.0  0.62458  0.79806  0.11403  1.0000
  C   C42       1.0  0.37542  0.20194  0.88597  1.0000
  C   C43       1.0  0.51061  0.63945  0.04683  1.0000
  C   C44       1.0  0.48939  0.36055  0.95317  1.0000
  C   C45       1.0  0.44793  0.74533  0.08549  1.0000
  C   C46       1.0  0.55207  0.25467  0.91451  1.0000
  C   C47       1.0  0.56993  0.90167  0.15547  1.0000
  C   C48       1.0  0.43007  0.09833  0.84453  1.0000
  O   O1        1.0  0.89905  0.08234  0.64058  1.0000
  O   O2        1.0  0.10095  0.91766  0.35942  1.0000
  O   O3        1.0  0.21334  0.03143  0.65048  1.0000
  O   O4        1.0  0.78666  0.96857  0.34952  1.0000
  O   O5        1.0  0.68458  0.23244  0.29084  1.0000
  O   O6        1.0  0.31542  0.76756  0.70916  1.0000
  O   O7        1.0  0.45008  0.12204  0.26638  1.0000
  O   O8        1.0  0.54992  0.87796  0.73362  1.0000
  O   O9        1.0  0.94391  0.87837  0.82954  1.0000
  O   O10       1.0  0.05609  0.12163  0.17046  1.0000
  O   O11       1.0  0.16938  0.76482  0.90649  1.0000
  O   O12       1.0  0.83063  0.23518  0.09351  1.0000
  O   O13       1.0  0.38949  0.91453  0.18030  1.0000
  O   O14       1.0  0.61051  0.08547  0.81970  1.0000
  O   O15       1.0  0.70703  0.96762  0.16509  1.0000
  O   O16       1.0  0.29297  0.03238  0.83491  1.0000
