data_image0
_chemical_formula_structural       Cd2H28C32N16O8
_chemical_formula_sum              "Cd2 H28 C32 N16 O8"
_cell_length_a       8.13415
_cell_length_b       10.6524
_cell_length_c       10.659
_cell_angle_alpha    73.436
_cell_angle_beta     78.7547
_cell_angle_gamma    83.0696

_space_group_name_H-M_alt    "P 1"
_space_group_IT_number       1

loop_
  _space_group_symop_operation_xyz
  'x, y, z'

loop_
  _atom_site_type_symbol
  _atom_site_label
  _atom_site_symmetry_multiplicity
  _atom_site_fract_x
  _atom_site_fract_y
  _atom_site_fract_z
  _atom_site_occupancy
  Cd  Cd1       1.0  0.71780  0.77337  0.78735  1.0000
  Cd  Cd2       1.0  0.28220  0.22663  0.21265  1.0000
  H   H1        1.0  0.28664  0.90702  0.45379  1.0000
  H   H2        1.0  0.71336  0.09298  0.54621  1.0000
  H   H3        1.0  0.32943  0.67761  0.86114  1.0000
  H   H4        1.0  0.67056  0.32239  0.13886  1.0000
  H   H5        1.0  0.81624  0.02064  0.94478  1.0000
  H   H6        1.0  0.18377  0.97936  0.05522  1.0000
  H   H7        1.0  0.11308  0.14943  0.83637  1.0000
  H   H8        1.0  0.88692  0.85057  0.16363  1.0000
  H   H9        1.0  0.31877  0.16366  0.61541  1.0000
  H   H10       1.0  0.68123  0.83634  0.38459  1.0000
  H   H11       1.0  0.33020  0.03891  0.53791  1.0000
  H   H12       1.0  0.66980  0.96109  0.46209  1.0000
  H   H13       1.0  0.91674  0.64098  0.50194  1.0000
  H   H14       1.0  0.08326  0.35902  0.49806  1.0000
  H   H15       1.0  0.35183  0.50270  0.58792  1.0000
  H   H16       1.0  0.64817  0.49731  0.41208  1.0000
  H   H17       1.0  0.23729  0.58988  0.70302  1.0000
  H   H18       1.0  0.76271  0.41012  0.29698  1.0000
  H   H19       1.0  0.04011  0.56773  0.24812  1.0000
  H   H20       1.0  0.95989  0.43226  0.75188  1.0000
  H   H21       1.0  0.14632  0.78286  0.03553  1.0000
  H   H22       1.0  0.85367  0.21713  0.96447  1.0000
  H   H23       1.0  0.22317  0.73531  0.35435  1.0000
  H   H24       1.0  0.77683  0.26468  0.64565  1.0000
  H   H25       1.0  0.48839  0.28828  0.66622  1.0000
  H   H26       1.0  0.51160  0.71171  0.33378  1.0000
  H   H27       1.0  0.48823  0.11068  0.91815  1.0000
  H   H28       1.0  0.51177  0.88932  0.08185  1.0000
  C   C1        1.0  0.91287  0.01057  0.86150  1.0000
  C   C2        1.0  0.08713  0.98944  0.13849  1.0000
  C   C3        1.0  0.05715  0.07610  0.80868  1.0000
  C   C4        1.0  0.94285  0.92390  0.19132  1.0000
  C   C5        1.0  0.30561  0.05792  0.63583  1.0000
  C   C6        1.0  0.69439  0.94208  0.36417  1.0000
  C   C7        1.0  0.43669  0.97891  0.71885  1.0000
  C   C8        1.0  0.56331  0.02109  0.28115  1.0000
  C   C9        1.0  0.04168  0.93358  0.69634  1.0000
  C   C10       1.0  0.95833  0.06642  0.30366  1.0000
  C   C11       1.0  0.06324  0.85420  0.60328  1.0000
  C   C12       1.0  0.93676  0.14580  0.39671  1.0000
  C   C13       1.0  0.99532  0.70997  0.51519  1.0000
  C   C14       1.0  0.00468  0.29003  0.48481  1.0000
  C   C15       1.0  0.35644  0.53585  0.67547  1.0000
  C   C16       1.0  0.64355  0.46415  0.32453  1.0000
  C   C17       1.0  0.50390  0.62485  0.64682  1.0000
  C   C18       1.0  0.49609  0.37516  0.35319  1.0000
  C   C19       1.0  0.33403  0.40278  0.91802  1.0000
  C   C20       1.0  0.66597  0.59722  0.08197  1.0000
  C   C21       1.0  0.25099  0.49634  0.98838  1.0000
  C   C22       1.0  0.74901  0.50366  0.01162  1.0000
  C   C23       1.0  0.11230  0.57056  0.15040  1.0000
  C   C24       1.0  0.88770  0.42944  0.84960  1.0000
  C   C25       1.0  0.16170  0.67830  0.04682  1.0000
  C   C26       1.0  0.83830  0.32170  0.95318  1.0000
  C   C27       1.0  0.14565  0.75598  0.44202  1.0000
  C   C28       1.0  0.85435  0.24401  0.55799  1.0000
  C   C29       1.0  0.44806  0.29882  0.76596  1.0000
  C   C30       1.0  0.55194  0.70119  0.23404  1.0000
  C   C31       1.0  0.44438  0.21338  0.89069  1.0000
  C   C32       1.0  0.55562  0.78662  0.10931  1.0000
  N   N1        1.0  0.90518  0.92244  0.79166  1.0000
  N   N2        1.0  0.09482  0.07756  0.20834  1.0000
  N   N3        1.0  0.94520  0.77175  0.61416  1.0000
  N   N4        1.0  0.05479  0.22824  0.38585  1.0000
  N   N5        1.0  0.13656  0.02820  0.70356  1.0000
  N   N6        1.0  0.86345  0.97180  0.29644  1.0000
  N   N7        1.0  0.18755  0.84633  0.49877  1.0000
  N   N8        1.0  0.81246  0.15367  0.50123  1.0000
  N   N9        1.0  0.37336  0.27887  0.98391  1.0000
  N   N10       1.0  0.62664  0.72113  0.01609  1.0000
  N   N11       1.0  0.16872  0.45721  0.11329  1.0000
  N   N12       1.0  0.83128  0.54279  0.88671  1.0000
  N   N13       1.0  0.24899  0.62945  0.94534  1.0000
  N   N14       1.0  0.75100  0.37055  0.05465  1.0000
  N   N15       1.0  0.37729  0.41847  0.78421  1.0000
  N   N16       1.0  0.62270  0.58153  0.21579  1.0000
  O   O1        1.0  0.39200  0.91779  0.83720  1.0000
  O   O2        1.0  0.60801  0.08222  0.16280  1.0000
  O   O3        1.0  0.58918  0.98077  0.65599  1.0000
  O   O4        1.0  0.41082  0.01923  0.34400  1.0000
  O   O5        1.0  0.60684  0.63593  0.54144  1.0000
  O   O6        1.0  0.39316  0.36408  0.45856  1.0000
  O   O7        1.0  0.50552  0.67999  0.73939  1.0000
  O   O8        1.0  0.49449  0.32001  0.26062  1.0000
