data_image0
_chemical_formula_structural       Ca8H16C16O40
_chemical_formula_sum              "Ca8 H16 C16 O40"
_cell_length_a       6.33092
_cell_length_b       9.97085
_cell_length_c       14.6082
_cell_angle_alpha    90
_cell_angle_beta     89.9999
_cell_angle_gamma    106.998

_space_group_name_H-M_alt    "P 1"
_space_group_IT_number       1

loop_
  _space_group_symop_operation_xyz
  'x, y, z'

loop_
  _atom_site_type_symbol
  _atom_site_label
  _atom_site_symmetry_multiplicity
  _atom_site_fract_x
  _atom_site_fract_y
  _atom_site_fract_z
  _atom_site_occupancy
  Ca  Ca1       1.0  0.90814  0.94797  0.12388  1.0000
  Ca  Ca2       1.0  0.59186  0.55203  0.62388  1.0000
  Ca  Ca3       1.0  0.09186  0.05203  0.87612  1.0000
  Ca  Ca4       1.0  0.40814  0.44797  0.37612  1.0000
  Ca  Ca5       1.0  0.56047  0.56320  0.12311  1.0000
  Ca  Ca6       1.0  0.93953  0.93680  0.62311  1.0000
  Ca  Ca7       1.0  0.43953  0.43680  0.87689  1.0000
  Ca  Ca8       1.0  0.06047  0.06320  0.37689  1.0000
  H   H1        1.0  0.94282  0.45171  0.13458  1.0000
  H   H2        1.0  0.55718  0.04829  0.63458  1.0000
  H   H3        1.0  0.05718  0.54829  0.86542  1.0000
  H   H4        1.0  0.44282  0.95171  0.36542  1.0000
  H   H5        1.0  0.79786  0.40673  0.22337  1.0000
  H   H6        1.0  0.70214  0.09327  0.72337  1.0000
  H   H7        1.0  0.20214  0.59327  0.77663  1.0000
  H   H8        1.0  0.29786  0.90673  0.27663  1.0000
  H   H9        1.0  0.53809  0.06372  0.12549  1.0000
  H   H10       1.0  0.96191  0.43628  0.62549  1.0000
  H   H11       1.0  0.46191  0.93628  0.87451  1.0000
  H   H12       1.0  0.03809  0.56372  0.37451  1.0000
  H   H13       1.0  0.72648  0.21264  0.12742  1.0000
  H   H14       1.0  0.77352  0.28736  0.62742  1.0000
  H   H15       1.0  0.27352  0.78736  0.87258  1.0000
  H   H16       1.0  0.22648  0.71264  0.37258  1.0000
  C   C1        1.0  0.73693  0.75519  0.31996  1.0000
  C   C2        1.0  0.76307  0.74481  0.81996  1.0000
  C   C3        1.0  0.26307  0.24481  0.68004  1.0000
  C   C4        1.0  0.23693  0.25519  0.18004  1.0000
  C   C5        1.0  0.75294  0.75016  0.42690  1.0000
  C   C6        1.0  0.74706  0.74984  0.92690  1.0000
  C   C7        1.0  0.24706  0.24984  0.57310  1.0000
  C   C8        1.0  0.25294  0.25016  0.07310  1.0000
  C   C9        1.0  0.33554  0.81787  0.12786  1.0000
  C   C10       1.0  0.16446  0.68213  0.62785  1.0000
  C   C11       1.0  0.66446  0.18213  0.87214  1.0000
  C   C12       1.0  0.83554  0.31787  0.37214  1.0000
  C   C13       1.0  0.13413  0.68631  0.11772  1.0000
  C   C14       1.0  0.36587  0.81369  0.61771  1.0000
  C   C15       1.0  0.86586  0.31369  0.88228  1.0000
  C   C16       1.0  0.63413  0.18631  0.38228  1.0000
  O   O1        1.0  0.84243  0.86903  0.28155  1.0000
  O   O2        1.0  0.65757  0.63097  0.78155  1.0000
  O   O3        1.0  0.15757  0.13097  0.71845  1.0000
  O   O4        1.0  0.34243  0.36903  0.21845  1.0000
  O   O5        1.0  0.87122  0.86013  0.46574  1.0000
  O   O6        1.0  0.62878  0.63987  0.96574  1.0000
  O   O7        1.0  0.12878  0.13987  0.53426  1.0000
  O   O8        1.0  0.37122  0.36013  0.03426  1.0000
  O   O9        1.0  0.62038  0.64524  0.28072  1.0000
  O   O10       1.0  0.87962  0.85476  0.78072  1.0000
  O   O11       1.0  0.37962  0.35476  0.71928  1.0000
  O   O12       1.0  0.12038  0.14524  0.21928  1.0000
  O   O13       1.0  0.64687  0.63697  0.46557  1.0000
  O   O14       1.0  0.85314  0.86303  0.96557  1.0000
  O   O15       1.0  0.35313  0.36303  0.53443  1.0000
  O   O16       1.0  0.14686  0.13697  0.03443  1.0000
  O   O17       1.0  0.29302  0.93186  0.14691  1.0000
  O   O18       1.0  0.20699  0.56814  0.64691  1.0000
  O   O19       1.0  0.70698  0.06814  0.85309  1.0000
  O   O20       1.0  0.79302  0.43186  0.35309  1.0000
  O   O21       1.0  0.52503  0.80167  0.12086  1.0000
  O   O22       1.0  0.97497  0.69833  0.62086  1.0000
  O   O23       1.0  0.47497  0.19834  0.87914  1.0000
  O   O24       1.0  0.02503  0.30167  0.37914  1.0000
  O   O25       1.0  0.94519  0.70495  0.12121  1.0000
  O   O26       1.0  0.55481  0.79505  0.62121  1.0000
  O   O27       1.0  0.05481  0.29505  0.87879  1.0000
  O   O28       1.0  0.44519  0.20495  0.37879  1.0000
  O   O29       1.0  0.17548  0.56986  0.10962  1.0000
  O   O30       1.0  0.32452  0.93013  0.60962  1.0000
  O   O31       1.0  0.82452  0.43013  0.89038  1.0000
  O   O32       1.0  0.67548  0.06987  0.39038  1.0000
  O   O33       1.0  0.79102  0.39624  0.15630  1.0000
  O   O34       1.0  0.70898  0.10376  0.65630  1.0000
  O   O35       1.0  0.20898  0.60376  0.84370  1.0000
  O   O36       1.0  0.29102  0.89624  0.34370  1.0000
  O   O37       1.0  0.69560  0.11198  0.11226  1.0000
  O   O38       1.0  0.80440  0.38802  0.61226  1.0000
  O   O39       1.0  0.30440  0.88802  0.88774  1.0000
  O   O40       1.0  0.19560  0.61198  0.38774  1.0000
