data_image0
_chemical_formula_structural       Zn4H24C32N12Cl4
_chemical_formula_sum              "Zn4 H24 C32 N12 Cl4"
_cell_length_a       8.7707
_cell_length_b       8.5391
_cell_length_c       16.9172
_cell_angle_alpha    90.0009
_cell_angle_beta     89.9993
_cell_angle_gamma    133.015

_space_group_name_H-M_alt    "P 1"
_space_group_IT_number       1

loop_
  _space_group_symop_operation_xyz
  'x, y, z'

loop_
  _atom_site_type_symbol
  _atom_site_label
  _atom_site_symmetry_multiplicity
  _atom_site_fract_x
  _atom_site_fract_y
  _atom_site_fract_z
  _atom_site_occupancy
  Zn  Zn1       1.0  0.80202  0.46251  0.55611  1.0000
  Zn  Zn2       1.0  0.69797  0.03749  0.05611  1.0000
  Zn  Zn3       1.0  0.19797  0.53749  0.44389  1.0000
  Zn  Zn4       1.0  0.30204  0.96251  0.94389  1.0000
  H   H1        1.0  0.74148  0.69951  0.43766  1.0000
  H   H2        1.0  0.75850  0.80047  0.93767  1.0000
  H   H3        1.0  0.25852  0.30049  0.56234  1.0000
  H   H4        1.0  0.24151  0.19953  0.06233  1.0000
  H   H5        1.0  0.12376  0.68517  0.28181  1.0000
  H   H6        1.0  0.37628  0.81486  0.78181  1.0000
  H   H7        1.0  0.87624  0.31483  0.71819  1.0000
  H   H8        1.0  0.62372  0.18514  0.21819  1.0000
  H   H9        1.0  0.97952  0.73002  0.16998  1.0000
  H   H10       1.0  0.52051  0.77001  0.66999  1.0000
  H   H11       1.0  0.02048  0.26998  0.83002  1.0000
  H   H12       1.0  0.47949  0.22999  0.33002  1.0000
  H   H13       1.0  0.86654  0.82828  0.06578  1.0000
  H   H14       1.0  0.63348  0.67175  0.56579  1.0000
  H   H15       1.0  0.13346  0.17171  0.93422  1.0000
  H   H16       1.0  0.36652  0.32827  0.43421  1.0000
  H   H17       1.0  0.54810  0.88833  0.22542  1.0000
  H   H18       1.0  0.95189  0.61164  0.72544  1.0000
  H   H19       1.0  0.45189  0.11166  0.77457  1.0000
  H   H20       1.0  0.04810  0.38836  0.27456  1.0000
  H   H21       1.0  0.66359  0.81086  0.33852  1.0000
  H   H22       1.0  0.83639  0.68910  0.83853  1.0000
  H   H23       1.0  0.33640  0.18912  0.66148  1.0000
  H   H24       1.0  0.16359  0.31089  0.16146  1.0000
  C   C1        1.0  0.84133  0.68202  0.41024  1.0000
  C   C2        1.0  0.65865  0.81796  0.91025  1.0000
  C   C3        1.0  0.15866  0.31798  0.58975  1.0000
  C   C4        1.0  0.34135  0.18203  0.08975  1.0000
  C   C5        1.0  0.90621  0.71666  0.33091  1.0000
  C   C6        1.0  0.59379  0.78332  0.83091  1.0000
  C   C7        1.0  0.09378  0.28333  0.66909  1.0000
  C   C8        1.0  0.40620  0.21668  0.16909  1.0000
  C   C9        1.0  0.03436  0.67254  0.33012  1.0000
  C   C10       1.0  0.46567  0.82747  0.83012  1.0000
  C   C11       1.0  0.96566  0.32748  0.66989  1.0000
  C   C12       1.0  0.53432  0.17252  0.16989  1.0000
  C   C13       1.0  0.83943  0.76822  0.26575  1.0000
  C   C14       1.0  0.66057  0.73177  0.76576  1.0000
  C   C15       1.0  0.16057  0.23176  0.73425  1.0000
  C   C16       1.0  0.33942  0.26824  0.23424  1.0000
  C   C17       1.0  0.88817  0.76854  0.18651  1.0000
  C   C18       1.0  0.61184  0.73149  0.68652  1.0000
  C   C19       1.0  0.11183  0.23146  0.81349  1.0000
  C   C20       1.0  0.38816  0.26853  0.31348  1.0000
  C   C21       1.0  0.82310  0.82278  0.12682  1.0000
  C   C22       1.0  0.67692  0.67724  0.62683  1.0000
  C   C23       1.0  0.17691  0.17723  0.87318  1.0000
  C   C24       1.0  0.32309  0.32276  0.37318  1.0000
  C   C25       1.0  0.64940  0.85856  0.21602  1.0000
  C   C26       1.0  0.85059  0.64142  0.71602  1.0000
  C   C27       1.0  0.35061  0.14144  0.78397  1.0000
  C   C28       1.0  0.14938  0.35857  0.28397  1.0000
  C   C29       1.0  0.71288  0.81192  0.27908  1.0000
  C   C30       1.0  0.78712  0.68806  0.77909  1.0000
  C   C31       1.0  0.28711  0.18806  0.72092  1.0000
  C   C32       1.0  0.21286  0.31193  0.22091  1.0000
  N   N1        1.0  0.92029  0.61802  0.45211  1.0000
  N   N2        1.0  0.57969  0.88198  0.95211  1.0000
  N   N3        1.0  0.07970  0.38198  0.54789  1.0000
  N   N4        1.0  0.42032  0.11803  0.04789  1.0000
  N   N5        1.0  0.04025  0.61210  0.40266  1.0000
  N   N6        1.0  0.45976  0.88793  0.90265  1.0000
  N   N7        1.0  0.95975  0.38791  0.59735  1.0000
  N   N8        1.0  0.54025  0.11208  0.09735  1.0000
  N   N9        1.0  0.70691  0.87058  0.14043  1.0000
  N   N10       1.0  0.79309  0.62942  0.64044  1.0000
  N   N11       1.0  0.29310  0.12942  0.85956  1.0000
  N   N12       1.0  0.20692  0.37059  0.35956  1.0000
  Cl  Cl1       1.0  0.46100  0.17778  0.53420  1.0000
  Cl  Cl2       1.0  0.03901  0.32224  0.03420  1.0000
  Cl  Cl3       1.0  0.53901  0.82223  0.46580  1.0000
  Cl  Cl4       1.0  0.96100  0.67776  0.96580  1.0000
