data_image0
_chemical_formula_structural       Cd4H36C60S8N4O4F32
_chemical_formula_sum              "Cd4 H36 C60 S8 N4 O4 F32"
_cell_length_a       7.42412
_cell_length_b       13.7719
_cell_length_c       19.1823
_cell_angle_alpha    110.017
_cell_angle_beta     90
_cell_angle_gamma    90

_space_group_name_H-M_alt    "P 1"
_space_group_IT_number       1

loop_
  _space_group_symop_operation_xyz
  'x, y, z'

loop_
  _atom_site_type_symbol
  _atom_site_label
  _atom_site_symmetry_multiplicity
  _atom_site_fract_x
  _atom_site_fract_y
  _atom_site_fract_z
  _atom_site_occupancy
  Cd  Cd1       1.0  0.75811  0.46261  0.98416  1.0000
  Cd  Cd2       1.0  0.25811  0.03739  0.51584  1.0000
  Cd  Cd3       1.0  0.24189  0.53739  0.01584  1.0000
  Cd  Cd4       1.0  0.74189  0.96261  0.48416  1.0000
  H   H1        1.0  0.74588  0.98936  0.02851  1.0000
  H   H2        1.0  0.24590  0.51064  0.47150  1.0000
  H   H3        1.0  0.25411  0.01064  0.97149  1.0000
  H   H4        1.0  0.75411  0.48935  0.52850  1.0000
  H   H5        1.0  0.60848  0.79863  0.78386  1.0000
  H   H6        1.0  0.10848  0.70137  0.71613  1.0000
  H   H7        1.0  0.39152  0.20137  0.21614  1.0000
  H   H8        1.0  0.89151  0.29863  0.28386  1.0000
  H   H9        1.0  0.69596  0.06423  0.69731  1.0000
  H   H10       1.0  0.19596  0.43577  0.80269  1.0000
  H   H11       1.0  0.30405  0.93577  0.30269  1.0000
  H   H12       1.0  0.80405  0.56423  0.19731  1.0000
  H   H13       1.0  0.55339  0.17463  0.72193  1.0000
  H   H14       1.0  0.05338  0.32538  0.77807  1.0000
  H   H15       1.0  0.44663  0.82538  0.27807  1.0000
  H   H16       1.0  0.94663  0.67463  0.22193  1.0000
  H   H17       1.0  0.49185  0.06561  0.74733  1.0000
  H   H18       1.0  0.99184  0.43439  0.75267  1.0000
  H   H19       1.0  0.50816  0.93439  0.25267  1.0000
  H   H20       1.0  0.00816  0.56561  0.24733  1.0000
  H   H21       1.0  0.68380  0.02225  0.83577  1.0000
  H   H22       1.0  0.18380  0.47775  0.66422  1.0000
  H   H23       1.0  0.31620  0.97775  0.16423  1.0000
  H   H24       1.0  0.81621  0.52225  0.33577  1.0000
  H   H25       1.0  0.79015  0.12936  0.90480  1.0000
  H   H26       1.0  0.29015  0.37063  0.59519  1.0000
  H   H27       1.0  0.20984  0.87064  0.09520  1.0000
  H   H28       1.0  0.70985  0.62936  0.40480  1.0000
  H   H29       1.0  0.90837  0.05913  0.82193  1.0000
  H   H30       1.0  0.40837  0.44086  0.67806  1.0000
  H   H31       1.0  0.09164  0.94087  0.17807  1.0000
  H   H32       1.0  0.59163  0.55913  0.32193  1.0000
  H   H33       1.0  0.65190  0.30581  0.81283  1.0000
  H   H34       1.0  0.15189  0.19419  0.68717  1.0000
  H   H35       1.0  0.34812  0.69419  0.18717  1.0000
  H   H36       1.0  0.84811  0.80581  0.31283  1.0000
  C   C1        1.0  0.45241  0.68562  0.90536  1.0000
  C   C2        1.0  0.95241  0.81438  0.59464  1.0000
  C   C3        1.0  0.54759  0.31438  0.09464  1.0000
  C   C4        1.0  0.04758  0.18562  0.40536  1.0000
  C   C5        1.0  0.94414  0.76241  0.92322  1.0000
  C   C6        1.0  0.44416  0.73758  0.57678  1.0000
  C   C7        1.0  0.05585  0.23759  0.07677  1.0000
  C   C8        1.0  0.55584  0.26241  0.42322  1.0000
  C   C9        1.0  0.81190  0.74552  0.03164  1.0000
  C   C10       1.0  0.31191  0.75448  0.46837  1.0000
  C   C11       1.0  0.18811  0.25447  0.96836  1.0000
  C   C12       1.0  0.68809  0.24552  0.53163  1.0000
  C   C13       1.0  0.60486  0.56216  0.80444  1.0000
  C   C14       1.0  0.10486  0.93784  0.69555  1.0000
  C   C15       1.0  0.39514  0.43785  0.19556  1.0000
  C   C16       1.0  0.89513  0.06216  0.30444  1.0000
  C   C17       1.0  0.48702  0.76131  0.87423  1.0000
  C   C18       1.0  0.98701  0.73868  0.62576  1.0000
  C   C19       1.0  0.51299  0.23869  0.12577  1.0000
  C   C20       1.0  0.01297  0.26131  0.37423  1.0000
  C   C21       1.0  0.64155  0.63852  0.77418  1.0000
  C   C22       1.0  0.14154  0.86148  0.72582  1.0000
  C   C23       1.0  0.35845  0.36148  0.22582  1.0000
  C   C24       1.0  0.85844  0.13852  0.27418  1.0000
  C   C25       1.0  0.88718  0.86479  0.94573  1.0000
  C   C26       1.0  0.38720  0.63521  0.55428  1.0000
  C   C27       1.0  0.11281  0.13521  0.05427  1.0000
  C   C28       1.0  0.61280  0.36479  0.44573  1.0000
  C   C29       1.0  0.79162  0.90955  0.01117  1.0000
  C   C30       1.0  0.29163  0.59045  0.48884  1.0000
  C   C31       1.0  0.20837  0.09044  0.98884  1.0000
  C   C32       1.0  0.70836  0.40955  0.51116  1.0000
  C   C33       1.0  0.58167  0.73940  0.80815  1.0000
  C   C34       1.0  0.08167  0.76060  0.69185  1.0000
  C   C35       1.0  0.41834  0.26060  0.19185  1.0000
  C   C36       1.0  0.91833  0.23940  0.30815  1.0000
  C   C37       1.0  0.60486  0.11275  0.74032  1.0000
  C   C38       1.0  0.10486  0.38726  0.75968  1.0000
  C   C39       1.0  0.39514  0.88726  0.25968  1.0000
  C   C40       1.0  0.89515  0.61275  0.24032  1.0000
  C   C41       1.0  0.77559  0.08785  0.84519  1.0000
  C   C42       1.0  0.27559  0.41215  0.65481  1.0000
  C   C43       1.0  0.22441  0.91215  0.15481  1.0000
  C   C44       1.0  0.72442  0.58785  0.34519  1.0000
  C   C45       1.0  0.75489  0.84785  0.05352  1.0000
  C   C46       1.0  0.25490  0.65215  0.44649  1.0000
  C   C47       1.0  0.24511  0.15215  0.94648  1.0000
  C   C48       1.0  0.74510  0.34785  0.55351  1.0000
  C   C49       1.0  0.72072  0.25932  0.84159  1.0000
  C   C50       1.0  0.22071  0.24068  0.65841  1.0000
  C   C51       1.0  0.27929  0.74068  0.15841  1.0000
  C   C52       1.0  0.77929  0.75931  0.34158  1.0000
  C   C53       1.0  0.90650  0.69883  0.96519  1.0000
  C   C54       1.0  0.40651  0.80117  0.53482  1.0000
  C   C55       1.0  0.09350  0.30117  0.03481  1.0000
  C   C56       1.0  0.59349  0.19883  0.46519  1.0000
  C   C57       1.0  0.50832  0.58292  0.87097  1.0000
  C   C58       1.0  0.00832  0.91707  0.62903  1.0000
  C   C59       1.0  0.49168  0.41707  0.12903  1.0000
  C   C60       1.0  0.99168  0.08292  0.37097  1.0000
  S   S1        1.0  0.97197  0.56909  0.93134  1.0000
  S   S2        1.0  0.47197  0.93091  0.56866  1.0000
  S   S3        1.0  0.02804  0.43091  0.06866  1.0000
  S   S4        1.0  0.52803  0.06909  0.43134  1.0000
  S   S5        1.0  0.46429  0.48246  0.90453  1.0000
  S   S6        1.0  0.96429  0.01753  0.59547  1.0000
  S   S7        1.0  0.53571  0.51754  0.09547  1.0000
  S   S8        1.0  0.03570  0.98246  0.40453  1.0000
  N   N1        1.0  0.70072  0.15761  0.81018  1.0000
  N   N2        1.0  0.20072  0.34239  0.68982  1.0000
  N   N3        1.0  0.29928  0.84239  0.18982  1.0000
  N   N4        1.0  0.79928  0.65761  0.31018  1.0000
  O   O1        1.0  0.80989  0.30060  0.90020  1.0000
  O   O2        1.0  0.30990  0.19939  0.59980  1.0000
  O   O3        1.0  0.19012  0.69940  0.09981  1.0000
  O   O4        1.0  0.69010  0.80061  0.40020  1.0000
  F   F1        1.0  0.03483  0.72311  0.85812  1.0000
  F   F2        1.0  0.53485  0.77689  0.64189  1.0000
  F   F3        1.0  0.96516  0.27689  0.14188  1.0000
  F   F4        1.0  0.46515  0.22311  0.35812  1.0000
  F   F5        1.0  0.36454  0.71385  0.97142  1.0000
  F   F6        1.0  0.86454  0.78614  0.52857  1.0000
  F   F7        1.0  0.63547  0.28614  0.02857  1.0000
  F   F8        1.0  0.13546  0.21386  0.47142  1.0000
  F   F9        1.0  0.66416  0.46442  0.76806  1.0000
  F   F10       1.0  0.16415  0.03558  0.73194  1.0000
  F   F11       1.0  0.33584  0.53559  0.23194  1.0000
  F   F12       1.0  0.83584  0.96441  0.26806  1.0000
  F   F13       1.0  0.73819  0.61319  0.71049  1.0000
  F   F14       1.0  0.23817  0.88681  0.78951  1.0000
  F   F15       1.0  0.26182  0.38681  0.28951  1.0000
  F   F16       1.0  0.76181  0.11319  0.21048  1.0000
  F   F17       1.0  0.42889  0.85924  0.91070  1.0000
  F   F18       1.0  0.92888  0.64075  0.58930  1.0000
  F   F19       1.0  0.57112  0.14076  0.08930  1.0000
  F   F20       1.0  0.07110  0.35925  0.41070  1.0000
  F   F21       1.0  0.92283  0.92109  0.90123  1.0000
  F   F22       1.0  0.42286  0.57891  0.59877  1.0000
  F   F23       1.0  0.07716  0.07890  0.09876  1.0000
  F   F24       1.0  0.57714  0.42109  0.40124  1.0000
  F   F25       1.0  0.66012  0.88732  0.11761  1.0000
  F   F26       1.0  0.16013  0.61268  0.38240  1.0000
  F   F27       1.0  0.33988  0.11268  0.88239  1.0000
  F   F28       1.0  0.83988  0.38731  0.61761  1.0000
  F   F29       1.0  0.77065  0.69005  0.07601  1.0000
  F   F30       1.0  0.27064  0.80995  0.42400  1.0000
  F   F31       1.0  0.22936  0.30995  0.92399  1.0000
  F   F32       1.0  0.72935  0.19005  0.57601  1.0000
