data_image0
_chemical_formula_structural       Cd4H32C56S12O4F32
_chemical_formula_sum              "Cd4 H32 C56 S12 O4 F32"
_cell_length_a       7.51411
_cell_length_b       9.04434
_cell_length_c       26.3233
_cell_angle_alpha    90
_cell_angle_beta     90
_cell_angle_gamma    99.5584

_space_group_name_H-M_alt    "P 1"
_space_group_IT_number       1

loop_
  _space_group_symop_operation_xyz
  'x, y, z'

loop_
  _atom_site_type_symbol
  _atom_site_label
  _atom_site_symmetry_multiplicity
  _atom_site_fract_x
  _atom_site_fract_y
  _atom_site_fract_z
  _atom_site_occupancy
  Cd  Cd1       1.0  0.23276  0.96073  0.48947  1.0000
  Cd  Cd2       1.0  0.26724  0.53927  0.98947  1.0000
  Cd  Cd3       1.0  0.76724  0.03927  0.51053  1.0000
  Cd  Cd4       1.0  0.73276  0.46073  0.01053  1.0000
  H   H1        1.0  0.25377  0.48862  0.50656  1.0000
  H   H2        1.0  0.24622  0.01138  0.00656  1.0000
  H   H3        1.0  0.74622  0.51138  0.49344  1.0000
  H   H4        1.0  0.75377  0.98862  0.99344  1.0000
  H   H5        1.0  0.30138  0.38698  0.45130  1.0000
  H   H6        1.0  0.19862  0.11302  0.95130  1.0000
  H   H7        1.0  0.69862  0.61302  0.54870  1.0000
  H   H8        1.0  0.80138  0.88698  0.04870  1.0000
  H   H9        1.0  0.07360  0.41831  0.46310  1.0000
  H   H10       1.0  0.42640  0.08169  0.96310  1.0000
  H   H11       1.0  0.92640  0.58168  0.53690  1.0000
  H   H12       1.0  0.57360  0.91831  0.03690  1.0000
  H   H13       1.0  0.04412  0.52870  0.37414  1.0000
  H   H14       1.0  0.45587  0.97131  0.87414  1.0000
  H   H15       1.0  0.95587  0.47130  0.62586  1.0000
  H   H16       1.0  0.54412  0.02870  0.12586  1.0000
  H   H17       1.0  0.26712  0.49418  0.35742  1.0000
  H   H18       1.0  0.23288  0.00583  0.85742  1.0000
  H   H19       1.0  0.73288  0.50583  0.64258  1.0000
  H   H20       1.0  0.76712  0.99418  0.14258  1.0000
  H   H21       1.0  0.20795  0.67626  0.34708  1.0000
  H   H22       1.0  0.29205  0.82374  0.84708  1.0000
  H   H23       1.0  0.79204  0.32374  0.65292  1.0000
  H   H24       1.0  0.70795  0.17626  0.15292  1.0000
  H   H25       1.0  0.73367  0.72418  0.26525  1.0000
  H   H26       1.0  0.76633  0.77582  0.76525  1.0000
  H   H27       1.0  0.26633  0.27582  0.73475  1.0000
  H   H28       1.0  0.23368  0.22418  0.23475  1.0000
  H   H29       1.0  0.66431  0.19333  0.25645  1.0000
  H   H30       1.0  0.83569  0.30668  0.75644  1.0000
  H   H31       1.0  0.33569  0.80667  0.74356  1.0000
  H   H32       1.0  0.16431  0.69332  0.24356  1.0000
  C   C1        1.0  0.50746  0.07247  0.31695  1.0000
  C   C2        1.0  0.99254  0.42753  0.81695  1.0000
  C   C3        1.0  0.49255  0.92753  0.68305  1.0000
  C   C4        1.0  0.00746  0.57246  0.18305  1.0000
  C   C5        1.0  0.54837  0.17478  0.40294  1.0000
  C   C6        1.0  0.95163  0.32522  0.90293  1.0000
  C   C7        1.0  0.45163  0.82523  0.59706  1.0000
  C   C8        1.0  0.04837  0.67477  0.09706  1.0000
  C   C9        1.0  0.97161  0.01050  0.33454  1.0000
  C   C10       1.0  0.52840  0.48950  0.83454  1.0000
  C   C11       1.0  0.02839  0.98950  0.66546  1.0000
  C   C12       1.0  0.47161  0.51050  0.16546  1.0000
  C   C13       1.0  0.91594  0.96920  0.38426  1.0000
  C   C14       1.0  0.58407  0.53080  0.88426  1.0000
  C   C15       1.0  0.08406  0.03079  0.61574  1.0000
  C   C16       1.0  0.41593  0.46920  0.11574  1.0000
  C   C17       1.0  0.46768  0.06566  0.36852  1.0000
  C   C18       1.0  0.03233  0.43434  0.86852  1.0000
  C   C19       1.0  0.53232  0.93434  0.63148  1.0000
  C   C20       1.0  0.96768  0.56565  0.13148  1.0000
  C   C21       1.0  0.79489  0.83382  0.38909  1.0000
  C   C22       1.0  0.70511  0.66619  0.88909  1.0000
  C   C23       1.0  0.20511  0.16618  0.61091  1.0000
  C   C24       1.0  0.29489  0.33382  0.11091  1.0000
  C   C25       1.0  0.21730  0.46473  0.46676  1.0000
  C   C26       1.0  0.28269  0.03527  0.96676  1.0000
  C   C27       1.0  0.78269  0.53527  0.53324  1.0000
  C   C28       1.0  0.71730  0.96473  0.03324  1.0000
  C   C29       1.0  0.73125  0.74799  0.34696  1.0000
  C   C30       1.0  0.76875  0.75202  0.84696  1.0000
  C   C31       1.0  0.26874  0.25201  0.65304  1.0000
  C   C32       1.0  0.23125  0.24799  0.15304  1.0000
  C   C33       1.0  0.67528  0.29027  0.38193  1.0000
  C   C34       1.0  0.82472  0.20973  0.88193  1.0000
  C   C35       1.0  0.32472  0.70973  0.61807  1.0000
  C   C36       1.0  0.17528  0.79027  0.11807  1.0000
  C   C37       1.0  0.63197  0.18800  0.29673  1.0000
  C   C38       1.0  0.86803  0.31200  0.79673  1.0000
  C   C39       1.0  0.36803  0.81200  0.70327  1.0000
  C   C40       1.0  0.13197  0.68800  0.20327  1.0000
  C   C41       1.0  0.71549  0.29627  0.33034  1.0000
  C   C42       1.0  0.78451  0.20373  0.83034  1.0000
  C   C43       1.0  0.28451  0.70373  0.66966  1.0000
  C   C44       1.0  0.21548  0.79627  0.16966  1.0000
  C   C45       1.0  0.18738  0.57674  0.37152  1.0000
  C   C46       1.0  0.31262  0.92327  0.87152  1.0000
  C   C47       1.0  0.81261  0.42326  0.62848  1.0000
  C   C48       1.0  0.68738  0.07674  0.12848  1.0000
  C   C49       1.0  0.90825  0.92348  0.29265  1.0000
  C   C50       1.0  0.59175  0.57652  0.79265  1.0000
  C   C51       1.0  0.09174  0.07652  0.70735  1.0000
  C   C52       1.0  0.40826  0.42348  0.20735  1.0000
  C   C53       1.0  0.78701  0.79058  0.29797  1.0000
  C   C54       1.0  0.71299  0.70942  0.79797  1.0000
  C   C55       1.0  0.21299  0.20942  0.70203  1.0000
  C   C56       1.0  0.28702  0.29059  0.20202  1.0000
  S   S1        1.0  0.50168  0.17448  0.46786  1.0000
  S   S2        1.0  0.99832  0.32552  0.96786  1.0000
  S   S3        1.0  0.49831  0.82552  0.53214  1.0000
  S   S4        1.0  0.00169  0.67448  0.03214  1.0000
  S   S5        1.0  0.99219  0.08812  0.43492  1.0000
  S   S6        1.0  0.50782  0.41188  0.93492  1.0000
  S   S7        1.0  0.00782  0.91187  0.56508  1.0000
  S   S8        1.0  0.49218  0.58812  0.06508  1.0000
  S   S9        1.0  0.26779  0.63881  0.43342  1.0000
  S   S10       1.0  0.23221  0.86119  0.93342  1.0000
  S   S11       1.0  0.73221  0.36119  0.56658  1.0000
  S   S12       1.0  0.76779  0.13881  0.06658  1.0000
  O   O1        1.0  0.12761  0.73239  0.45215  1.0000
  O   O2        1.0  0.37239  0.76761  0.95215  1.0000
  O   O3        1.0  0.87239  0.26761  0.54785  1.0000
  O   O4        1.0  0.62761  0.23239  0.04785  1.0000
  F   F1        1.0  0.76262  0.39921  0.41270  1.0000
  F   F2        1.0  0.73737  0.10080  0.91270  1.0000
  F   F3        1.0  0.23738  0.60080  0.58730  1.0000
  F   F4        1.0  0.26262  0.89920  0.08730  1.0000
  F   F5        1.0  0.34753  0.94629  0.38528  1.0000
  F   F6        1.0  0.15248  0.55371  0.88528  1.0000
  F   F7        1.0  0.65248  0.05371  0.61472  1.0000
  F   F8        1.0  0.84753  0.44628  0.11472  1.0000
  F   F9        1.0  0.08711  0.14077  0.32640  1.0000
  F   F10       1.0  0.41291  0.35922  0.82640  1.0000
  F   F11       1.0  0.91290  0.85922  0.67360  1.0000
  F   F12       1.0  0.58711  0.64077  0.17360  1.0000
  F   F13       1.0  0.60946  0.62081  0.35413  1.0000
  F   F14       1.0  0.89054  0.87919  0.85413  1.0000
  F   F15       1.0  0.39055  0.37918  0.64587  1.0000
  F   F16       1.0  0.10945  0.12082  0.14587  1.0000
  F   F17       1.0  0.73365  0.78575  0.43570  1.0000
  F   F18       1.0  0.76636  0.71425  0.93570  1.0000
  F   F19       1.0  0.26635  0.21424  0.56430  1.0000
  F   F20       1.0  0.23364  0.28575  0.06430  1.0000
  F   F21       1.0  0.84042  0.41030  0.31283  1.0000
  F   F22       1.0  0.65957  0.08971  0.81283  1.0000
  F   F23       1.0  0.15959  0.58971  0.68717  1.0000
  F   F24       1.0  0.34041  0.91029  0.18717  1.0000
  F   F25       1.0  0.42269  0.96169  0.28644  1.0000
  F   F26       1.0  0.07731  0.53831  0.78644  1.0000
  F   F27       1.0  0.57732  0.03831  0.71356  1.0000
  F   F28       1.0  0.92268  0.46169  0.21356  1.0000
  F   F29       1.0  0.96305  0.97353  0.24546  1.0000
  F   F30       1.0  0.53695  0.52646  0.74546  1.0000
  F   F31       1.0  0.03695  0.02646  0.75454  1.0000
  F   F32       1.0  0.46307  0.47354  0.25454  1.0000
