data_image0
_chemical_formula_structural       Cd2H14C34S4N2F16
_chemical_formula_sum              "Cd2 H14 C34 S4 N2 F16"
_cell_length_a       7.52385
_cell_length_b       11.9161
_cell_length_c       11.9161
_cell_angle_alpha    63.5011
_cell_angle_beta     77.4644
_cell_angle_gamma    77.4645

_space_group_name_H-M_alt    "P 1"
_space_group_IT_number       1

loop_
  _space_group_symop_operation_xyz
  'x, y, z'

loop_
  _atom_site_type_symbol
  _atom_site_label
  _atom_site_symmetry_multiplicity
  _atom_site_fract_x
  _atom_site_fract_y
  _atom_site_fract_z
  _atom_site_occupancy
  Cd  Cd1       1.0  0.25000  0.53033  0.46967  1.0000
  Cd  Cd2       1.0  0.75000  0.46967  0.53033  1.0000
  H   H1        1.0  0.17815  0.62547  0.89231  1.0000
  H   H2        1.0  0.32184  0.10769  0.37453  1.0000
  H   H3        1.0  0.82184  0.37453  0.10769  1.0000
  H   H4        1.0  0.67816  0.89231  0.62547  1.0000
  H   H5        1.0  0.04172  0.81524  0.36377  1.0000
  H   H6        1.0  0.45828  0.63623  0.18475  1.0000
  H   H7        1.0  0.95828  0.18475  0.63623  1.0000
  H   H8        1.0  0.54172  0.36377  0.81525  1.0000
  H   H9        1.0  0.25000  0.02771  0.97229  1.0000
  H   H10       1.0  0.75000  0.97229  0.02771  1.0000
  H   H11       1.0  0.03316  0.01859  0.16864  1.0000
  H   H12       1.0  0.46684  0.83136  0.98140  1.0000
  H   H13       1.0  0.96684  0.98140  0.83136  1.0000
  H   H14       1.0  0.53316  0.16864  0.01860  1.0000
  C   C1        1.0  0.11557  0.45807  0.26579  1.0000
  C   C2        1.0  0.38443  0.73421  0.54193  1.0000
  C   C3        1.0  0.88442  0.54193  0.73421  1.0000
  C   C4        1.0  0.61558  0.26579  0.45807  1.0000
  C   C5        1.0  0.16090  0.58009  0.99513  1.0000
  C   C6        1.0  0.33910  0.00487  0.41991  1.0000
  C   C7        1.0  0.83910  0.41991  0.00487  1.0000
  C   C8        1.0  0.66090  0.99513  0.58009  1.0000
  C   C9        1.0  0.13341  0.82325  0.27684  1.0000
  C   C10       1.0  0.36659  0.72316  0.17674  1.0000
  C   C11       1.0  0.86659  0.17675  0.72316  1.0000
  C   C12       1.0  0.63341  0.27684  0.82326  1.0000
  C   C13       1.0  0.25000  0.94076  0.05924  1.0000
  C   C14       1.0  0.75000  0.05924  0.94076  1.0000
  C   C15       1.0  0.01309  0.57471  0.19923  1.0000
  C   C16       1.0  0.48691  0.80077  0.42529  1.0000
  C   C17       1.0  0.98691  0.42529  0.80077  1.0000
  C   C18       1.0  0.51309  0.19923  0.57471  1.0000
  C   C19       1.0  0.12921  0.93612  0.16774  1.0000
  C   C20       1.0  0.37079  0.83226  0.06388  1.0000
  C   C21       1.0  0.87079  0.06388  0.83226  1.0000
  C   C22       1.0  0.62921  0.16775  0.93612  1.0000
  C   C23       1.0  0.24405  0.40614  0.19088  1.0000
  C   C24       1.0  0.25595  0.80912  0.59386  1.0000
  C   C25       1.0  0.75595  0.59386  0.80912  1.0000
  C   C26       1.0  0.74405  0.19088  0.40614  1.0000
  C   C27       1.0  0.03508  0.63363  0.06764  1.0000
  C   C28       1.0  0.46492  0.93236  0.36638  1.0000
  C   C29       1.0  0.96492  0.36638  0.93236  1.0000
  C   C30       1.0  0.53508  0.06763  0.63362  1.0000
  C   C31       1.0  0.26422  0.46540  0.05943  1.0000
  C   C32       1.0  0.23579  0.94057  0.53460  1.0000
  C   C33       1.0  0.73578  0.53461  0.94057  1.0000
  C   C34       1.0  0.76422  0.05943  0.46540  1.0000
  S   S1        1.0  0.09204  0.38014  0.43129  1.0000
  S   S2        1.0  0.40796  0.56870  0.61986  1.0000
  S   S3        1.0  0.90796  0.61986  0.56870  1.0000
  S   S4        1.0  0.59204  0.43129  0.38014  1.0000
  N   N1        1.0  0.25000  0.71850  0.28150  1.0000
  N   N2        1.0  0.75000  0.28150  0.71850  1.0000
  F   F1        1.0  0.89276  0.63541  0.26343  1.0000
  F   F2        1.0  0.60724  0.73657  0.36459  1.0000
  F   F3        1.0  0.10724  0.36459  0.73657  1.0000
  F   F4        1.0  0.39276  0.26343  0.63541  1.0000
  F   F5        1.0  0.35433  0.29579  0.24627  1.0000
  F   F6        1.0  0.14567  0.75374  0.70421  1.0000
  F   F7        1.0  0.64566  0.70421  0.75373  1.0000
  F   F8        1.0  0.85434  0.24627  0.29579  1.0000
  F   F9        1.0  0.93021  0.74652  0.00969  1.0000
  F   F10       1.0  0.56979  0.99031  0.25348  1.0000
  F   F11       1.0  0.06979  0.25348  0.99031  1.0000
  F   F12       1.0  0.43021  0.00968  0.74652  1.0000
  F   F13       1.0  0.38929  0.40856  0.99295  1.0000
  F   F14       1.0  0.11070  0.00705  0.59144  1.0000
  F   F15       1.0  0.61070  0.59144  0.00705  1.0000
  F   F16       1.0  0.88930  0.99295  0.40856  1.0000
