data_image0
_chemical_formula_structural       Cu2H42C38N4O12
_chemical_formula_sum              "Cu2 H42 C38 N4 O12"
_cell_length_a       9.25511
_cell_length_b       9.87784
_cell_length_c       12.5498
_cell_angle_alpha    69.7462
_cell_angle_beta     72.9183
_cell_angle_gamma    73.6313

_space_group_name_H-M_alt    "P 1"
_space_group_IT_number       1

loop_
  _space_group_symop_operation_xyz
  'x, y, z'

loop_
  _atom_site_type_symbol
  _atom_site_label
  _atom_site_symmetry_multiplicity
  _atom_site_fract_x
  _atom_site_fract_y
  _atom_site_fract_z
  _atom_site_occupancy
  Cu  Cu1       1.0  0.21313  0.34092  0.16449  1.0000
  Cu  Cu2       1.0  0.78687  0.65908  0.83551  1.0000
  H   H1        1.0  0.93253  0.84716  0.44838  1.0000
  H   H2        1.0  0.06747  0.15283  0.55162  1.0000
  H   H3        1.0  0.90186  0.93471  0.30633  1.0000
  H   H4        1.0  0.09814  0.06529  0.69367  1.0000
  H   H5        1.0  0.36359  0.87647  0.80423  1.0000
  H   H6        1.0  0.63640  0.12353  0.19577  1.0000
  H   H7        1.0  0.50435  0.70217  0.15677  1.0000
  H   H8        1.0  0.49565  0.29783  0.84323  1.0000
  H   H9        1.0  0.13703  0.92981  0.05950  1.0000
  H   H10       1.0  0.86297  0.07019  0.94051  1.0000
  H   H11       1.0  0.97279  0.05626  0.10549  1.0000
  H   H12       1.0  0.02721  0.94375  0.89451  1.0000
  H   H13       1.0  0.45209  0.78697  0.99031  1.0000
  H   H14       1.0  0.54791  0.21303  0.00969  1.0000
  H   H15       1.0  0.20444  0.11934  0.87102  1.0000
  H   H16       1.0  0.79556  0.88065  0.12898  1.0000
  H   H17       1.0  0.03340  0.24586  0.91150  1.0000
  H   H18       1.0  0.96660  0.75414  0.08851  1.0000
  H   H19       1.0  0.14241  0.50371  0.92328  1.0000
  H   H20       1.0  0.85759  0.49628  0.07672  1.0000
  H   H21       1.0  0.20542  0.86889  0.38495  1.0000
  H   H22       1.0  0.79458  0.13111  0.61505  1.0000
  H   H23       1.0  0.19691  0.92971  0.23755  1.0000
  H   H24       1.0  0.80309  0.07029  0.76245  1.0000
  H   H25       1.0  0.32345  0.24065  0.38892  1.0000
  H   H26       1.0  0.67655  0.75935  0.61108  1.0000
  H   H27       1.0  0.47708  0.33907  0.47203  1.0000
  H   H28       1.0  0.52292  0.66093  0.52797  1.0000
  H   H29       1.0  0.19932  0.73556  0.77113  1.0000
  H   H30       1.0  0.80068  0.26444  0.22888  1.0000
  H   H31       1.0  0.56478  0.57654  0.35315  1.0000
  H   H32       1.0  0.43522  0.42346  0.64685  1.0000
  H   H33       1.0  0.12207  0.63825  0.37647  1.0000
  H   H34       1.0  0.87793  0.36175  0.62353  1.0000
  H   H35       1.0  0.07828  0.72592  0.23726  1.0000
  H   H36       1.0  0.92172  0.27409  0.76273  1.0000
  H   H37       1.0  0.85174  0.60935  0.46457  1.0000
  H   H38       1.0  0.14826  0.39065  0.53543  1.0000
  H   H39       1.0  0.79592  0.71732  0.33167  1.0000
  H   H40       1.0  0.20409  0.28268  0.66832  1.0000
  H   H41       1.0  0.91606  0.28999  0.38297  1.0000
  H   H42       1.0  0.08393  0.71002  0.61702  1.0000
  C   C1        1.0  0.98828  0.86012  0.35598  1.0000
  C   C2        1.0  0.01172  0.13988  0.64403  1.0000
  C   C3        1.0  0.20748  0.20410  0.00543  1.0000
  C   C4        1.0  0.79252  0.79589  0.99457  1.0000
  C   C5        1.0  0.08893  0.09028  0.32708  1.0000
  C   C6        1.0  0.91107  0.90972  0.67293  1.0000
  C   C7        1.0  0.38081  0.53778  0.17117  1.0000
  C   C8        1.0  0.61919  0.46222  0.82883  1.0000
  C   C9        1.0  0.33203  0.77683  0.86962  1.0000
  C   C10       1.0  0.66797  0.22316  0.13038  1.0000
  C   C11       1.0  0.46345  0.60146  0.21159  1.0000
  C   C12       1.0  0.53655  0.39854  0.78841  1.0000
  C   C13       1.0  0.04696  0.02390  0.02841  1.0000
  C   C14       1.0  0.95304  0.97609  0.97159  1.0000
  C   C15       1.0  0.38027  0.72828  0.97454  1.0000
  C   C16       1.0  0.61973  0.27172  0.02546  1.0000
  C   C17       1.0  0.33978  0.59973  0.05658  1.0000
  C   C18       1.0  0.66022  0.40027  0.94342  1.0000
  C   C19       1.0  0.12192  0.15244  0.94519  1.0000
  C   C20       1.0  0.87808  0.84756  0.05481  1.0000
  C   C21       1.0  0.21027  0.56924  0.93494  1.0000
  C   C22       1.0  0.78973  0.43076  0.06507  1.0000
  C   C23       1.0  0.12722  0.93127  0.32517  1.0000
  C   C24       1.0  0.87278  0.06873  0.67483  1.0000
  C   C25       1.0  0.36602  0.34247  0.34230  1.0000
  C   C26       1.0  0.63398  0.65753  0.65771  1.0000
  C   C27       1.0  0.44988  0.39857  0.38709  1.0000
  C   C28       1.0  0.55012  0.60143  0.61291  1.0000
  C   C29       1.0  0.24411  0.69831  0.84980  1.0000
  C   C30       1.0  0.75589  0.30168  0.15020  1.0000
  C   C31       1.0  0.49820  0.53029  0.32075  1.0000
  C   C32       1.0  0.50180  0.46971  0.67925  1.0000
  C   C33       1.0  0.03113  0.71140  0.33092  1.0000
  C   C34       1.0  0.96888  0.28860  0.66908  1.0000
  C   C35       1.0  0.92248  0.50247  0.33013  1.0000
  C   C36       1.0  0.07752  0.49754  0.66986  1.0000
  C   C37       1.0  0.89141  0.63828  0.36966  1.0000
  C   C38       1.0  0.10859  0.36172  0.63034  1.0000
  N   N1        1.0  0.25845  0.52103  0.03465  1.0000
  N   N2        1.0  0.74155  0.47896  0.96535  1.0000
  N   N3        1.0  0.33255  0.41081  0.23723  1.0000
  N   N4        1.0  0.66745  0.58920  0.76277  1.0000
  O   O1        1.0  0.35145  0.17887  0.98418  1.0000
  O   O2        1.0  0.64856  0.82113  0.01581  1.0000
  O   O3        1.0  0.11671  0.27327  0.07964  1.0000
  O   O4        1.0  0.88329  0.72672  0.92037  1.0000
  O   O5        1.0  0.94981  0.14919  0.36109  1.0000
  O   O6        1.0  0.05019  0.85082  0.63891  1.0000
  O   O7        1.0  0.20385  0.15562  0.29330  1.0000
  O   O8        1.0  0.79614  0.84438  0.70671  1.0000
  O   O9        1.0  0.98106  0.50317  0.22742  1.0000
  O   O10       1.0  0.01895  0.49683  0.77258  1.0000
  O   O11       1.0  0.88214  0.38551  0.41351  1.0000
  O   O12       1.0  0.11785  0.61450  0.58649  1.0000
