data_image0
_chemical_formula_structural       Ca4H24C32O20
_chemical_formula_sum              "Ca4 H24 C32 O20"
_cell_length_a       6.65965
_cell_length_b       11.1345
_cell_length_c       11.9552
_cell_angle_alpha    98.8361
_cell_angle_beta     90
_cell_angle_gamma    89.9997

_space_group_name_H-M_alt    "P 1"
_space_group_IT_number       1

loop_
  _space_group_symop_operation_xyz
  'x, y, z'

loop_
  _atom_site_type_symbol
  _atom_site_label
  _atom_site_symmetry_multiplicity
  _atom_site_fract_x
  _atom_site_fract_y
  _atom_site_fract_z
  _atom_site_occupancy
  Ca  Ca1       1.0  0.88193  0.55965  0.69639  1.0000
  Ca  Ca2       1.0  0.38193  0.44035  0.80361  1.0000
  Ca  Ca3       1.0  0.11806  0.44035  0.30361  1.0000
  Ca  Ca4       1.0  0.61807  0.55965  0.19639  1.0000
  H   H1        1.0  0.09879  0.14735  0.74156  1.0000
  H   H2        1.0  0.59880  0.85265  0.75844  1.0000
  H   H3        1.0  0.90121  0.85265  0.25844  1.0000
  H   H4        1.0  0.40120  0.14735  0.24156  1.0000
  H   H5        1.0  0.05328  0.93999  0.79376  1.0000
  H   H6        1.0  0.55329  0.06001  0.70623  1.0000
  H   H7        1.0  0.94672  0.06001  0.20623  1.0000
  H   H8        1.0  0.44671  0.93999  0.29377  1.0000
  H   H9        1.0  0.79803  0.90771  0.93742  1.0000
  H   H10       1.0  0.29803  0.09229  0.56257  1.0000
  H   H11       1.0  0.20197  0.09229  0.06257  1.0000
  H   H12       1.0  0.70197  0.90771  0.43743  1.0000
  H   H13       1.0  0.58414  0.08056  0.02604  1.0000
  H   H14       1.0  0.08414  0.91944  0.47396  1.0000
  H   H15       1.0  0.41586  0.91943  0.97396  1.0000
  H   H16       1.0  0.91585  0.08057  0.52603  1.0000
  H   H17       1.0  0.81570  0.66670  0.93716  1.0000
  H   H18       1.0  0.31570  0.33330  0.56284  1.0000
  H   H19       1.0  0.18430  0.33330  0.06284  1.0000
  H   H20       1.0  0.68430  0.66670  0.43716  1.0000
  H   H21       1.0  0.05291  0.66152  0.91288  1.0000
  H   H22       1.0  0.55292  0.33848  0.58712  1.0000
  H   H23       1.0  0.94709  0.33847  0.08712  1.0000
  H   H24       1.0  0.44709  0.66152  0.41288  1.0000
  C   C1        1.0  0.86027  0.22694  0.84898  1.0000
  C   C2        1.0  0.36028  0.77306  0.65102  1.0000
  C   C3        1.0  0.13973  0.77306  0.15102  1.0000
  C   C4        1.0  0.63972  0.22694  0.34898  1.0000
  C   C5        1.0  0.98356  0.13048  0.80181  1.0000
  C   C6        1.0  0.48356  0.86952  0.69819  1.0000
  C   C7        1.0  0.01645  0.86952  0.19820  1.0000
  C   C8        1.0  0.51644  0.13048  0.30180  1.0000
  C   C9        1.0  0.95829  0.01520  0.83137  1.0000
  C   C10       1.0  0.45829  0.98480  0.66863  1.0000
  C   C11       1.0  0.04171  0.98480  0.16863  1.0000
  C   C12       1.0  0.54171  0.01520  0.33137  1.0000
  C   C13       1.0  0.81333  0.99705  0.91164  1.0000
  C   C14       1.0  0.31332  0.00295  0.58836  1.0000
  C   C15       1.0  0.18668  0.00294  0.08836  1.0000
  C   C16       1.0  0.68667  0.99706  0.41164  1.0000
  C   C17       1.0  0.69228  0.09335  0.96058  1.0000
  C   C18       1.0  0.19228  0.90665  0.53943  1.0000
  C   C19       1.0  0.30773  0.90665  0.03943  1.0000
  C   C20       1.0  0.80772  0.09335  0.46057  1.0000
  C   C21       1.0  0.71260  0.20820  0.92868  1.0000
  C   C22       1.0  0.21260  0.79180  0.57132  1.0000
  C   C23       1.0  0.28740  0.79180  0.07132  1.0000
  C   C24       1.0  0.78740  0.20820  0.42868  1.0000
  C   C25       1.0  0.88224  0.34822  0.81299  1.0000
  C   C26       1.0  0.38224  0.65178  0.68701  1.0000
  C   C27       1.0  0.11776  0.65178  0.18701  1.0000
  C   C28       1.0  0.61776  0.34822  0.31299  1.0000
  C   C29       1.0  0.59374  0.31402  0.98882  1.0000
  C   C30       1.0  0.09374  0.68598  0.51118  1.0000
  C   C31       1.0  0.40626  0.68598  0.01119  1.0000
  C   C32       1.0  0.90626  0.31402  0.48882  1.0000
  O   O1        1.0  0.05222  0.38285  0.78149  1.0000
  O   O2        1.0  0.55223  0.61715  0.71851  1.0000
  O   O3        1.0  0.94777  0.61715  0.21851  1.0000
  O   O4        1.0  0.44777  0.38285  0.28149  1.0000
  O   O5        1.0  0.91944  0.67559  0.88015  1.0000
  O   O6        1.0  0.41944  0.32441  0.61985  1.0000
  O   O7        1.0  0.08056  0.32441  0.11985  1.0000
  O   O8        1.0  0.58056  0.67559  0.38015  1.0000
  O   O9        1.0  0.72699  0.41526  0.81142  1.0000
  O   O10       1.0  0.22700  0.58475  0.68858  1.0000
  O   O11       1.0  0.27300  0.58474  0.18858  1.0000
  O   O12       1.0  0.77300  0.41526  0.31142  1.0000
  O   O13       1.0  0.41120  0.32764  0.96168  1.0000
  O   O14       1.0  0.91120  0.67236  0.53832  1.0000
  O   O15       1.0  0.58880  0.67236  0.03832  1.0000
  O   O16       1.0  0.08880  0.32764  0.46168  1.0000
  O   O17       1.0  0.69005  0.38272  0.06540  1.0000
  O   O18       1.0  0.19005  0.61728  0.43461  1.0000
  O   O19       1.0  0.30995  0.61728  0.93461  1.0000
  O   O20       1.0  0.80995  0.38273  0.56539  1.0000
