data_image0
_chemical_formula_structural       Tb2H30C32O24
_chemical_formula_sum              "Tb2 H30 C32 O24"
_cell_length_a       6.26435
_cell_length_b       10.8302
_cell_length_c       12.9267
_cell_angle_alpha    81.7041
_cell_angle_beta     87.6553
_cell_angle_gamma    85.7039

_space_group_name_H-M_alt    "P 1"
_space_group_IT_number       1

loop_
  _space_group_symop_operation_xyz
  'x, y, z'

loop_
  _atom_site_type_symbol
  _atom_site_label
  _atom_site_symmetry_multiplicity
  _atom_site_fract_x
  _atom_site_fract_y
  _atom_site_fract_z
  _atom_site_occupancy
  Tb  Tb1       1.0  0.75789  0.73949  0.39970  1.0000
  Tb  Tb2       1.0  0.24210  0.26051  0.60030  1.0000
  H   H1        1.0  0.91475  0.38921  0.24378  1.0000
  H   H2        1.0  0.08526  0.61079  0.75623  1.0000
  H   H3        1.0  0.44942  0.30435  0.03985  1.0000
  H   H4        1.0  0.55057  0.69565  0.96015  1.0000
  H   H5        1.0  0.65773  0.45832  0.11062  1.0000
  H   H6        1.0  0.34226  0.54168  0.88938  1.0000
  H   H7        1.0  0.66652  0.03664  0.97728  1.0000
  H   H8        1.0  0.33349  0.96335  0.02272  1.0000
  H   H9        1.0  0.78391  0.23003  0.86991  1.0000
  H   H10       1.0  0.21608  0.76998  0.13009  1.0000
  H   H11       1.0  0.01718  0.36579  0.94767  1.0000
  H   H12       1.0  0.98281  0.63422  0.05233  1.0000
  H   H13       1.0  0.64063  0.79127  0.15844  1.0000
  H   H14       1.0  0.35938  0.20872  0.84155  1.0000
  H   H15       1.0  0.04803  0.61484  0.56322  1.0000
  H   H16       1.0  0.95196  0.38516  0.43677  1.0000
  H   H17       1.0  0.02231  0.75901  0.58476  1.0000
  H   H18       1.0  0.97769  0.24099  0.41523  1.0000
  H   H19       1.0  0.39875  0.71451  0.54018  1.0000
  H   H20       1.0  0.60126  0.28550  0.45983  1.0000
  H   H21       1.0  0.53045  0.58800  0.57789  1.0000
  H   H22       1.0  0.46956  0.41200  0.42211  1.0000
  H   H23       1.0  0.36462  0.91783  0.33203  1.0000
  H   H24       1.0  0.63539  0.08217  0.66797  1.0000
  H   H25       1.0  0.29678  0.77842  0.35155  1.0000
  H   H26       1.0  0.70321  0.22159  0.64846  1.0000
  H   H27       1.0  0.83870  0.92547  0.54189  1.0000
  H   H28       1.0  0.16132  0.07453  0.45810  1.0000
  H   H29       1.0  0.83278  0.99890  0.42443  1.0000
  H   H30       1.0  0.16724  0.00109  0.57556  1.0000
  C   C1        1.0  0.53287  0.58595  0.27463  1.0000
  C   C2        1.0  0.46714  0.41405  0.72537  1.0000
  C   C3        1.0  0.40380  0.51028  0.21679  1.0000
  C   C4        1.0  0.59619  0.48973  0.78321  1.0000
  C   C5        1.0  0.19190  0.49231  0.25284  1.0000
  C   C6        1.0  0.80810  0.50770  0.74716  1.0000
  C   C7        1.0  0.07762  0.57620  0.32181  1.0000
  C   C8        1.0  0.92237  0.42380  0.67819  1.0000
  C   C9        1.0  0.07855  0.40322  0.21546  1.0000
  C   C10       1.0  0.92144  0.59678  0.78455  1.0000
  C   C11       1.0  0.16973  0.33459  0.13875  1.0000
  C   C12       1.0  0.83027  0.66541  0.86125  1.0000
  C   C13       1.0  0.37713  0.35715  0.09956  1.0000
  C   C14       1.0  0.62286  0.64285  0.90044  1.0000
  C   C15       1.0  0.49396  0.44404  0.13893  1.0000
  C   C16       1.0  0.50604  0.55596  0.86106  1.0000
  C   C17       1.0  0.03595  0.24739  0.09633  1.0000
  C   C18       1.0  0.96404  0.75261  0.90368  1.0000
  C   C19       1.0  0.97524  0.13626  0.15742  1.0000
  C   C20       1.0  0.02476  0.86374  0.84258  1.0000
  C   C21       1.0  0.08619  0.09157  0.26028  1.0000
  C   C22       1.0  0.91382  0.90842  0.73972  1.0000
  C   C23       1.0  0.83670  0.06214  0.11344  1.0000
  C   C24       1.0  0.16331  0.93786  0.88656  1.0000
  C   C25       1.0  0.76970  0.94326  0.17160  1.0000
  C   C26       1.0  0.23030  0.05674  0.82841  1.0000
  C   C27       1.0  0.76750  0.09691  0.01074  1.0000
  C   C28       1.0  0.23251  0.90309  0.98926  1.0000
  C   C29       1.0  0.83145  0.20539  0.95076  1.0000
  C   C30       1.0  0.16854  0.79461  0.04924  1.0000
  C   C31       1.0  0.96468  0.28047  0.99406  1.0000
  C   C32       1.0  0.03531  0.71953  0.00594  1.0000
  O   O1        1.0  0.66460  0.66227  0.22885  1.0000
  O   O2        1.0  0.33540  0.33773  0.77115  1.0000
  O   O3        1.0  0.51243  0.56898  0.37418  1.0000
  O   O4        1.0  0.48757  0.43101  0.62582  1.0000
  O   O5        1.0  0.09927  0.69372  0.30427  1.0000
  O   O6        1.0  0.90072  0.30628  0.69573  1.0000
  O   O7        1.0  0.94209  0.53215  0.39152  1.0000
  O   O8        1.0  0.05791  0.46785  0.60848  1.0000
  O   O9        1.0  0.99713  0.11645  0.34709  1.0000
  O   O10       1.0  0.00289  0.88354  0.65291  1.0000
  O   O11       1.0  0.26596  0.03444  0.25027  1.0000
  O   O12       1.0  0.73403  0.96554  0.74972  1.0000
  O   O13       1.0  0.81653  0.90695  0.26452  1.0000
  O   O14       1.0  0.18346  0.09305  0.73547  1.0000
  O   O15       1.0  0.65871  0.87730  0.11719  1.0000
  O   O16       1.0  0.34130  0.12269  0.88280  1.0000
  O   O17       1.0  0.03435  0.70441  0.52888  1.0000
  O   O18       1.0  0.96564  0.29558  0.47112  1.0000
  O   O19       1.0  0.54457  0.67934  0.55613  1.0000
  O   O20       1.0  0.45545  0.32066  0.44388  1.0000
  O   O21       1.0  0.40700  0.83170  0.36970  1.0000
  O   O22       1.0  0.59299  0.16830  0.63031  1.0000
  O   O23       1.0  0.77853  0.92686  0.47139  1.0000
  O   O24       1.0  0.22148  0.07314  0.52861  1.0000
