data_image0
_chemical_formula_structural       Cu20H40C40S8N8Cl20
_chemical_formula_sum              "Cu20 H40 C40 S8 N8 Cl20"
_cell_length_a       11.973
_cell_length_b       13.6574
_cell_length_c       13.5883
_cell_angle_alpha    79.2741
_cell_angle_beta     63.8603
_cell_angle_gamma    65.0114

_space_group_name_H-M_alt    "P 1"
_space_group_IT_number       1

loop_
  _space_group_symop_operation_xyz
  'x, y, z'

loop_
  _atom_site_type_symbol
  _atom_site_label
  _atom_site_symmetry_multiplicity
  _atom_site_fract_x
  _atom_site_fract_y
  _atom_site_fract_z
  _atom_site_occupancy
  Cu  Cu1       1.0  0.33772  0.74352  0.74863  1.0000
  Cu  Cu2       1.0  0.08497  0.25063  0.25089  1.0000
  Cu  Cu3       1.0  0.66228  0.25648  0.25137  1.0000
  Cu  Cu4       1.0  0.91503  0.74937  0.74911  1.0000
  Cu  Cu5       1.0  0.07015  0.94146  0.65812  1.0000
  Cu  Cu6       1.0  0.72717  0.34237  0.44166  1.0000
  Cu  Cu7       1.0  0.01272  0.15850  0.05741  1.0000
  Cu  Cu8       1.0  0.17387  0.55560  0.84001  1.0000
  Cu  Cu9       1.0  0.92985  0.05854  0.34188  1.0000
  Cu  Cu10      1.0  0.27282  0.65764  0.55834  1.0000
  Cu  Cu11      1.0  0.98727  0.84150  0.94259  1.0000
  Cu  Cu12      1.0  0.82613  0.44440  0.15999  1.0000
  Cu  Cu13      1.0  0.15054  0.98955  0.80596  1.0000
  Cu  Cu14      1.0  0.95789  0.19290  0.48720  1.0000
  Cu  Cu15      1.0  0.14247  0.30904  0.00796  1.0000
  Cu  Cu16      1.0  0.44266  0.51466  0.69440  1.0000
  Cu  Cu17      1.0  0.84945  0.01046  0.19405  1.0000
  Cu  Cu18      1.0  0.04211  0.80710  0.51280  1.0000
  Cu  Cu19      1.0  0.85752  0.69096  0.99204  1.0000
  Cu  Cu20      1.0  0.55734  0.48534  0.30560  1.0000
  H   H1        1.0  0.55045  0.68146  0.47028  1.0000
  H   H2        1.0  0.02432  0.53157  0.17773  1.0000
  H   H3        1.0  0.23078  0.96933  0.32144  1.0000
  H   H4        1.0  0.19712  0.82142  0.03506  1.0000
  H   H5        1.0  0.44955  0.31854  0.52972  1.0000
  H   H6        1.0  0.97569  0.46843  0.82227  1.0000
  H   H7        1.0  0.76922  0.03067  0.67855  1.0000
  H   H8        1.0  0.80289  0.17858  0.96494  1.0000
  H   H9        1.0  0.26771  0.01604  0.51866  1.0000
  H   H10       1.0  0.78668  0.47934  0.51758  1.0000
  H   H11       1.0  0.28466  0.01998  0.98100  1.0000
  H   H12       1.0  0.30232  0.48523  0.97815  1.0000
  H   H13       1.0  0.73229  0.98396  0.48135  1.0000
  H   H14       1.0  0.21332  0.52066  0.48242  1.0000
  H   H15       1.0  0.71533  0.98002  0.01900  1.0000
  H   H16       1.0  0.69768  0.51477  0.02185  1.0000
  H   H17       1.0  0.66060  0.93068  0.27727  1.0000
  H   H18       1.0  0.93505  0.72409  0.43086  1.0000
  H   H19       1.0  0.58518  0.78073  0.06868  1.0000
  H   H20       1.0  0.36760  0.57197  0.22111  1.0000
  H   H21       1.0  0.33940  0.06932  0.72273  1.0000
  H   H22       1.0  0.06495  0.27591  0.56914  1.0000
  H   H23       1.0  0.41482  0.21927  0.93131  1.0000
  H   H24       1.0  0.63240  0.42803  0.77889  1.0000
  H   H25       1.0  0.45201  0.06548  0.36478  1.0000
  H   H26       1.0  0.81438  0.63402  0.56784  1.0000
  H   H27       1.0  0.51366  0.86838  0.93152  1.0000
  H   H28       1.0  0.38331  0.43606  0.13005  1.0000
  H   H29       1.0  0.54800  0.93452  0.63522  1.0000
  H   H30       1.0  0.18562  0.36598  0.43216  1.0000
  H   H31       1.0  0.48634  0.13162  0.06848  1.0000
  H   H32       1.0  0.61669  0.56394  0.86995  1.0000
  H   H33       1.0  0.72137  0.74533  0.31682  1.0000
  H   H34       1.0  0.03835  0.68611  0.24253  1.0000
  H   H35       1.0  0.46114  0.81840  0.25736  1.0000
  H   H36       1.0  0.28007  0.75769  0.18635  1.0000
  H   H37       1.0  0.27863  0.25467  0.68318  1.0000
  H   H38       1.0  0.96166  0.31389  0.75746  1.0000
  H   H39       1.0  0.53886  0.18160  0.74264  1.0000
  H   H40       1.0  0.71994  0.24230  0.81365  1.0000
  C   C1        1.0  0.52611  0.76701  0.45082  1.0000
  C   C2        1.0  0.97928  0.55045  0.26460  1.0000
  C   C3        1.0  0.29139  0.95090  0.23458  1.0000
  C   C4        1.0  0.24004  0.73569  0.05227  1.0000
  C   C5        1.0  0.47389  0.23299  0.54918  1.0000
  C   C6        1.0  0.02072  0.44955  0.73540  1.0000
  C   C7        1.0  0.70861  0.04910  0.76542  1.0000
  C   C8        1.0  0.75997  0.26431  0.94773  1.0000
  C   C9        1.0  0.36751  0.95423  0.47770  1.0000
  C   C10       1.0  0.84576  0.52139  0.45481  1.0000
  C   C11       1.0  0.32135  0.97912  0.04413  1.0000
  C   C12       1.0  0.29879  0.54760  0.02038  1.0000
  C   C13       1.0  0.63249  0.04577  0.52231  1.0000
  C   C14       1.0  0.15425  0.47861  0.54518  1.0000
  C   C15       1.0  0.67865  0.02088  0.95587  1.0000
  C   C16       1.0  0.70121  0.45240  0.97962  1.0000
  C   C17       1.0  0.39554  0.84443  0.50771  1.0000
  C   C18       1.0  0.90537  0.49233  0.34333  1.0000
  C   C19       1.0  0.23991  0.00803  0.15559  1.0000
  C   C20       1.0  0.24489  0.65771  0.99337  1.0000
  C   C21       1.0  0.60447  0.15557  0.49229  1.0000
  C   C22       1.0  0.09464  0.50766  0.65667  1.0000
  C   C23       1.0  0.76009  0.99197  0.84441  1.0000
  C   C24       1.0  0.75511  0.34229  0.00663  1.0000
  C   C25       1.0  0.46641  0.98310  0.39410  1.0000
  C   C26       1.0  0.85960  0.60538  0.48414  1.0000
  C   C27       1.0  0.44670  0.89664  0.01521  1.0000
  C   C28       1.0  0.34375  0.51880  0.10291  1.0000
  C   C29       1.0  0.53359  0.01690  0.60590  1.0000
  C   C30       1.0  0.14040  0.39462  0.51586  1.0000
  C   C31       1.0  0.55330  0.10336  0.98479  1.0000
  C   C32       1.0  0.65626  0.48120  0.89709  1.0000
  C   C33       1.0  0.62109  0.80021  0.36761  1.0000
  C   C34       1.0  0.98912  0.63429  0.29828  1.0000
  C   C35       1.0  0.41736  0.86896  0.20125  1.0000
  C   C36       1.0  0.28607  0.70257  0.13423  1.0000
  C   C37       1.0  0.37891  0.19979  0.63239  1.0000
  C   C38       1.0  0.01088  0.36571  0.70172  1.0000
  C   C39       1.0  0.58264  0.13104  0.79875  1.0000
  C   C40       1.0  0.71394  0.29743  0.86577  1.0000
  S   S1        1.0  0.27085  0.80521  0.60955  1.0000
  S   S2        1.0  0.88315  0.39055  0.30338  1.0000
  S   S3        1.0  0.07863  0.10828  0.19463  1.0000
  S   S4        1.0  0.18167  0.69617  0.89304  1.0000
  S   S5        1.0  0.72915  0.19479  0.39046  1.0000
  S   S6        1.0  0.11685  0.60945  0.69662  1.0000
  S   S7        1.0  0.92137  0.89172  0.80537  1.0000
  S   S8        1.0  0.81833  0.30383  0.10696  1.0000
  N   N1        1.0  0.58994  0.90652  0.34114  1.0000
  N   N2        1.0  0.93011  0.65970  0.40624  1.0000
  N   N3        1.0  0.49217  0.84365  0.09328  1.0000
  N   N4        1.0  0.33686  0.59592  0.15770  1.0000
  N   N5        1.0  0.41006  0.09348  0.65886  1.0000
  N   N6        1.0  0.06989  0.34030  0.59375  1.0000
  N   N7        1.0  0.50783  0.15635  0.90672  1.0000
  N   N8        1.0  0.66315  0.40408  0.84229  1.0000
  Cl  Cl1       1.0  0.00000  1.00000  0.50000  1.0000
  Cl  Cl2       1.0  0.50000  0.50000  0.50000  1.0000
  Cl  Cl3       1.0  1.00000  1.00000  1.00000  1.0000
  Cl  Cl4       1.0  1.00000  0.50000  1.00000  1.0000
  Cl  Cl5       1.0  0.35253  0.89112  0.80605  1.0000
  Cl  Cl6       1.0  0.16400  0.19227  0.39143  1.0000
  Cl  Cl7       1.0  0.24951  0.30691  0.10671  1.0000
  Cl  Cl8       1.0  0.55480  0.60866  0.69562  1.0000
  Cl  Cl9       1.0  0.64746  0.10888  0.19395  1.0000
  Cl  Cl10      1.0  0.83600  0.80773  0.60857  1.0000
  Cl  Cl11      1.0  0.75049  0.69309  0.89329  1.0000
  Cl  Cl12      1.0  0.44520  0.39134  0.30438  1.0000
  Cl  Cl13      1.0  0.04966  0.10682  0.70586  1.0000
  Cl  Cl14      1.0  0.75635  0.29260  0.60628  1.0000
  Cl  Cl15      1.0  0.15575  0.20775  0.89094  1.0000
  Cl  Cl16      1.0  0.36179  0.39220  0.79246  1.0000
  Cl  Cl17      1.0  0.95034  0.89318  0.29414  1.0000
  Cl  Cl18      1.0  0.24364  0.70740  0.39372  1.0000
  Cl  Cl19      1.0  0.84424  0.79225  0.10906  1.0000
  Cl  Cl20      1.0  0.63820  0.60780  0.20754  1.0000
