data_image0
_chemical_formula_structural       Zn4H44C52N12O16
_chemical_formula_sum              "Zn4 H44 C52 N12 O16"
_cell_length_a       11.6136
_cell_length_b       13.1283
_cell_length_c       14.069
_cell_angle_alpha    90
_cell_angle_beta     93.1583
_cell_angle_gamma    90

_space_group_name_H-M_alt    "P 1"
_space_group_IT_number       1

loop_
  _space_group_symop_operation_xyz
  'x, y, z'

loop_
  _atom_site_type_symbol
  _atom_site_label
  _atom_site_symmetry_multiplicity
  _atom_site_fract_x
  _atom_site_fract_y
  _atom_site_fract_z
  _atom_site_occupancy
  Zn  Zn1       1.0  0.44373  0.56483  0.41420  1.0000
  Zn  Zn2       1.0  0.05627  0.06483  0.08580  1.0000
  Zn  Zn3       1.0  0.55627  0.43517  0.58580  1.0000
  Zn  Zn4       1.0  0.94373  0.93517  0.91420  1.0000
  H   H1        1.0  0.95901  0.23293  0.34496  1.0000
  H   H2        1.0  0.54099  0.73293  0.15504  1.0000
  H   H3        1.0  0.04099  0.76707  0.65504  1.0000
  H   H4        1.0  0.45901  0.26707  0.84496  1.0000
  H   H5        1.0  0.52618  0.69465  0.56591  1.0000
  H   H6        1.0  0.97382  0.19465  0.93409  1.0000
  H   H7        1.0  0.47382  0.30535  0.43409  1.0000
  H   H8        1.0  0.02618  0.80535  0.06591  1.0000
  H   H9        1.0  0.46894  0.75092  0.47934  1.0000
  H   H10       1.0  0.03106  0.25092  0.02066  1.0000
  H   H11       1.0  0.53106  0.24908  0.52066  1.0000
  H   H12       1.0  0.96894  0.74908  0.97934  1.0000
  H   H13       1.0  0.73936  0.32700  0.49067  1.0000
  H   H14       1.0  0.76064  0.82700  0.00933  1.0000
  H   H15       1.0  0.26064  0.67300  0.50933  1.0000
  H   H16       1.0  0.23936  0.17300  0.99067  1.0000
  H   H17       1.0  0.92156  0.35652  0.23262  1.0000
  H   H18       1.0  0.57844  0.85652  0.26738  1.0000
  H   H19       1.0  0.07844  0.64348  0.76738  1.0000
  H   H20       1.0  0.42156  0.14348  0.73262  1.0000
  H   H21       1.0  0.78991  0.49612  0.18028  1.0000
  H   H22       1.0  0.71009  0.99612  0.31972  1.0000
  H   H23       1.0  0.21009  0.50388  0.81972  1.0000
  H   H24       1.0  0.28991  0.00388  0.68028  1.0000
  H   H25       1.0  0.64462  0.60192  0.19355  1.0000
  H   H26       1.0  0.85539  0.10192  0.30646  1.0000
  H   H27       1.0  0.35538  0.39808  0.80646  1.0000
  H   H28       1.0  0.14461  0.89808  0.69354  1.0000
  H   H29       1.0  0.19202  0.81399  0.35167  1.0000
  H   H30       1.0  0.30798  0.31398  0.14833  1.0000
  H   H31       1.0  0.80798  0.18602  0.64833  1.0000
  H   H32       1.0  0.69202  0.68601  0.85167  1.0000
  H   H33       1.0  0.07002  0.94826  0.26867  1.0000
  H   H34       1.0  0.42999  0.44826  0.23133  1.0000
  H   H35       1.0  0.92999  0.05174  0.73133  1.0000
  H   H36       1.0  0.57001  0.55174  0.76867  1.0000
  H   H37       1.0  0.27041  0.94337  0.03412  1.0000
  H   H38       1.0  0.22959  0.44337  0.46588  1.0000
  H   H39       1.0  0.72959  0.05663  0.96588  1.0000
  H   H40       1.0  0.77041  0.55663  0.53412  1.0000
  H   H41       1.0  0.39947  0.81069  0.10585  1.0000
  H   H42       1.0  0.10053  0.31069  0.39415  1.0000
  H   H43       1.0  0.60053  0.18931  0.89415  1.0000
  H   H44       1.0  0.89947  0.68931  0.60585  1.0000
  C   C1        1.0  0.67171  0.44201  0.39285  1.0000
  C   C2        1.0  0.82829  0.94201  0.10715  1.0000
  C   C3        1.0  0.32829  0.55799  0.60715  1.0000
  C   C4        1.0  0.17171  0.05799  0.89285  1.0000
  C   C5        1.0  0.74900  0.36447  0.42239  1.0000
  C   C6        1.0  0.75100  0.86447  0.07761  1.0000
  C   C7        1.0  0.25100  0.63553  0.57761  1.0000
  C   C8        1.0  0.24900  0.13553  0.92239  1.0000
  C   C9        1.0  0.83768  0.33300  0.36551  1.0000
  C   C10       1.0  0.66233  0.83300  0.13449  1.0000
  C   C11       1.0  0.16233  0.66700  0.63449  1.0000
  C   C12       1.0  0.33767  0.16700  0.86551  1.0000
  C   C13       1.0  0.85288  0.38104  0.27701  1.0000
  C   C14       1.0  0.64712  0.88104  0.22300  1.0000
  C   C15       1.0  0.14712  0.61896  0.72300  1.0000
  C   C16       1.0  0.35288  0.11896  0.77700  1.0000
  C   C17       1.0  0.77874  0.45833  0.24828  1.0000
  C   C18       1.0  0.72126  0.95832  0.25172  1.0000
  C   C19       1.0  0.22126  0.54168  0.75172  1.0000
  C   C20       1.0  0.27874  0.04167  0.74828  1.0000
  C   C21       1.0  0.68676  0.49158  0.30286  1.0000
  C   C22       1.0  0.81324  0.99158  0.19714  1.0000
  C   C23       1.0  0.31324  0.50842  0.69714  1.0000
  C   C24       1.0  0.18676  0.00842  0.80286  1.0000
  C   C25       1.0  0.61752  0.57179  0.26165  1.0000
  C   C26       1.0  0.88248  0.07179  0.23835  1.0000
  C   C27       1.0  0.38248  0.42821  0.73835  1.0000
  C   C28       1.0  0.11752  0.92821  0.76165  1.0000
  C   C29       1.0  0.37795  0.72246  0.28750  1.0000
  C   C30       1.0  0.12205  0.22246  0.21250  1.0000
  C   C31       1.0  0.62205  0.27754  0.71250  1.0000
  C   C32       1.0  0.87795  0.77754  0.78750  1.0000
  C   C33       1.0  0.30713  0.80187  0.23661  1.0000
  C   C34       1.0  0.19287  0.30187  0.26339  1.0000
  C   C35       1.0  0.69287  0.19813  0.76339  1.0000
  C   C36       1.0  0.80713  0.69813  0.73661  1.0000
  C   C37       1.0  0.21207  0.84171  0.28157  1.0000
  C   C38       1.0  0.28793  0.34172  0.21843  1.0000
  C   C39       1.0  0.78793  0.15828  0.71843  1.0000
  C   C40       1.0  0.71207  0.65828  0.78157  1.0000
  C   C41       1.0  0.14443  0.91577  0.23566  1.0000
  C   C42       1.0  0.35557  0.41577  0.26433  1.0000
  C   C43       1.0  0.85557  0.08423  0.76434  1.0000
  C   C44       1.0  0.64443  0.58423  0.73566  1.0000
  C   C45       1.0  0.25655  0.91328  0.10477  1.0000
  C   C46       1.0  0.24345  0.41328  0.39523  1.0000
  C   C47       1.0  0.74345  0.08672  0.89523  1.0000
  C   C48       1.0  0.75655  0.58672  0.60478  1.0000
  C   C49       1.0  0.32853  0.83900  0.14571  1.0000
  C   C50       1.0  0.17147  0.33900  0.35429  1.0000
  C   C51       1.0  0.67148  0.16100  0.85429  1.0000
  C   C52       1.0  0.82853  0.66100  0.64571  1.0000
  N   N1        1.0  0.52492  0.61074  0.29639  1.0000
  N   N2        1.0  0.97508  0.11074  0.20361  1.0000
  N   N3        1.0  0.47508  0.38926  0.70361  1.0000
  N   N4        1.0  0.02492  0.88926  0.79639  1.0000
  N   N5        1.0  0.46828  0.68560  0.24373  1.0000
  N   N6        1.0  0.03172  0.18560  0.25627  1.0000
  N   N7        1.0  0.53172  0.31440  0.75627  1.0000
  N   N8        1.0  0.96828  0.81440  0.74373  1.0000
  N   N9        1.0  0.16584  0.95167  0.14863  1.0000
  N   N10       1.0  0.33416  0.45167  0.35137  1.0000
  N   N11       1.0  0.83416  0.04833  0.85137  1.0000
  N   N12       1.0  0.66584  0.54832  0.64863  1.0000
  O   O1        1.0  0.90672  0.25616  0.39742  1.0000
  O   O2        1.0  0.59328  0.75616  0.10258  1.0000
  O   O3        1.0  0.09328  0.74384  0.60258  1.0000
  O   O4        1.0  0.40672  0.24384  0.89742  1.0000
  O   O5        1.0  0.54243  0.72216  0.50376  1.0000
  O   O6        1.0  0.95757  0.22216  0.99624  1.0000
  O   O7        1.0  0.45757  0.27784  0.49624  1.0000
  O   O8        1.0  0.04243  0.77784  0.00377  1.0000
  O   O9        1.0  0.58615  0.46828  0.44757  1.0000
  O   O10       1.0  0.91384  0.96828  0.05243  1.0000
  O   O11       1.0  0.41384  0.53171  0.55243  1.0000
  O   O12       1.0  0.08616  0.03172  0.94757  1.0000
  O   O13       1.0  0.34718  0.69421  0.37038  1.0000
  O   O14       1.0  0.15282  0.19421  0.12963  1.0000
  O   O15       1.0  0.65282  0.30579  0.62962  1.0000
  O   O16       1.0  0.84718  0.80579  0.87037  1.0000
