data_image0
_chemical_formula_structural       Ag4H12C18S2Br2N2O12
_chemical_formula_sum              "Ag4 H12 C18 S2 Br2 N2 O12"
_cell_length_a       6.97502
_cell_length_b       8.18068
_cell_length_c       12.2837
_cell_angle_alpha    85.1302
_cell_angle_beta     73.8148
_cell_angle_gamma    68.4176

_space_group_name_H-M_alt    "P 1"
_space_group_IT_number       1

loop_
  _space_group_symop_operation_xyz
  'x, y, z'

loop_
  _atom_site_type_symbol
  _atom_site_label
  _atom_site_symmetry_multiplicity
  _atom_site_fract_x
  _atom_site_fract_y
  _atom_site_fract_z
  _atom_site_occupancy
  Ag  Ag1       1.0  0.94348  0.83212  0.76491  1.0000
  Ag  Ag2       1.0  0.05652  0.16789  0.23508  1.0000
  Ag  Ag3       1.0  0.73112  0.99277  0.49691  1.0000
  Ag  Ag4       1.0  0.26889  0.00723  0.50309  1.0000
  H   H1        1.0  0.30668  0.36766  0.56381  1.0000
  H   H2        1.0  0.69332  0.63234  0.43619  1.0000
  H   H3        1.0  0.12950  0.83093  0.35466  1.0000
  H   H4        1.0  0.87051  0.16907  0.64534  1.0000
  H   H5        1.0  0.46951  0.39529  0.11513  1.0000
  H   H6        1.0  0.53048  0.60471  0.88488  1.0000
  H   H7        1.0  0.80930  0.52916  0.15581  1.0000
  H   H8        1.0  0.19071  0.47084  0.84419  1.0000
  H   H9        1.0  0.62962  0.75117  0.19245  1.0000
  H   H10       1.0  0.37039  0.24883  0.80755  1.0000
  H   H11       1.0  0.90556  0.68943  0.18579  1.0000
  H   H12       1.0  0.09445  0.31057  0.81420  1.0000
  C   C1        1.0  0.43464  0.32992  0.29045  1.0000
  C   C2        1.0  0.56536  0.67008  0.70955  1.0000
  C   C3        1.0  0.35448  0.39214  0.40400  1.0000
  C   C4        1.0  0.64553  0.60786  0.59600  1.0000
  C   C5        1.0  0.24050  0.57493  0.42645  1.0000
  C   C6        1.0  0.75951  0.42507  0.57355  1.0000
  C   C7        1.0  0.21385  0.69067  0.33649  1.0000
  C   C8        1.0  0.78615  0.30933  0.66351  1.0000
  C   C9        1.0  0.29682  0.62676  0.22544  1.0000
  C   C10       1.0  0.70317  0.37324  0.77456  1.0000
  C   C11       1.0  0.40557  0.44687  0.20196  1.0000
  C   C12       1.0  0.59443  0.55313  0.79805  1.0000
  C   C13       1.0  0.15311  0.64008  0.54607  1.0000
  C   C14       1.0  0.84690  0.35992  0.45394  1.0000
  C   C15       1.0  0.79218  0.66794  0.14743  1.0000
  C   C16       1.0  0.20782  0.33206  0.85256  1.0000
  C   C17       1.0  0.83607  0.71412  0.02976  1.0000
  C   C18       1.0  0.16392  0.28588  0.97024  1.0000
  S   S1        1.0  0.57283  0.10098  0.25447  1.0000
  S   S2        1.0  0.42717  0.89902  0.74553  1.0000
  Br  Br1       1.0  0.27165  0.78331  0.10181  1.0000
  Br  Br2       1.0  0.72834  0.21669  0.89819  1.0000
  N   N1        1.0  0.87431  0.74788  0.93419  1.0000
  N   N2        1.0  0.12568  0.25212  0.06580  1.0000
  O   O1        1.0  0.75622  0.03925  0.30610  1.0000
  O   O2        1.0  0.24378  0.96074  0.69390  1.0000
  O   O3        1.0  0.41723  0.01312  0.30697  1.0000
  O   O4        1.0  0.58277  0.98688  0.69303  1.0000
  O   O5        1.0  0.63968  0.08662  0.13194  1.0000
  O   O6        1.0  0.36032  0.91337  0.86806  1.0000
  O   O7        1.0  0.38367  0.28175  0.49070  1.0000
  O   O8        1.0  0.61634  0.71825  0.50930  1.0000
  O   O9        1.0  0.04469  0.80413  0.56871  1.0000
  O   O10       1.0  0.95531  0.19587  0.43130  1.0000
  O   O11       1.0  0.18975  0.52844  0.62427  1.0000
  O   O12       1.0  0.81025  0.47155  0.37573  1.0000
