data_image0
_chemical_formula_structural       Tb2H30C18O24
_chemical_formula_sum              "Tb2 H30 C18 O24"
_cell_length_a       7.11795
_cell_length_b       9.96994
_cell_length_c       10.469
_cell_angle_alpha    114.639
_cell_angle_beta     104.881
_cell_angle_gamma    100.055

_space_group_name_H-M_alt    "P 1"
_space_group_IT_number       1

loop_
  _space_group_symop_operation_xyz
  'x, y, z'

loop_
  _atom_site_type_symbol
  _atom_site_label
  _atom_site_symmetry_multiplicity
  _atom_site_fract_x
  _atom_site_fract_y
  _atom_site_fract_z
  _atom_site_occupancy
  Tb  Tb1       1.0  0.82084  0.94917  0.66516  1.0000
  Tb  Tb2       1.0  0.65559  0.28400  0.33484  1.0000
  H   H1        1.0  0.82779  0.60186  0.73831  1.0000
  H   H2        1.0  0.58911  0.86342  0.26167  1.0000
  H   H3        1.0  0.04393  0.37074  0.98396  1.0000
  H   H4        1.0  0.56016  0.38672  0.01619  1.0000
  H   H5        1.0  0.07810  0.85088  0.22404  1.0000
  H   H6        1.0  0.35385  0.62651  0.77594  1.0000
  H   H7        1.0  0.55674  0.08498  0.49571  1.0000
  H   H8        1.0  0.56097  0.58935  0.50462  1.0000
  H   H9        1.0  0.42593  0.91139  0.44264  1.0000
  H   H10       1.0  0.48343  0.46867  0.55752  1.0000
  H   H11       1.0  0.36799  0.76498  0.54677  1.0000
  H   H12       1.0  0.32110  0.21816  0.45324  1.0000
  H   H13       1.0  0.46455  0.82699  0.72524  1.0000
  H   H14       1.0  0.23912  0.10189  0.27470  1.0000
  H   H15       1.0  0.13442  0.79099  0.73240  1.0000
  H   H16       1.0  0.90200  0.05866  0.26748  1.0000
  H   H17       1.0  0.98398  0.65516  0.57166  1.0000
  H   H18       1.0  0.91234  0.08343  0.42817  1.0000
  H   H19       1.0  0.25951  0.02637  0.87768  1.0000
  H   H20       1.0  0.88171  0.14886  0.12231  1.0000
  H   H21       1.0  0.25164  0.15783  0.82839  1.0000
  H   H22       1.0  0.92308  0.32960  0.17164  1.0000
  H   H23       1.0  0.16796  0.06490  0.58456  1.0000
  H   H24       1.0  0.08341  0.48036  0.41541  1.0000
  H   H25       1.0  0.07559  0.88489  0.46585  1.0000
  H   H26       1.0  0.10975  0.41893  0.53404  1.0000
  H   H27       1.0  0.71054  0.15515  0.93875  1.0000
  H   H28       1.0  0.27180  0.21640  0.06123  1.0000
  H   H29       1.0  0.57515  0.15824  0.79211  1.0000
  H   H30       1.0  0.28300  0.36622  0.20782  1.0000
  C   C1        1.0  0.95353  0.74334  0.98155  1.0000
  C   C2        1.0  0.47176  0.76163  0.01842  1.0000
  C   C3        1.0  0.89829  0.60524  0.84542  1.0000
  C   C4        1.0  0.55254  0.75968  0.15456  1.0000
  C   C5        1.0  0.93306  0.47159  0.84664  1.0000
  C   C6        1.0  0.58614  0.62485  0.15338  1.0000
  C   C7        1.0  0.01873  0.47569  0.98503  1.0000
  C   C8        1.0  0.53370  0.49052  0.01504  1.0000
  C   C9        1.0  0.06796  0.61150  0.12111  1.0000
  C   C10       1.0  0.44688  0.49019  0.87891  1.0000
  C   C11       1.0  0.03735  0.74488  0.11813  1.0000
  C   C12       1.0  0.41905  0.62651  0.88187  1.0000
  C   C13       1.0  0.92246  0.88946  0.98439  1.0000
  C   C14       1.0  0.43793  0.90490  0.01550  1.0000
  C   C15       1.0  0.87210  0.32068  0.70191  1.0000
  C   C16       1.0  0.66996  0.61885  0.29820  1.0000
  C   C17       1.0  0.14632  0.61738  0.27036  1.0000
  C   C18       1.0  0.37596  0.34682  0.72964  1.0000
  O   O1        1.0  0.84583  0.88795  0.86104  1.0000
  O   O2        1.0  0.48464  0.02679  0.13882  1.0000
  O   O3        1.0  0.97611  0.01053  0.11435  1.0000
  O   O4        1.0  0.36172  0.89595  0.88551  1.0000
  O   O5        1.0  0.20582  0.74878  0.38993  1.0000
  O   O6        1.0  0.31572  0.35867  0.61009  1.0000
  O   O7        1.0  0.14813  0.49093  0.27421  1.0000
  O   O8        1.0  0.37399  0.21651  0.72572  1.0000
  O   O9        1.0  0.74884  0.30684  0.58133  1.0000
  O   O10       1.0  0.66744  0.72572  0.41873  1.0000
  O   O11       1.0  0.94249  0.21457  0.70933  1.0000
  O   O12       1.0  0.73305  0.50537  0.29089  1.0000
  O   O13       1.0  0.56123  0.99194  0.50578  1.0000
  O   O14       1.0  0.55557  0.48621  0.49443  1.0000
  O   O15       1.0  0.49191  0.78279  0.63099  1.0000
  O   O16       1.0  0.36077  0.15184  0.36893  1.0000
  O   O17       1.0  0.01718  0.76650  0.64240  1.0000
  O   O18       1.0  0.87468  0.12406  0.35747  1.0000
  O   O19       1.0  0.17636  0.09585  0.86407  1.0000
  O   O20       1.0  0.81214  0.23192  0.13596  1.0000
  O   O21       1.0  0.03561  0.97725  0.51808  1.0000
  O   O22       1.0  0.01754  0.45909  0.48185  1.0000
  O   O23       1.0  0.67742  0.11442  0.82887  1.0000
  O   O24       1.0  0.34846  0.28558  0.17114  1.0000
