data_image0
_chemical_formula_structural       Cu12H40C52Br12N12
_chemical_formula_sum              "Cu12 H40 C52 Br12 N12"
_cell_length_a       7.15663
_cell_length_b       12.1754
_cell_length_c       17.5191
_cell_angle_alpha    90
_cell_angle_beta     90
_cell_angle_gamma    103.964

_space_group_name_H-M_alt    "P 1"
_space_group_IT_number       1

loop_
  _space_group_symop_operation_xyz
  'x, y, z'

loop_
  _atom_site_type_symbol
  _atom_site_label
  _atom_site_symmetry_multiplicity
  _atom_site_fract_x
  _atom_site_fract_y
  _atom_site_fract_z
  _atom_site_occupancy
  Cu  Cu1       1.0  0.09608  0.74951  0.11721  1.0000
  Cu  Cu2       1.0  0.40394  0.25049  0.61721  1.0000
  Cu  Cu3       1.0  0.90394  0.25049  0.88279  1.0000
  Cu  Cu4       1.0  0.59605  0.74950  0.38279  1.0000
  Cu  Cu5       1.0  0.83852  0.72705  0.27676  1.0000
  Cu  Cu6       1.0  0.66146  0.27295  0.77676  1.0000
  Cu  Cu7       1.0  0.16145  0.27295  0.72324  1.0000
  Cu  Cu8       1.0  0.33854  0.72705  0.22324  1.0000
  Cu  Cu9       1.0  0.71860  0.94222  0.10948  1.0000
  Cu  Cu10      1.0  0.78138  0.05777  0.60948  1.0000
  Cu  Cu11      1.0  0.28140  0.05778  0.89052  1.0000
  Cu  Cu12      1.0  0.21859  0.94222  0.39052  1.0000
  H   H1        1.0  0.79558  0.55130  0.10692  1.0000
  H   H2        1.0  0.70444  0.44870  0.60691  1.0000
  H   H3        1.0  0.20446  0.44870  0.89308  1.0000
  H   H4        1.0  0.29553  0.55130  0.39309  1.0000
  H   H5        1.0  0.61853  0.41938  0.00602  1.0000
  H   H6        1.0  0.88149  0.58063  0.50602  1.0000
  H   H7        1.0  0.38149  0.58063  0.99398  1.0000
  H   H8        1.0  0.11850  0.41937  0.49398  1.0000
  H   H9        1.0  0.66157  0.47878  0.86876  1.0000
  H   H10       1.0  0.83843  0.52122  0.36875  1.0000
  H   H11       1.0  0.33842  0.52123  0.13125  1.0000
  H   H12       1.0  0.16158  0.47876  0.63125  1.0000
  H   H13       1.0  0.88899  0.66565  0.83832  1.0000
  H   H14       1.0  0.61101  0.33435  0.33832  1.0000
  H   H15       1.0  0.11101  0.33436  0.16168  1.0000
  H   H16       1.0  0.38899  0.66564  0.66169  1.0000
  H   H17       1.0  0.21233  0.62805  0.88108  1.0000
  H   H18       1.0  0.28769  0.37195  0.38109  1.0000
  H   H19       1.0  0.78769  0.37195  0.11891  1.0000
  H   H20       1.0  0.71231  0.62805  0.61892  1.0000
  H   H21       1.0  0.49635  0.64054  0.79876  1.0000
  H   H22       1.0  0.00367  0.35947  0.29877  1.0000
  H   H23       1.0  0.50366  0.35947  0.20123  1.0000
  H   H24       1.0  0.99635  0.64054  0.70123  1.0000
  H   H25       1.0  0.70901  0.83553  0.76760  1.0000
  H   H26       1.0  0.79100  0.16449  0.26760  1.0000
  H   H27       1.0  0.29099  0.16448  0.23239  1.0000
  H   H28       1.0  0.20900  0.83553  0.73240  1.0000
  H   H29       1.0  0.60865  0.00440  0.81657  1.0000
  H   H30       1.0  0.89136  0.99561  0.31657  1.0000
  H   H31       1.0  0.39136  0.99560  0.18343  1.0000
  H   H32       1.0  0.10862  0.00440  0.68343  1.0000
  H   H33       1.0  0.75365  0.84663  0.93811  1.0000
  H   H34       1.0  0.74634  0.15336  0.43810  1.0000
  H   H35       1.0  0.24635  0.15337  0.06190  1.0000
  H   H36       1.0  0.25364  0.84663  0.56190  1.0000
  H   H37       1.0  0.33394  0.97796  0.01936  1.0000
  H   H38       1.0  0.16606  0.02204  0.51936  1.0000
  H   H39       1.0  0.66606  0.02203  0.98064  1.0000
  H   H40       1.0  0.83393  0.97795  0.48064  1.0000
  C   C1        1.0  0.81417  0.57129  0.04628  1.0000
  C   C2        1.0  0.68585  0.42872  0.54627  1.0000
  C   C3        1.0  0.18585  0.42871  0.95373  1.0000
  C   C4        1.0  0.31414  0.57128  0.45373  1.0000
  C   C5        1.0  0.71538  0.49958  0.99035  1.0000
  C   C6        1.0  0.78464  0.50042  0.49035  1.0000
  C   C7        1.0  0.28464  0.50042  0.00965  1.0000
  C   C8        1.0  0.21534  0.49958  0.50965  1.0000
  C   C9        1.0  0.74018  0.53217  0.91396  1.0000
  C   C10       1.0  0.75983  0.46784  0.41396  1.0000
  C   C11       1.0  0.25983  0.46785  0.08604  1.0000
  C   C12       1.0  0.24018  0.53215  0.58604  1.0000
  C   C13       1.0  0.86619  0.63527  0.89686  1.0000
  C   C14       1.0  0.63382  0.36474  0.39685  1.0000
  C   C15       1.0  0.13381  0.36474  0.10315  1.0000
  C   C16       1.0  0.36617  0.63525  0.60315  1.0000
  C   C17       1.0  0.96710  0.70047  0.95597  1.0000
  C   C18       1.0  0.53292  0.29953  0.45596  1.0000
  C   C19       1.0  0.03292  0.29954  0.04404  1.0000
  C   C20       1.0  0.46707  0.70046  0.54404  1.0000
  C   C21       1.0  0.25636  0.80989  0.89224  1.0000
  C   C22       1.0  0.24364  0.19011  0.39224  1.0000
  C   C23       1.0  0.74364  0.19011  0.10776  1.0000
  C   C24       1.0  0.75635  0.80989  0.60776  1.0000
  C   C25       1.0  0.30258  0.71021  0.86587  1.0000
  C   C26       1.0  0.19743  0.28979  0.36588  1.0000
  C   C27       1.0  0.69742  0.28979  0.13412  1.0000
  C   C28       1.0  0.80257  0.71021  0.63412  1.0000
  C   C29       1.0  0.46234  0.71803  0.81958  1.0000
  C   C30       1.0  0.03767  0.28197  0.31959  1.0000
  C   C31       1.0  0.53765  0.28197  0.18041  1.0000
  C   C32       1.0  0.96234  0.71803  0.68041  1.0000
  C   C33       1.0  0.57810  0.82484  0.80119  1.0000
  C   C34       1.0  0.92192  0.17517  0.30119  1.0000
  C   C35       1.0  0.42190  0.17517  0.19880  1.0000
  C   C36       1.0  0.07809  0.82484  0.69881  1.0000
  C   C37       1.0  0.52316  0.91923  0.82842  1.0000
  C   C38       1.0  0.97685  0.08077  0.32842  1.0000
  C   C39       1.0  0.47685  0.08077  0.17158  1.0000
  C   C40       1.0  0.02313  0.91923  0.67158  1.0000
  C   C41       1.0  0.05188  0.90385  0.97078  1.0000
  C   C42       1.0  0.44812  0.09614  0.47078  1.0000
  C   C43       1.0  0.94813  0.09614  0.02922  1.0000
  C   C44       1.0  0.55186  0.90385  0.52922  1.0000
  C   C45       1.0  0.86086  0.91244  0.96658  1.0000
  C   C46       1.0  0.63913  0.08755  0.46658  1.0000
  C   C47       1.0  0.13914  0.08756  0.03342  1.0000
  C   C48       1.0  0.36085  0.91244  0.53342  1.0000
  C   C49       1.0  0.19372  0.99213  0.00456  1.0000
  C   C50       1.0  0.30627  0.00787  0.50456  1.0000
  C   C51       1.0  0.80628  0.00786  0.99544  1.0000
  C   C52       1.0  0.69371  0.99213  0.49543  1.0000
  Br  Br1       1.0  0.03091  0.59034  0.23049  1.0000
  Br  Br2       1.0  0.46907  0.40966  0.73048  1.0000
  Br  Br3       1.0  0.96908  0.40966  0.76952  1.0000
  Br  Br4       1.0  0.53091  0.59033  0.26952  1.0000
  Br  Br5       1.0  0.96168  0.88644  0.18696  1.0000
  Br  Br6       1.0  0.53831  0.11355  0.68696  1.0000
  Br  Br7       1.0  0.03832  0.11356  0.81304  1.0000
  Br  Br8       1.0  0.46166  0.88644  0.31304  1.0000
  Br  Br9       1.0  0.44814  0.77898  0.09016  1.0000
  Br  Br10      1.0  0.05191  0.22100  0.59015  1.0000
  Br  Br11      1.0  0.55191  0.22101  0.90985  1.0000
  Br  Br12      1.0  0.94809  0.77899  0.40985  1.0000
  N   N1        1.0  0.94290  0.66968  0.03021  1.0000
  N   N2        1.0  0.55713  0.33032  0.53021  1.0000
  N   N3        1.0  0.05713  0.33032  0.96979  1.0000
  N   N4        1.0  0.44285  0.66968  0.46979  1.0000
  N   N5        1.0  0.09972  0.80545  0.94041  1.0000
  N   N6        1.0  0.40029  0.19456  0.44041  1.0000
  N   N7        1.0  0.90030  0.19455  0.05959  1.0000
  N   N8        1.0  0.59970  0.80544  0.55959  1.0000
  N   N9        1.0  0.36356  0.91312  0.87121  1.0000
  N   N10       1.0  0.13645  0.08688  0.37121  1.0000
  N   N11       1.0  0.63646  0.08688  0.12880  1.0000
  N   N12       1.0  0.86353  0.91312  0.62879  1.0000
