data_image0
_chemical_formula_structural       CdSi2H36C32N4Cl2
_chemical_formula_sum              "Cd1 Si2 H36 C32 N4 Cl2"
_cell_length_a       8.39541
_cell_length_b       9.27298
_cell_length_c       13.2859
_cell_angle_alpha    93.8194
_cell_angle_beta     108.805
_cell_angle_gamma    104.437

_space_group_name_H-M_alt    "P 1"
_space_group_IT_number       1

loop_
  _space_group_symop_operation_xyz
  'x, y, z'

loop_
  _atom_site_type_symbol
  _atom_site_label
  _atom_site_symmetry_multiplicity
  _atom_site_fract_x
  _atom_site_fract_y
  _atom_site_fract_z
  _atom_site_occupancy
  Cd  Cd1       1.0  1.00000  0.00000  0.00000  1.0000
  Si  Si1       1.0  0.45271  0.30430  0.66022  1.0000
  Si  Si2       1.0  0.54729  0.69570  0.33977  1.0000
  H   H1        1.0  0.96748  0.63821  0.97065  1.0000
  H   H2        1.0  0.03252  0.36179  0.02936  1.0000
  H   H3        1.0  0.77268  0.38852  0.86063  1.0000
  H   H4        1.0  0.22731  0.61147  0.13938  1.0000
  H   H5        1.0  0.45994  0.63645  0.65621  1.0000
  H   H6        1.0  0.54008  0.36356  0.34379  1.0000
  H   H7        1.0  0.65759  0.87161  0.78371  1.0000
  H   H8        1.0  0.34243  0.12840  0.21629  1.0000
  H   H9        1.0  0.02184  0.26136  0.85380  1.0000
  H   H10       1.0  0.97815  0.73864  0.14620  1.0000
  H   H11       1.0  0.19058  0.38507  0.74311  1.0000
  H   H12       1.0  0.80941  0.61493  0.25689  1.0000
  H   H13       1.0  0.41860  0.01269  0.75999  1.0000
  H   H14       1.0  0.58137  0.98730  0.24001  1.0000
  H   H15       1.0  0.25044  0.91307  0.87690  1.0000
  H   H16       1.0  0.74954  0.08693  0.12309  1.0000
  H   H17       1.0  0.66184  0.15628  0.71039  1.0000
  H   H18       1.0  0.33817  0.84371  0.28962  1.0000
  H   H19       1.0  0.51122  0.08779  0.57535  1.0000
  H   H20       1.0  0.48878  0.91220  0.42465  1.0000
  H   H21       1.0  0.82827  0.37663  0.64823  1.0000
  H   H22       1.0  0.17175  0.62336  0.35178  1.0000
  H   H23       1.0  0.64136  0.15788  0.43295  1.0000
  H   H24       1.0  0.35864  0.84212  0.56705  1.0000
  H   H25       1.0  0.83646  0.32512  0.46858  1.0000
  H   H26       1.0  0.16353  0.67487  0.53142  1.0000
  H   H27       1.0  0.24291  0.42554  0.54500  1.0000
  H   H28       1.0  0.75711  0.57448  0.45500  1.0000
  H   H29       1.0  0.37489  0.37056  0.47785  1.0000
  H   H30       1.0  0.62513  0.62943  0.52215  1.0000
  H   H31       1.0  0.04163  0.16968  0.50371  1.0000
  H   H32       1.0  0.95836  0.83033  0.49627  1.0000
  H   H33       1.0  0.26693  0.09610  0.37578  1.0000
  H   H34       1.0  0.73311  0.90392  0.62424  1.0000
  H   H35       1.0  0.05012  0.97994  0.37257  1.0000
  H   H36       1.0  0.94991  0.02006  0.62743  1.0000
  C   C1        1.0  0.85036  0.63042  0.90117  1.0000
  C   C2        1.0  0.14963  0.36957  0.09882  1.0000
  C   C3        1.0  0.74370  0.49296  0.83772  1.0000
  C   C4        1.0  0.25631  0.50705  0.16229  1.0000
  C   C5        1.0  0.59863  0.49016  0.74669  1.0000
  C   C6        1.0  0.40137  0.50984  0.25331  1.0000
  C   C7        1.0  0.56847  0.62912  0.72604  1.0000
  C   C8        1.0  0.43155  0.37089  0.27397  1.0000
  C   C9        1.0  0.67904  0.76144  0.79522  1.0000
  C   C10       1.0  0.32096  0.23855  0.20477  1.0000
  C   C11       1.0  0.11383  0.21237  0.83173  1.0000
  C   C12       1.0  0.88615  0.78763  0.16828  1.0000
  C   C13       1.0  0.20645  0.27837  0.76864  1.0000
  C   C14       1.0  0.79354  0.72163  0.23135  1.0000
  C   C15       1.0  0.31981  0.20854  0.74016  1.0000
  C   C16       1.0  0.68018  0.79146  0.25985  1.0000
  C   C17       1.0  0.33159  0.07235  0.77725  1.0000
  C   C18       1.0  0.66839  0.92765  0.22274  1.0000
  C   C19       1.0  0.23761  0.01499  0.84233  1.0000
  C   C20       1.0  0.76236  0.98501  0.15767  1.0000
  C   C21       1.0  0.59659  0.19020  0.63295  1.0000
  C   C22       1.0  0.40340  0.80979  0.36706  1.0000
  C   C23       1.0  0.72913  0.27973  0.59155  1.0000
  C   C24       1.0  0.27088  0.72026  0.40845  1.0000
  C   C25       1.0  0.73505  0.25362  0.49265  1.0000
  C   C26       1.0  0.26495  0.74638  0.50734  1.0000
  C   C27       1.0  0.29739  0.33367  0.52921  1.0000
  C   C28       1.0  0.70263  0.66633  0.47080  1.0000
  C   C29       1.0  0.15456  0.18980  0.47698  1.0000
  C   C30       1.0  0.84545  0.81020  0.52302  1.0000
  C   C31       1.0  0.15763  0.08347  0.40505  1.0000
  C   C32       1.0  0.84240  0.91653  0.59495  1.0000
  N   N1        1.0  0.81835  0.76268  0.88098  1.0000
  N   N2        1.0  0.18166  0.23733  0.11903  1.0000
  N   N3        1.0  0.13081  0.08382  0.86922  1.0000
  N   N4        1.0  0.86917  0.91618  0.13077  1.0000
  Cl  Cl1       1.0  0.24128  0.86906  0.08084  1.0000
  Cl  Cl2       1.0  0.75871  0.13094  0.91917  1.0000
