data_image0
_chemical_formula_structural       H32Rh4C36O16
_chemical_formula_sum              "H32 Rh4 C36 O16"
_cell_length_a       9.50054
_cell_length_b       10.6404
_cell_length_c       10.6406
_cell_angle_alpha    102.395
_cell_angle_beta     99.9591
_cell_angle_gamma    99.9634

_space_group_name_H-M_alt    "P 1"
_space_group_IT_number       1

loop_
  _space_group_symop_operation_xyz
  'x, y, z'

loop_
  _atom_site_type_symbol
  _atom_site_label
  _atom_site_symmetry_multiplicity
  _atom_site_fract_x
  _atom_site_fract_y
  _atom_site_fract_z
  _atom_site_occupancy
  H   H1        1.0  0.83934  0.38475  0.18602  1.0000
  H   H2        1.0  0.66070  0.81395  0.61519  1.0000
  H   H3        1.0  0.16066  0.61524  0.81395  1.0000
  H   H4        1.0  0.33933  0.18604  0.38481  1.0000
  H   H5        1.0  0.64241  0.34022  0.13986  1.0000
  H   H6        1.0  0.85760  0.86017  0.65984  1.0000
  H   H7        1.0  0.35759  0.65978  0.86012  1.0000
  H   H8        1.0  0.14241  0.13982  0.34019  1.0000
  H   H9        1.0  0.74633  0.34614  0.01764  1.0000
  H   H10       1.0  0.75365  0.98235  0.65386  1.0000
  H   H11       1.0  0.25366  0.65382  0.98233  1.0000
  H   H12       1.0  0.24637  0.01764  0.34615  1.0000
  H   H13       1.0  0.52979  0.07657  0.58071  1.0000
  H   H14       1.0  0.97022  0.41930  0.92342  1.0000
  H   H15       1.0  0.47021  0.92343  0.41930  1.0000
  H   H16       1.0  0.02976  0.58070  0.07656  1.0000
  H   H17       1.0  0.60964  0.24181  0.47959  1.0000
  H   H18       1.0  0.89033  0.52040  0.75815  1.0000
  H   H19       1.0  0.39036  0.75818  0.52042  1.0000
  H   H20       1.0  0.10967  0.47960  0.24183  1.0000
  H   H21       1.0  0.61495  0.46919  0.54245  1.0000
  H   H22       1.0  0.88502  0.45750  0.53079  1.0000
  H   H23       1.0  0.38506  0.53082  0.45756  1.0000
  H   H24       1.0  0.11498  0.54250  0.46919  1.0000
  H   H25       1.0  0.54838  0.58546  0.73084  1.0000
  H   H26       1.0  0.95161  0.26913  0.41456  1.0000
  H   H27       1.0  0.45162  0.41455  0.26917  1.0000
  H   H28       1.0  0.04840  0.73087  0.58544  1.0000
  H   H29       1.0  0.46352  0.50457  0.89666  1.0000
  H   H30       1.0  0.03648  0.10332  0.49547  1.0000
  H   H31       1.0  0.53647  0.49544  0.10334  1.0000
  H   H32       1.0  0.96353  0.89668  0.50453  1.0000
  Rh  Rh1       1.0  0.38630  0.10137  0.95761  1.0000
  Rh  Rh2       1.0  0.11369  0.04240  0.89863  1.0000
  Rh  Rh3       1.0  0.61369  0.89862  0.04240  1.0000
  Rh  Rh4       1.0  0.88631  0.95761  0.10138  1.0000
  C   C1        1.0  0.74814  0.17962  0.09820  1.0000
  C   C2        1.0  0.75184  0.90178  0.82038  1.0000
  C   C3        1.0  0.25186  0.82037  0.90181  1.0000
  C   C4        1.0  0.24817  0.09822  0.17963  1.0000
  C   C5        1.0  0.74439  0.32181  0.11282  1.0000
  C   C6        1.0  0.75559  0.88715  0.67820  1.0000
  C   C7        1.0  0.25560  0.67819  0.88717  1.0000
  C   C8        1.0  0.24442  0.11281  0.32181  1.0000
  C   C9        1.0  0.46746  0.18208  0.74353  1.0000
  C   C10       1.0  0.03252  0.25645  0.81790  1.0000
  C   C11       1.0  0.53252  0.81792  0.25646  1.0000
  C   C12       1.0  0.96747  0.74354  0.18208  1.0000
  C   C13       1.0  0.52287  0.17633  0.62824  1.0000
  C   C14       1.0  0.97711  0.37175  0.82366  1.0000
  C   C15       1.0  0.47713  0.82367  0.37176  1.0000
  C   C16       1.0  0.02288  0.62825  0.17633  1.0000
  C   C17       1.0  0.56974  0.27532  0.56865  1.0000
  C   C18       1.0  0.93022  0.43135  0.72465  1.0000
  C   C19       1.0  0.43026  0.72469  0.43136  1.0000
  C   C20       1.0  0.06977  0.56867  0.27534  1.0000
  C   C21       1.0  0.57390  0.41037  0.60603  1.0000
  C   C22       1.0  0.92607  0.39395  0.58961  1.0000
  C   C23       1.0  0.42609  0.58962  0.39398  1.0000
  C   C24       1.0  0.07394  0.60605  0.41038  1.0000
  C   C25       1.0  0.53422  0.47873  0.71713  1.0000
  C   C26       1.0  0.96577  0.28284  0.52124  1.0000
  C   C27       1.0  0.46578  0.52126  0.28286  1.0000
  C   C28       1.0  0.03424  0.71715  0.47873  1.0000
  C   C29       1.0  0.48243  0.43115  0.81629  1.0000
  C   C30       1.0  0.01756  0.18368  0.56886  1.0000
  C   C31       1.0  0.51754  0.56885  0.18370  1.0000
  C   C32       1.0  0.98246  0.81631  0.43114  1.0000
  C   C33       1.0  0.45453  0.30243  0.83375  1.0000
  C   C34       1.0  0.04545  0.16623  0.69757  1.0000
  C   C35       1.0  0.54545  0.69757  0.16624  1.0000
  C   C36       1.0  0.95455  0.83378  0.30244  1.0000
  O   O1        1.0  0.63108  0.09268  0.03491  1.0000
  O   O2        1.0  0.86893  0.96509  0.90730  1.0000
  O   O3        1.0  0.36892  0.90731  0.96511  1.0000
  O   O4        1.0  0.13108  0.03492  0.09272  1.0000
  O   O5        1.0  0.86570  0.14946  0.14721  1.0000
  O   O6        1.0  0.63431  0.85280  0.85058  1.0000
  O   O7        1.0  0.13430  0.85054  0.85281  1.0000
  O   O8        1.0  0.36571  0.14721  0.14944  1.0000
  O   O9        1.0  0.42874  0.07224  0.77700  1.0000
  O   O10       1.0  0.07125  0.22301  0.92775  1.0000
  O   O11       1.0  0.57125  0.92778  0.22301  1.0000
  O   O12       1.0  0.92872  0.77700  0.07224  1.0000
  O   O13       1.0  0.41433  0.28684  0.94215  1.0000
  O   O14       1.0  0.08566  0.05785  0.71318  1.0000
  O   O15       1.0  0.58565  0.71318  0.05786  1.0000
  O   O16       1.0  0.91435  0.94215  0.28683  1.0000
