data_image0
_chemical_formula_structural       Na2H18C16N4O8
_chemical_formula_sum              "Na2 H18 C16 N4 O8"
_cell_length_a       7.16741
_cell_length_b       7.35148
_cell_length_c       8.80381
_cell_angle_alpha    103.714
_cell_angle_beta     93.8265
_cell_angle_gamma    91.2269

_space_group_name_H-M_alt    "P 1"
_space_group_IT_number       1

loop_
  _space_group_symop_operation_xyz
  'x, y, z'

loop_
  _atom_site_type_symbol
  _atom_site_label
  _atom_site_symmetry_multiplicity
  _atom_site_fract_x
  _atom_site_fract_y
  _atom_site_fract_z
  _atom_site_occupancy
  Na  Na1       1.0  1.00000  1.00000  0.00000  1.0000
  Na  Na2       1.0  0.50000  0.00000  0.00000  1.0000
  H   H1        1.0  0.12661  0.30549  0.29680  1.0000
  H   H2        1.0  0.87339  0.69451  0.70320  1.0000
  H   H3        1.0  0.14216  0.47272  0.58758  1.0000
  H   H4        1.0  0.85784  0.52728  0.41242  1.0000
  H   H5        1.0  0.32911  0.80323  0.63473  1.0000
  H   H6        1.0  0.67089  0.19677  0.36527  1.0000
  H   H7        1.0  0.36086  0.57260  0.37433  1.0000
  H   H8        1.0  0.63914  0.42739  0.62567  1.0000
  H   H9        1.0  0.28984  0.66764  0.12711  1.0000
  H   H10       1.0  0.71016  0.33235  0.87289  1.0000
  H   H11       1.0  0.92511  0.43565  0.13144  1.0000
  H   H12       1.0  0.07489  0.56435  0.86856  1.0000
  H   H13       1.0  0.10573  0.36692  0.04655  1.0000
  H   H14       1.0  0.89427  0.63308  0.95344  1.0000
  H   H15       1.0  0.60535  0.42678  0.13484  1.0000
  H   H16       1.0  0.39464  0.57323  0.86516  1.0000
  H   H17       1.0  0.40726  0.35721  0.05781  1.0000
  H   H18       1.0  0.59273  0.64279  0.94218  1.0000
  C   C1        1.0  0.17301  0.32632  0.54586  1.0000
  C   C2        1.0  0.82699  0.67368  0.45414  1.0000
  C   C3        1.0  0.21783  0.19477  0.63166  1.0000
  C   C4        1.0  0.78218  0.80523  0.36834  1.0000
  C   C5        1.0  0.24553  0.02204  0.51880  1.0000
  C   C6        1.0  0.75447  0.97796  0.48120  1.0000
  C   C7        1.0  0.29926  0.84138  0.52349  1.0000
  C   C8        1.0  0.70074  0.15862  0.47651  1.0000
  C   C9        1.0  0.31540  0.71431  0.38010  1.0000
  C   C10       1.0  0.68460  0.28569  0.61990  1.0000
  C   C11       1.0  0.27781  0.76795  0.23870  1.0000
  C   C12       1.0  0.72219  0.23204  0.76130  1.0000
  C   C13       1.0  0.21484  0.06099  0.36808  1.0000
  C   C14       1.0  0.78517  0.93901  0.63192  1.0000
  C   C15       1.0  0.23278  0.22402  0.80158  1.0000
  C   C16       1.0  0.76722  0.77599  0.19842  1.0000
  N   N1        1.0  0.17056  0.24657  0.38912  1.0000
  N   N2        1.0  0.82944  0.75342  0.61088  1.0000
  N   N3        1.0  0.22836  0.94090  0.22910  1.0000
  N   N4        1.0  0.77164  0.05910  0.77090  1.0000
  O   O1        1.0  0.23211  0.39488  0.88982  1.0000
  O   O2        1.0  0.76789  0.60513  0.11018  1.0000
  O   O3        1.0  0.24642  0.08367  0.86110  1.0000
  O   O4        1.0  0.75358  0.91633  0.13890  1.0000
  O   O5        1.0  0.01989  0.33767  0.12272  1.0000
  O   O6        1.0  0.98011  0.66233  0.87728  1.0000
  O   O7        1.0  0.50938  0.32548  0.12633  1.0000
  O   O8        1.0  0.49061  0.67452  0.87367  1.0000
