data_image0
_chemical_formula_structural       Cu2H8C8I2N4
_chemical_formula_sum              "Cu2 H8 C8 I2 N4"
_cell_length_a       5.79792
_cell_length_b       7.64464
_cell_length_c       7.64479
_cell_angle_alpha    109.002
_cell_angle_beta     97.1869
_cell_angle_gamma    97.1856

_space_group_name_H-M_alt    "P 1"
_space_group_IT_number       1

loop_
  _space_group_symop_operation_xyz
  'x, y, z'

loop_
  _atom_site_type_symbol
  _atom_site_label
  _atom_site_symmetry_multiplicity
  _atom_site_fract_x
  _atom_site_fract_y
  _atom_site_fract_z
  _atom_site_occupancy
  Cu  Cu1       1.0  0.26126  0.46432  0.46432  1.0000
  Cu  Cu2       1.0  0.73870  0.53568  0.53568  1.0000
  H   H1        1.0  0.31921  0.58947  0.13662  1.0000
  H   H2        1.0  0.68071  0.86342  0.41058  1.0000
  H   H3        1.0  0.68069  0.41058  0.86342  1.0000
  H   H4        1.0  0.31919  0.13662  0.58947  1.0000
  H   H5        1.0  0.16325  0.82843  0.01577  1.0000
  H   H6        1.0  0.83678  0.98424  0.17160  1.0000
  H   H7        1.0  0.83676  0.17159  0.98422  1.0000
  H   H8        1.0  0.16322  0.01576  0.82842  1.0000
  C   C1        1.0  0.17597  0.65825  0.19067  1.0000
  C   C2        1.0  0.82404  0.80936  0.34174  1.0000
  C   C3        1.0  0.82403  0.34173  0.80935  1.0000
  C   C4        1.0  0.17595  0.19067  0.65825  1.0000
  C   C5        1.0  0.08955  0.79214  0.12617  1.0000
  C   C6        1.0  0.91050  0.87383  0.20783  1.0000
  C   C7        1.0  0.91047  0.20783  0.87382  1.0000
  C   C8        1.0  0.08955  0.12617  0.79213  1.0000
  I   I1        1.0  0.49304  0.24307  0.24308  1.0000
  I   I2        1.0  0.50695  0.75693  0.75693  1.0000
  N   N1        1.0  0.09168  0.60414  0.32424  1.0000
  N   N2        1.0  0.90841  0.67576  0.39581  1.0000
  N   N3        1.0  0.90840  0.39580  0.67575  1.0000
  N   N4        1.0  0.09169  0.32423  0.60413  1.0000
