data_image0
_chemical_formula_structural       Sn4H32C24S8N8
_chemical_formula_sum              "Sn4 H32 C24 S8 N8"
_cell_length_a       13.1691
_cell_length_b       13.1692
_cell_length_c       12.6017
_cell_angle_alpha    118.248
_cell_angle_beta     118.25
_cell_angle_gamma    95.343

_space_group_name_H-M_alt    "P 1"
_space_group_IT_number       1

loop_
  _space_group_symop_operation_xyz
  'x, y, z'

loop_
  _atom_site_type_symbol
  _atom_site_label
  _atom_site_symmetry_multiplicity
  _atom_site_fract_x
  _atom_site_fract_y
  _atom_site_fract_z
  _atom_site_occupancy
  Sn  Sn1       1.0  0.60644  0.17006  0.70019  1.0000
  Sn  Sn2       1.0  0.82995  0.39356  0.29981  1.0000
  Sn  Sn3       1.0  0.15602  0.21967  0.79960  1.0000
  Sn  Sn4       1.0  0.78033  0.84399  0.20041  1.0000
  H   H1        1.0  0.85512  0.07852  0.70016  1.0000
  H   H2        1.0  0.92149  0.14488  0.29985  1.0000
  H   H3        1.0  0.40490  0.12833  0.79991  1.0000
  H   H4        1.0  0.87167  0.59510  0.20006  1.0000
  H   H5        1.0  0.08197  0.46729  0.96086  1.0000
  H   H6        1.0  0.53271  0.91804  0.03914  1.0000
  H   H7        1.0  0.37093  0.25607  0.53854  1.0000
  H   H8        1.0  0.74396  0.62907  0.46146  1.0000
  H   H9        1.0  0.54932  0.19759  0.48325  1.0000
  H   H10       1.0  0.80242  0.45069  0.51675  1.0000
  H   H11       1.0  0.31566  0.46386  0.01619  1.0000
  H   H12       1.0  0.53613  0.68433  0.98379  1.0000
  H   H13       1.0  0.43184  0.05264  0.40451  1.0000
  H   H14       1.0  0.94738  0.56817  0.59548  1.0000
  H   H15       1.0  0.27706  0.39778  0.09530  1.0000
  H   H16       1.0  0.60224  0.72294  0.90470  1.0000
  H   H17       1.0  0.58312  0.06018  0.44183  1.0000
  H   H18       1.0  0.93983  0.41689  0.55817  1.0000
  H   H19       1.0  0.39079  0.36777  0.05753  1.0000
  H   H20       1.0  0.63225  0.60921  0.94248  1.0000
  H   H21       1.0  0.63814  0.13359  0.90507  1.0000
  H   H22       1.0  0.86640  0.36186  0.09493  1.0000
  H   H23       1.0  0.98317  0.97850  0.59494  1.0000
  H   H24       1.0  0.02150  0.01681  0.40506  1.0000
  H   H25       1.0  0.69354  0.03754  0.80586  1.0000
  H   H26       1.0  0.96247  0.30646  0.19413  1.0000
  H   H27       1.0  0.13768  0.98172  0.69442  1.0000
  H   H28       1.0  0.01828  0.86231  0.30559  1.0000
  H   H29       1.0  0.52769  0.98784  0.72276  1.0000
  H   H30       1.0  0.01215  0.47231  0.27723  1.0000
  H   H31       1.0  0.05470  0.01509  0.77735  1.0000
  H   H32       1.0  0.98491  0.94529  0.22267  1.0000
  C   C1        1.0  0.83636  0.46014  0.92431  1.0000
  C   C2        1.0  0.53986  0.16364  0.07568  1.0000
  C   C3        1.0  0.16188  0.28545  0.57511  1.0000
  C   C4        1.0  0.71457  0.83811  0.42490  1.0000
  C   C5        1.0  0.88440  0.36704  0.87434  1.0000
  C   C6        1.0  0.63294  0.11560  0.12566  1.0000
  C   C7        1.0  0.25981  0.24226  0.62507  1.0000
  C   C8        1.0  0.75774  0.74020  0.37495  1.0000
  C   C9        1.0  0.88596  0.18044  0.76490  1.0000
  C   C10       1.0  0.81956  0.11403  0.23511  1.0000
  C   C11       1.0  0.37099  0.16543  0.73500  1.0000
  C   C12       1.0  0.83456  0.62899  0.26499  1.0000
  C   C13       1.0  0.00143  0.38122  0.89922  1.0000
  C   C14       1.0  0.61878  0.99858  0.10078  1.0000
  C   C15       1.0  0.35199  0.23163  0.60022  1.0000
  C   C16       1.0  0.76839  0.64800  0.39978  1.0000
  C   C17       1.0  0.53315  0.11225  0.47928  1.0000
  C   C18       1.0  0.88776  0.46685  0.52072  1.0000
  C   C19       1.0  0.30349  0.38254  0.02029  1.0000
  C   C20       1.0  0.61745  0.69651  0.97971  1.0000
  C   C21       1.0  0.61758  0.06943  0.79511  1.0000
  C   C22       1.0  0.93057  0.38241  0.20488  1.0000
  C   C23       1.0  0.07240  0.02427  0.70498  1.0000
  C   C24       1.0  0.97573  0.92760  0.29503  1.0000
  S   S1        1.0  0.68501  0.40490  0.87566  1.0000
  S   S2        1.0  0.59510  0.31499  0.12434  1.0000
  S   S3        1.0  0.05916  0.27894  0.62390  1.0000
  S   S4        1.0  0.72106  0.94082  0.37611  1.0000
  S   S5        1.0  0.92090  0.61447  0.02751  1.0000
  S   S6        1.0  0.38552  0.07911  0.97249  1.0000
  S   S7        1.0  0.14330  0.33677  0.47194  1.0000
  S   S8        1.0  0.66327  0.85668  0.52808  1.0000
  N   N1        1.0  0.81328  0.23841  0.78880  1.0000
  N   N2        1.0  0.76158  0.18672  0.21120  1.0000
  N   N3        1.0  0.27428  0.19930  0.71089  1.0000
  N   N4        1.0  0.80068  0.72572  0.28911  1.0000
  N   N5        1.0  0.00147  0.26397  0.83066  1.0000
  N   N6        1.0  0.73601  0.99853  0.16934  1.0000
  N   N7        1.0  0.42075  0.18316  0.66913  1.0000
  N   N8        1.0  0.81685  0.57926  0.33087  1.0000
