data_image0
_chemical_formula_structural       Ca2H28C28O16
_chemical_formula_sum              "Ca2 H28 C28 O16"
_cell_length_a       7.54056
_cell_length_b       9.99712
_cell_length_c       9.99711
_cell_angle_alpha    70.1952
_cell_angle_beta     88.7482
_cell_angle_gamma    88.7483

_space_group_name_H-M_alt    "P 1"
_space_group_IT_number       1

loop_
  _space_group_symop_operation_xyz
  'x, y, z'

loop_
  _atom_site_type_symbol
  _atom_site_label
  _atom_site_symmetry_multiplicity
  _atom_site_fract_x
  _atom_site_fract_y
  _atom_site_fract_z
  _atom_site_occupancy
  Ca  Ca1       1.0  0.25000  0.94345  0.05655  1.0000
  Ca  Ca2       1.0  0.75000  0.05655  0.94345  1.0000
  H   H1        1.0  0.16555  0.94233  0.36491  1.0000
  H   H2        1.0  0.33445  0.63509  0.05767  1.0000
  H   H3        1.0  0.83445  0.05767  0.63509  1.0000
  H   H4        1.0  0.66555  0.36491  0.94233  1.0000
  H   H5        1.0  0.99731  0.95094  0.26990  1.0000
  H   H6        1.0  0.50268  0.73010  0.04906  1.0000
  H   H7        1.0  0.00269  0.04906  0.73010  1.0000
  H   H8        1.0  0.49731  0.26990  0.95094  1.0000
  H   H9        1.0  0.20637  0.96208  0.61307  1.0000
  H   H10       1.0  0.29363  0.38693  0.03792  1.0000
  H   H11       1.0  0.79363  0.03792  0.38693  1.0000
  H   H12       1.0  0.70637  0.61307  0.96208  1.0000
  H   H13       1.0  0.33627  0.16804  0.25896  1.0000
  H   H14       1.0  0.16373  0.74104  0.83196  1.0000
  H   H15       1.0  0.66373  0.83196  0.74104  1.0000
  H   H16       1.0  0.83627  0.25896  0.16804  1.0000
  H   H17       1.0  0.52433  0.37957  0.21552  1.0000
  H   H18       1.0  0.97568  0.78448  0.62043  1.0000
  H   H19       1.0  0.47568  0.62043  0.78448  1.0000
  H   H20       1.0  0.02433  0.21553  0.37957  1.0000
  H   H21       1.0  0.63844  0.44255  0.41799  1.0000
  H   H22       1.0  0.86156  0.58201  0.55745  1.0000
  H   H23       1.0  0.36156  0.55745  0.58201  1.0000
  H   H24       1.0  0.13844  0.41799  0.44255  1.0000
  H   H25       1.0  0.56443  0.28922  0.66683  1.0000
  H   H26       1.0  0.93556  0.33317  0.71078  1.0000
  H   H27       1.0  0.43557  0.71078  0.33317  1.0000
  H   H28       1.0  0.06443  0.66683  0.28922  1.0000
  C   C1        1.0  0.40698  0.14467  0.60313  1.0000
  C   C2        1.0  0.09302  0.39687  0.85532  1.0000
  C   C3        1.0  0.59302  0.85533  0.39687  1.0000
  C   C4        1.0  0.90698  0.60313  0.14467  1.0000
  C   C5        1.0  0.34028  0.11264  0.48656  1.0000
  C   C6        1.0  0.15973  0.51344  0.88736  1.0000
  C   C7        1.0  0.65973  0.88736  0.51344  1.0000
  C   C8        1.0  0.84027  0.48656  0.11264  1.0000
  C   C9        1.0  0.38742  0.19493  0.34760  1.0000
  C   C10       1.0  0.11259  0.65240  0.80507  1.0000
  C   C11       1.0  0.61258  0.80507  0.65240  1.0000
  C   C12       1.0  0.88742  0.34760  0.19493  1.0000
  C   C13       1.0  0.49269  0.31325  0.32429  1.0000
  C   C14       1.0  0.00731  0.67571  0.68675  1.0000
  C   C15       1.0  0.50731  0.68675  0.67571  1.0000
  C   C16       1.0  0.99269  0.32429  0.31325  1.0000
  C   C17       1.0  0.55649  0.34917  0.43810  1.0000
  C   C18       1.0  0.94351  0.56190  0.65083  1.0000
  C   C19       1.0  0.44352  0.65083  0.56190  1.0000
  C   C20       1.0  0.05649  0.43810  0.34917  1.0000
  C   C21       1.0  0.51552  0.26401  0.57642  1.0000
  C   C22       1.0  0.98448  0.42358  0.73599  1.0000
  C   C23       1.0  0.48448  0.73599  0.42358  1.0000
  C   C24       1.0  0.01552  0.57642  0.26401  1.0000
  C   C25       1.0  0.36171  0.05405  0.74988  1.0000
  C   C26       1.0  0.13829  0.25012  0.94595  1.0000
  C   C27       1.0  0.63829  0.94595  0.25012  1.0000
  C   C28       1.0  0.86171  0.74988  0.05405  1.0000
  O   O1        1.0  0.12339  0.92078  0.28180  1.0000
  O   O2        1.0  0.37660  0.71820  0.07921  1.0000
  O   O3        1.0  0.87661  0.07922  0.71820  1.0000
  O   O4        1.0  0.62339  0.28180  0.92079  1.0000
  O   O5        1.0  0.22454  0.97354  0.77122  1.0000
  O   O6        1.0  0.27545  0.22877  0.02646  1.0000
  O   O7        1.0  0.77546  0.02646  0.22878  1.0000
  O   O8        1.0  0.72455  0.77122  0.97354  1.0000
  O   O9        1.0  0.45455  0.05573  0.85446  1.0000
  O   O10       1.0  0.04545  0.14554  0.94427  1.0000
  O   O11       1.0  0.54545  0.94427  0.14554  1.0000
  O   O12       1.0  0.95455  0.85446  0.05573  1.0000
  O   O13       1.0  0.22871  0.00165  0.50689  1.0000
  O   O14       1.0  0.27129  0.49311  0.99835  1.0000
  O   O15       1.0  0.77129  0.99835  0.49311  1.0000
  O   O16       1.0  0.72871  0.50689  0.00165  1.0000
