data_image0
_chemical_formula_structural       Zn2H24C24Br4N4
_chemical_formula_sum              "Zn2 H24 C24 Br4 N4"
_cell_length_a       5.52645
_cell_length_b       9.0034
_cell_length_c       13.8539
_cell_angle_alpha    87.5988
_cell_angle_beta     97.7224
_cell_angle_gamma    96.9527

_space_group_name_H-M_alt    "P 1"
_space_group_IT_number       1

loop_
  _space_group_symop_operation_xyz
  'x, y, z'

loop_
  _atom_site_type_symbol
  _atom_site_label
  _atom_site_symmetry_multiplicity
  _atom_site_fract_x
  _atom_site_fract_y
  _atom_site_fract_z
  _atom_site_occupancy
  Zn  Zn1       1.0  0.37289  0.46121  0.76034  1.0000
  Zn  Zn2       1.0  0.62711  0.53879  0.23965  1.0000
  H   H1        1.0  0.26749  0.40159  0.54694  1.0000
  H   H2        1.0  0.73249  0.59840  0.45306  1.0000
  H   H3        1.0  0.94426  0.25646  0.43405  1.0000
  H   H4        1.0  0.05571  0.74353  0.56595  1.0000
  H   H5        1.0  0.58007  0.10912  0.68493  1.0000
  H   H6        1.0  0.41993  0.89088  0.31507  1.0000
  H   H7        1.0  0.91581  0.25700  0.78639  1.0000
  H   H8        1.0  0.08419  0.74299  0.21361  1.0000
  H   H9        1.0  0.36715  0.14039  0.47679  1.0000
  H   H10       1.0  0.63283  0.85960  0.52322  1.0000
  H   H11       1.0  0.58567  0.08554  0.40916  1.0000
  H   H12       1.0  0.41431  0.91445  0.59085  1.0000
  H   H13       1.0  0.97199  0.48041  0.88644  1.0000
  H   H14       1.0  0.02803  0.51959  0.11357  1.0000
  H   H15       1.0  0.78811  0.67892  0.96025  1.0000
  H   H16       1.0  0.21191  0.32109  0.03976  1.0000
  H   H17       1.0  0.30491  0.00473  0.83474  1.0000
  H   H18       1.0  0.69509  0.99528  0.16525  1.0000
  H   H19       1.0  0.46895  0.78984  0.76392  1.0000
  H   H20       1.0  0.53104  0.21016  0.23607  1.0000
  H   H21       1.0  0.73414  0.95386  0.95424  1.0000
  H   H22       1.0  0.26587  0.04616  0.04575  1.0000
  H   H23       1.0  0.94961  0.08624  0.90315  1.0000
  H   H24       1.0  0.05040  0.91377  0.09684  1.0000
  C   C1        1.0  0.11264  0.33340  0.57424  1.0000
  C   C2        1.0  0.88736  0.66659  0.42576  1.0000
  C   C3        1.0  0.93103  0.25191  0.51200  1.0000
  C   C4        1.0  0.06897  0.74808  0.48800  1.0000
  C   C5        1.0  0.73342  0.16688  0.54929  1.0000
  C   C6        1.0  0.26657  0.83311  0.45071  1.0000
  C   C7        1.0  0.73012  0.16905  0.65021  1.0000
  C   C8        1.0  0.26988  0.83094  0.34979  1.0000
  C   C9        1.0  0.91834  0.25230  0.70807  1.0000
  C   C10       1.0  0.08166  0.74770  0.29194  1.0000
  C   C11       1.0  0.53204  0.08130  0.48283  1.0000
  C   C12       1.0  0.46794  0.91869  0.51717  1.0000
  C   C13       1.0  0.04206  0.59773  0.87625  1.0000
  C   C14       1.0  0.95795  0.40227  0.12375  1.0000
  C   C15       1.0  0.93917  0.70941  0.91720  1.0000
  C   C16       1.0  0.06084  0.29060  0.08280  1.0000
  C   C17       1.0  0.03035  0.85951  0.90293  1.0000
  C   C18       1.0  0.96966  0.14050  0.09707  1.0000
  C   C19       1.0  0.22471  0.88959  0.84682  1.0000
  C   C20       1.0  0.77530  0.11041  0.15317  1.0000
  C   C21       1.0  0.31778  0.77206  0.80804  1.0000
  C   C22       1.0  0.68223  0.22794  0.19195  1.0000
  C   C23       1.0  0.93065  0.98360  0.94853  1.0000
  C   C24       1.0  0.06936  0.01641  0.05146  1.0000
  Br  Br1       1.0  0.64673  0.58591  0.65614  1.0000
  Br  Br2       1.0  0.35326  0.41409  0.34386  1.0000
  Br  Br3       1.0  0.50483  0.29454  0.89115  1.0000
  Br  Br4       1.0  0.49520  0.70549  0.10885  1.0000
  N   N1        1.0  0.10771  0.33315  0.67121  1.0000
  N   N2        1.0  0.89228  0.66684  0.32879  1.0000
  N   N3        1.0  0.22822  0.62784  0.82223  1.0000
  N   N4        1.0  0.77179  0.37217  0.17777  1.0000
