data_image0
_chemical_formula_structural       Co2H32C58S2N8O8F12
_chemical_formula_sum              "Co2 H32 C58 S2 N8 O8 F12"
_cell_length_a       8.24242
_cell_length_b       13.5593
_cell_length_c       14.8389
_cell_angle_alpha    86.164
_cell_angle_beta     79.2673
_cell_angle_gamma    83.8959

_space_group_name_H-M_alt    "P 1"
_space_group_IT_number       1

loop_
  _space_group_symop_operation_xyz
  'x, y, z'

loop_
  _atom_site_type_symbol
  _atom_site_label
  _atom_site_symmetry_multiplicity
  _atom_site_fract_x
  _atom_site_fract_y
  _atom_site_fract_z
  _atom_site_occupancy
  Co  Co1       1.0  0.91359  0.41725  0.91184  1.0000
  Co  Co2       1.0  0.08640  0.58276  0.08816  1.0000
  H   H1        1.0  0.73314  0.24787  0.15276  1.0000
  H   H2        1.0  0.26686  0.75213  0.84724  1.0000
  H   H3        1.0  0.60467  0.17356  0.30084  1.0000
  H   H4        1.0  0.39533  0.82644  0.69915  1.0000
  H   H5        1.0  0.74887  0.52142  0.27860  1.0000
  H   H6        1.0  0.25113  0.47858  0.72139  1.0000
  H   H7        1.0  0.61087  0.45071  0.42742  1.0000
  H   H8        1.0  0.38913  0.54929  0.57258  1.0000
  H   H9        1.0  0.92287  0.58997  0.77997  1.0000
  H   H10       1.0  0.07713  0.41003  0.22003  1.0000
  H   H11       1.0  0.95319  0.22487  0.04013  1.0000
  H   H12       1.0  0.04681  0.77513  0.95987  1.0000
  H   H13       1.0  0.46672  0.70580  0.02397  1.0000
  H   H14       1.0  0.53328  0.29419  0.97603  1.0000
  H   H15       1.0  0.61356  0.53930  0.02921  1.0000
  H   H16       1.0  0.38644  0.46070  0.97079  1.0000
  H   H17       1.0  0.46896  0.35278  0.77701  1.0000
  H   H18       1.0  0.53104  0.64722  0.22299  1.0000
  H   H19       1.0  0.17366  0.31686  0.78003  1.0000
  H   H20       1.0  0.82634  0.68314  0.21997  1.0000
  H   H21       1.0  0.79115  0.76365  0.76416  1.0000
  H   H22       1.0  0.20884  0.23635  0.23584  1.0000
  H   H23       1.0  0.13319  0.06460  0.03417  1.0000
  H   H24       1.0  0.86681  0.93541  0.96583  1.0000
  H   H25       1.0  0.34492  0.31120  0.64647  1.0000
  H   H26       1.0  0.65508  0.68881  0.35353  1.0000
  H   H27       1.0  0.94863  0.34158  0.60456  1.0000
  H   H28       1.0  0.05137  0.65842  0.39543  1.0000
  H   H29       1.0  0.82874  0.29516  0.47400  1.0000
  H   H30       1.0  0.17125  0.70483  0.52600  1.0000
  H   H31       1.0  0.36795  0.16073  0.76171  1.0000
  H   H32       1.0  0.63204  0.83927  0.23829  1.0000
  C   C1        1.0  0.82239  0.43471  0.11477  1.0000
  C   C2        1.0  0.17763  0.56529  0.88523  1.0000
  C   C3        1.0  0.74743  0.38987  0.20556  1.0000
  C   C4        1.0  0.25257  0.61013  0.79443  1.0000
  C   C5        1.0  0.70743  0.29159  0.21358  1.0000
  C   C6        1.0  0.29257  0.70841  0.78642  1.0000
  C   C7        1.0  0.63482  0.24993  0.29768  1.0000
  C   C8        1.0  0.36518  0.75007  0.70232  1.0000
  C   C9        1.0  0.71425  0.44581  0.28399  1.0000
  C   C10       1.0  0.28574  0.55418  0.71601  1.0000
  C   C11       1.0  0.63831  0.40517  0.36774  1.0000
  C   C12       1.0  0.36170  0.59482  0.63225  1.0000
  C   C13       1.0  0.62043  0.75088  0.89356  1.0000
  C   C14       1.0  0.37957  0.24912  0.10644  1.0000
  C   C15       1.0  0.82403  0.62004  0.83317  1.0000
  C   C16       1.0  0.17597  0.37996  0.16683  1.0000
  C   C17       1.0  0.54241  0.85145  0.88343  1.0000
  C   C18       1.0  0.45759  0.14855  0.11658  1.0000
  C   C19       1.0  0.71605  0.34953  0.69902  1.0000
  C   C20       1.0  0.28396  0.65047  0.30099  1.0000
  C   C21       1.0  0.78877  0.37376  0.77839  1.0000
  C   C22       1.0  0.21125  0.62624  0.22162  1.0000
  C   C23       1.0  0.04563  0.20697  0.97942  1.0000
  C   C24       1.0  0.95436  0.79303  0.02058  1.0000
  C   C25       1.0  0.37970  0.00904  0.88446  1.0000
  C   C26       1.0  0.62029  0.99096  0.11553  1.0000
  C   C27       1.0  0.59847  0.30648  0.37592  1.0000
  C   C28       1.0  0.40153  0.69352  0.62408  1.0000
  C   C29       1.0  0.56924  0.68571  0.96836  1.0000
  C   C30       1.0  0.43077  0.31429  0.03165  1.0000
  C   C31       1.0  0.26616  0.09911  0.89615  1.0000
  C   C32       1.0  0.73384  0.90090  0.10385  1.0000
  C   C33       1.0  0.57736  0.30085  0.55018  1.0000
  C   C34       1.0  0.42264  0.69915  0.44982  1.0000
  C   C35       1.0  0.65136  0.59094  0.97176  1.0000
  C   C36       1.0  0.34863  0.40905  0.02825  1.0000
  C   C37       1.0  0.54620  0.34079  0.70992  1.0000
  C   C38       1.0  0.45380  0.65921  0.29008  1.0000
  C   C39       1.0  0.50765  0.26692  0.46927  1.0000
  C   C40       1.0  0.49235  0.73308  0.53073  1.0000
  C   C41       1.0  0.17094  0.25874  0.83432  1.0000
  C   C42       1.0  0.82905  0.74126  0.16568  1.0000
  C   C43       1.0  0.75051  0.71597  0.82427  1.0000
  C   C44       1.0  0.24949  0.28403  0.17574  1.0000
  C   C45       1.0  0.14665  0.11778  0.97535  1.0000
  C   C46       1.0  0.85335  0.88223  0.02465  1.0000
  C   C47       1.0  0.47750  0.31749  0.63615  1.0000
  C   C48       1.0  0.52250  0.68251  0.36385  1.0000
  C   C49       1.0  0.81644  0.33429  0.61311  1.0000
  C   C50       1.0  0.18356  0.66571  0.38689  1.0000
  C   C51       1.0  0.74825  0.30873  0.53987  1.0000
  C   C52       1.0  0.25175  0.69127  0.46013  1.0000
  C   C53       1.0  0.27692  0.17240  0.82424  1.0000
  C   C54       1.0  0.72307  0.82761  0.17576  1.0000
  C   C55       1.0  0.52341  0.15081  0.47821  1.0000
  C   C56       1.0  0.47659  0.84919  0.52179  1.0000
  C   C57       1.0  0.32084  0.30519  0.47363  1.0000
  C   C58       1.0  0.67917  0.69481  0.52637  1.0000
  S   S1        1.0  0.36987  0.90327  0.95760  1.0000
  S   S2        1.0  0.63012  0.09673  0.04241  1.0000
  N   N1        1.0  0.50389  0.00063  0.81356  1.0000
  N   N2        1.0  0.49611  0.99937  0.18644  1.0000
  N   N3        1.0  0.59473  0.91261  0.81307  1.0000
  N   N4        1.0  0.40527  0.08739  0.18693  1.0000
  N   N5        1.0  0.77833  0.55789  0.90644  1.0000
  N   N6        1.0  0.22166  0.44211  0.09356  1.0000
  N   N7        1.0  0.05591  0.27706  0.91030  1.0000
  N   N8        1.0  0.94409  0.72294  0.08970  1.0000
  O   O1        1.0  0.82532  0.38554  0.04407  1.0000
  O   O2        1.0  0.17470  0.61446  0.95594  1.0000
  O   O3        1.0  0.93155  0.40662  0.76438  1.0000
  O   O4        1.0  0.06846  0.59340  0.23559  1.0000
  O   O5        1.0  0.87418  0.52038  0.11239  1.0000
  O   O6        1.0  0.12580  0.47962  0.88762  1.0000
  O   O7        1.0  0.70930  0.36195  0.86041  1.0000
  O   O8        1.0  0.29071  0.63804  0.13959  1.0000
  F   F1        1.0  0.43719  0.10951  0.42282  1.0000
  F   F2        1.0  0.56281  0.89049  0.57719  1.0000
  F   F3        1.0  0.21652  0.25793  0.54133  1.0000
  F   F4        1.0  0.78348  0.74207  0.45867  1.0000
  F   F5        1.0  0.29435  0.40413  0.48911  1.0000
  F   F6        1.0  0.70565  0.59587  0.51089  1.0000
  F   F7        1.0  0.26853  0.29311  0.39376  1.0000
  F   F8        1.0  0.73147  0.70689  0.60624  1.0000
  F   F9        1.0  0.46662  0.11685  0.56546  1.0000
  F   F10       1.0  0.53338  0.88315  0.43454  1.0000
  F   F11       1.0  0.68521  0.11399  0.45614  1.0000
  F   F12       1.0  0.31479  0.88600  0.54386  1.0000
