data_image0
_chemical_formula_structural       Ca4H32C16O32
_chemical_formula_sum              "Ca4 H32 C16 O32"
_cell_length_a       9.74729
_cell_length_b       8.79432
_cell_length_c       10.1913
_cell_angle_alpha    90.0012
_cell_angle_beta     90.0006
_cell_angle_gamma    89.9999

_space_group_name_H-M_alt    "P 1"
_space_group_IT_number       1

loop_
  _space_group_symop_operation_xyz
  'x, y, z'

loop_
  _atom_site_type_symbol
  _atom_site_label
  _atom_site_symmetry_multiplicity
  _atom_site_fract_x
  _atom_site_fract_y
  _atom_site_fract_z
  _atom_site_occupancy
  Ca  Ca1       1.0  0.21932  0.30782  0.67705  1.0000
  Ca  Ca2       1.0  0.78068  0.80783  0.82295  1.0000
  Ca  Ca3       1.0  0.28068  0.69217  0.17705  1.0000
  Ca  Ca4       1.0  0.71932  0.19218  0.32295  1.0000
  H   H1        1.0  0.35898  0.76310  0.64431  1.0000
  H   H2        1.0  0.64102  0.26311  0.85570  1.0000
  H   H3        1.0  0.14102  0.23689  0.14431  1.0000
  H   H4        1.0  0.85898  0.73690  0.35570  1.0000
  H   H5        1.0  0.27831  0.86661  0.84460  1.0000
  H   H6        1.0  0.72168  0.36661  0.65541  1.0000
  H   H7        1.0  0.22170  0.13339  0.34460  1.0000
  H   H8        1.0  0.77831  0.63338  0.15541  1.0000
  H   H9        1.0  0.45860  0.55028  0.72642  1.0000
  H   H10       1.0  0.54141  0.05028  0.77357  1.0000
  H   H11       1.0  0.04141  0.44972  0.22643  1.0000
  H   H12       1.0  0.95859  0.94971  0.27358  1.0000
  H   H13       1.0  0.11963  0.70941  0.93650  1.0000
  H   H14       1.0  0.88036  0.20940  0.56349  1.0000
  H   H15       1.0  0.38036  0.29061  0.43650  1.0000
  H   H16       1.0  0.61964  0.79059  0.06350  1.0000
  H   H17       1.0  0.07118  0.33475  0.90585  1.0000
  H   H18       1.0  0.92882  0.83476  0.59415  1.0000
  H   H19       1.0  0.42882  0.66526  0.40585  1.0000
  H   H20       1.0  0.57117  0.16524  0.09415  1.0000
  H   H21       1.0  0.18601  0.46302  0.92208  1.0000
  H   H22       1.0  0.81399  0.96302  0.57792  1.0000
  H   H23       1.0  0.31399  0.53699  0.42208  1.0000
  H   H24       1.0  0.68601  0.03698  0.07792  1.0000
  H   H25       1.0  0.14472  0.97160  0.69885  1.0000
  H   H26       1.0  0.85528  0.47160  0.80115  1.0000
  H   H27       1.0  0.35527  0.02839  0.19885  1.0000
  H   H28       1.0  0.64473  0.52841  0.30115  1.0000
  H   H29       1.0  0.07439  0.06078  0.81185  1.0000
  H   H30       1.0  0.92561  0.56077  0.68816  1.0000
  H   H31       1.0  0.42561  0.93923  0.31184  1.0000
  H   H32       1.0  0.57439  0.43923  0.18816  1.0000
  C   C1        1.0  0.15489  0.67592  0.65533  1.0000
  C   C2        1.0  0.84513  0.17593  0.84466  1.0000
  C   C3        1.0  0.34511  0.32407  0.15533  1.0000
  C   C4        1.0  0.65487  0.82408  0.34466  1.0000
  C   C5        1.0  0.30202  0.68315  0.70710  1.0000
  C   C6        1.0  0.69798  0.18316  0.79289  1.0000
  C   C7        1.0  0.19798  0.31684  0.20710  1.0000
  C   C8        1.0  0.80202  0.81684  0.29290  1.0000
  C   C9        1.0  0.30631  0.74469  0.84835  1.0000
  C   C10       1.0  0.69370  0.24470  0.65164  1.0000
  C   C11       1.0  0.19370  0.25531  0.34836  1.0000
  C   C12       1.0  0.80630  0.75530  0.15165  1.0000
  C   C13       1.0  0.45248  0.73722  0.90479  1.0000
  C   C14       1.0  0.54752  0.23722  0.59521  1.0000
  C   C15       1.0  0.04752  0.26278  0.40479  1.0000
  C   C16       1.0  0.95248  0.76278  0.09522  1.0000
  O   O1        1.0  0.10024  0.54618  0.63979  1.0000
  O   O2        1.0  0.89976  0.04618  0.86021  1.0000
  O   O3        1.0  0.39976  0.45381  0.13980  1.0000
  O   O4        1.0  0.60024  0.95384  0.36020  1.0000
  O   O5        1.0  0.09574  0.80232  0.63565  1.0000
  O   O6        1.0  0.90427  0.30235  0.86436  1.0000
  O   O7        1.0  0.40426  0.19766  0.13565  1.0000
  O   O8        1.0  0.59572  0.69767  0.36435  1.0000
  O   O9        1.0  0.36300  0.53501  0.69883  1.0000
  O   O10       1.0  0.63700  0.03500  0.80117  1.0000
  O   O11       1.0  0.13700  0.46499  0.19883  1.0000
  O   O12       1.0  0.86300  0.96501  0.30117  1.0000
  O   O13       1.0  0.21695  0.66694  0.93778  1.0000
  O   O14       1.0  0.78305  0.16695  0.56221  1.0000
  O   O15       1.0  0.28304  0.33306  0.43778  1.0000
  O   O16       1.0  0.71695  0.83304  0.06222  1.0000
  O   O17       1.0  0.55150  0.71666  0.82615  1.0000
  O   O18       1.0  0.44850  0.21664  0.67383  1.0000
  O   O19       1.0  0.94851  0.28335  0.32616  1.0000
  O   O20       1.0  0.05150  0.78334  0.17385  1.0000
  O   O21       1.0  0.46397  0.75621  0.02831  1.0000
  O   O22       1.0  0.53602  0.25622  0.47170  1.0000
  O   O23       1.0  0.03604  0.24378  0.52830  1.0000
  O   O24       1.0  0.96397  0.74379  0.97170  1.0000
  O   O25       1.0  0.17182  0.35482  0.90015  1.0000
  O   O26       1.0  0.82818  0.85483  0.59985  1.0000
  O   O27       1.0  0.32818  0.64519  0.40015  1.0000
  O   O28       1.0  0.67182  0.14518  0.09985  1.0000
  O   O29       1.0  0.15864  0.06209  0.75669  1.0000
  O   O30       1.0  0.84136  0.56210  0.74332  1.0000
  O   O31       1.0  0.34136  0.93790  0.25668  1.0000
  O   O32       1.0  0.65865  0.43791  0.24332  1.0000
