data_image0
_chemical_formula_structural       Ca4H40C32O28
_chemical_formula_sum              "Ca4 H40 C32 O28"
_cell_length_a       6.55407
_cell_length_b       7.05556
_cell_length_c       21.64
_cell_angle_alpha    90
_cell_angle_beta     90
_cell_angle_gamma    92.2197

_space_group_name_H-M_alt    "P 1"
_space_group_IT_number       1

loop_
  _space_group_symop_operation_xyz
  'x, y, z'

loop_
  _atom_site_type_symbol
  _atom_site_label
  _atom_site_symmetry_multiplicity
  _atom_site_fract_x
  _atom_site_fract_y
  _atom_site_fract_z
  _atom_site_occupancy
  Ca  Ca1       1.0  0.50602  0.33871  0.71417  1.0000
  Ca  Ca2       1.0  0.99399  0.66128  0.21417  1.0000
  Ca  Ca3       1.0  0.49397  0.66129  0.28583  1.0000
  Ca  Ca4       1.0  0.00603  0.33871  0.78583  1.0000
  H   H1        1.0  0.69784  0.33441  0.57670  1.0000
  H   H2        1.0  0.80217  0.66558  0.07671  1.0000
  H   H3        1.0  0.30214  0.66558  0.42330  1.0000
  H   H4        1.0  0.19783  0.33442  0.92330  1.0000
  H   H5        1.0  0.69527  0.32370  0.46304  1.0000
  H   H6        1.0  0.80474  0.67631  0.96305  1.0000
  H   H7        1.0  0.30471  0.67631  0.53696  1.0000
  H   H8        1.0  0.19528  0.32368  0.03696  1.0000
  H   H9        1.0  0.32044  0.15580  0.46309  1.0000
  H   H10       1.0  0.17956  0.84421  0.96309  1.0000
  H   H11       1.0  0.67953  0.84421  0.53691  1.0000
  H   H12       1.0  0.82047  0.15582  0.03690  1.0000
  H   H13       1.0  0.32427  0.17179  0.57812  1.0000
  H   H14       1.0  0.17574  0.82821  0.07812  1.0000
  H   H15       1.0  0.67572  0.82822  0.42188  1.0000
  H   H16       1.0  0.82427  0.17180  0.92187  1.0000
  H   H17       1.0  0.37485  0.62050  0.62547  1.0000
  H   H18       1.0  0.12516  0.37949  0.12547  1.0000
  H   H19       1.0  0.62512  0.37950  0.37454  1.0000
  H   H20       1.0  0.87487  0.62050  0.87454  1.0000
  H   H21       1.0  0.61692  0.63238  0.62472  1.0000
  H   H22       1.0  0.88309  0.36761  0.12472  1.0000
  H   H23       1.0  0.38305  0.36762  0.37528  1.0000
  H   H24       1.0  0.11695  0.63239  0.87528  1.0000
  H   H25       1.0  0.79551  0.68060  0.71679  1.0000
  H   H26       1.0  0.70449  0.31939  0.21680  1.0000
  H   H27       1.0  0.20448  0.31940  0.28321  1.0000
  H   H28       1.0  0.29553  0.68060  0.78321  1.0000
  H   H29       1.0  0.70469  0.67744  0.78596  1.0000
  H   H30       1.0  0.79531  0.32257  0.28597  1.0000
  H   H31       1.0  0.29533  0.32255  0.21404  1.0000
  H   H32       1.0  0.20468  0.67744  0.71404  1.0000
  H   H33       1.0  0.38420  0.94347  0.66546  1.0000
  H   H34       1.0  0.11580  0.05654  0.16546  1.0000
  H   H35       1.0  0.61577  0.05654  0.33454  1.0000
  H   H36       1.0  0.88423  0.94345  0.83454  1.0000
  H   H37       1.0  0.62672  0.94637  0.66511  1.0000
  H   H38       1.0  0.87328  0.05363  0.16511  1.0000
  H   H39       1.0  0.37325  0.05364  0.33489  1.0000
  H   H40       1.0  0.12675  0.94636  0.83489  1.0000
  C   C1        1.0  0.01094  0.25270  0.58485  1.0000
  C   C2        1.0  0.48907  0.74730  0.08486  1.0000
  C   C3        1.0  0.98905  0.74731  0.41514  1.0000
  C   C4        1.0  0.51095  0.25269  0.91514  1.0000
  C   C5        1.0  0.83394  0.29402  0.55194  1.0000
  C   C6        1.0  0.66606  0.70598  0.05194  1.0000
  C   C7        1.0  0.16603  0.70597  0.44806  1.0000
  C   C8        1.0  0.33396  0.29402  0.94806  1.0000
  C   C9        1.0  0.83272  0.28736  0.48785  1.0000
  C   C10       1.0  0.66731  0.71265  0.98786  1.0000
  C   C11       1.0  0.16726  0.71265  0.51214  1.0000
  C   C12       1.0  0.33271  0.28735  0.01214  1.0000
  C   C13       1.0  0.00765  0.23784  0.45520  1.0000
  C   C14       1.0  0.49232  0.76217  0.95520  1.0000
  C   C15       1.0  0.99233  0.76217  0.54480  1.0000
  C   C16       1.0  0.50770  0.23783  0.04480  1.0000
  C   C17       1.0  0.18497  0.19675  0.48820  1.0000
  C   C18       1.0  0.31505  0.80326  0.98820  1.0000
  C   C19       1.0  0.81502  0.80325  0.51180  1.0000
  C   C20       1.0  0.68496  0.19676  0.01180  1.0000
  C   C21       1.0  0.18700  0.20465  0.55247  1.0000
  C   C22       1.0  0.31300  0.79535  0.05248  1.0000
  C   C23       1.0  0.81297  0.79536  0.44753  1.0000
  C   C24       1.0  0.68702  0.20466  0.94752  1.0000
  C   C25       1.0  0.00946  0.26131  0.65387  1.0000
  C   C26       1.0  0.49051  0.73870  0.15387  1.0000
  C   C27       1.0  0.99052  0.73867  0.34613  1.0000
  C   C28       1.0  0.50949  0.26132  0.84613  1.0000
  C   C29       1.0  0.00352  0.23005  0.38593  1.0000
  C   C30       1.0  0.49650  0.76994  0.88594  1.0000
  C   C31       1.0  0.99646  0.76994  0.61407  1.0000
  C   C32       1.0  0.50353  0.23006  0.11406  1.0000
  O   O1        1.0  0.49703  0.54185  0.62517  1.0000
  O   O2        1.0  0.00298  0.45815  0.12517  1.0000
  O   O3        1.0  0.50295  0.45815  0.37483  1.0000
  O   O4        1.0  0.99705  0.54185  0.87483  1.0000
  O   O5        1.0  0.17531  0.24719  0.68394  1.0000
  O   O6        1.0  0.32470  0.75282  0.18394  1.0000
  O   O7        1.0  0.82468  0.75280  0.31606  1.0000
  O   O8        1.0  0.67532  0.24718  0.81606  1.0000
  O   O9        1.0  0.84156  0.28523  0.68199  1.0000
  O   O10       1.0  0.65847  0.71477  0.18200  1.0000
  O   O11       1.0  0.15844  0.71477  0.31801  1.0000
  O   O12       1.0  0.34154  0.28522  0.81800  1.0000
  O   O13       1.0  0.75050  0.59599  0.75138  1.0000
  O   O14       1.0  0.74950  0.40400  0.25138  1.0000
  O   O15       1.0  0.24950  0.40400  0.24862  1.0000
  O   O16       1.0  0.25051  0.59599  0.74862  1.0000
  O   O17       1.0  0.17236  0.21955  0.35676  1.0000
  O   O18       1.0  0.32765  0.78046  0.85677  1.0000
  O   O19       1.0  0.82761  0.78045  0.64324  1.0000
  O   O20       1.0  0.67239  0.21954  0.14323  1.0000
  O   O21       1.0  0.50752  0.01651  0.67815  1.0000
  O   O22       1.0  0.99247  0.98349  0.17814  1.0000
  O   O23       1.0  0.49244  0.98350  0.32185  1.0000
  O   O24       1.0  0.00756  0.01650  0.82186  1.0000
  O   O25       1.0  0.83101  0.23674  0.35861  1.0000
  O   O26       1.0  0.66898  0.76325  0.85861  1.0000
  O   O27       1.0  0.16895  0.76325  0.64139  1.0000
  O   O28       1.0  0.33106  0.23674  0.14139  1.0000
