data_image0
_chemical_formula_structural       Ag2H16C24S2N4O8F6
_chemical_formula_sum              "Ag2 H16 C24 S2 N4 O8 F6"
_cell_length_a       8.99269
_cell_length_b       9.16279
_cell_length_c       10.1063
_cell_angle_alpha    89.7874
_cell_angle_beta     72.1351
_cell_angle_gamma    64.6003

_space_group_name_H-M_alt    "P 1"
_space_group_IT_number       1

loop_
  _space_group_symop_operation_xyz
  'x, y, z'

loop_
  _atom_site_type_symbol
  _atom_site_label
  _atom_site_symmetry_multiplicity
  _atom_site_fract_x
  _atom_site_fract_y
  _atom_site_fract_z
  _atom_site_occupancy
  Ag  Ag1       1.0  0.40455  0.44587  0.28897  1.0000
  Ag  Ag2       1.0  0.59545  0.55413  0.71103  1.0000
  H   H1        1.0  0.14095  0.36355  0.49742  1.0000
  H   H2        1.0  0.85905  0.63645  0.50258  1.0000
  H   H3        1.0  0.09450  0.12612  0.58532  1.0000
  H   H4        1.0  0.90550  0.87388  0.41468  1.0000
  H   H5        1.0  0.33113  0.84167  0.47861  1.0000
  H   H6        1.0  0.66887  0.15833  0.52139  1.0000
  H   H7        1.0  0.59944  0.81071  0.28367  1.0000
  H   H8        1.0  0.40056  0.18929  0.71633  1.0000
  H   H9        1.0  0.36783  0.39153  0.88322  1.0000
  H   H10       1.0  0.63217  0.60846  0.11678  1.0000
  H   H11       1.0  0.37561  0.21371  0.07162  1.0000
  H   H12       1.0  0.62439  0.78628  0.92838  1.0000
  H   H13       1.0  0.90914  0.12766  0.99609  1.0000
  H   H14       1.0  0.09086  0.87234  0.00391  1.0000
  H   H15       1.0  0.87724  0.31109  0.81571  1.0000
  H   H16       1.0  0.12277  0.68892  0.18429  1.0000
  C   C1        1.0  0.23755  0.23898  0.45060  1.0000
  C   C2        1.0  0.76245  0.76102  0.54940  1.0000
  C   C3        1.0  0.21342  0.10577  0.50024  1.0000
  C   C4        1.0  0.78658  0.89423  0.49976  1.0000
  C   C5        1.0  0.34359  0.94846  0.44027  1.0000
  C   C6        1.0  0.65640  0.05154  0.55973  1.0000
  C   C7        1.0  0.49220  0.93076  0.33124  1.0000
  C   C8        1.0  0.50780  0.06924  0.66876  1.0000
  C   C9        1.0  0.50372  0.06948  0.28245  1.0000
  C   C10       1.0  0.49628  0.93052  0.71756  1.0000
  C   C11       1.0  0.66109  0.04442  0.15926  1.0000
  C   C12       1.0  0.33891  0.95558  0.84074  1.0000
  C   C13       1.0  0.48439  0.33105  0.91240  1.0000
  C   C14       1.0  0.51561  0.66895  0.08760  1.0000
  C   C15       1.0  0.48968  0.23229  0.01761  1.0000
  C   C16       1.0  0.51032  0.76771  0.98239  1.0000
  C   C17       1.0  0.64296  0.15793  0.05161  1.0000
  C   C18       1.0  0.35704  0.84207  0.94839  1.0000
  C   C19       1.0  0.78641  0.18316  0.97535  1.0000
  C   C20       1.0  0.21359  0.81684  0.02465  1.0000
  C   C21       1.0  0.76933  0.28548  0.87363  1.0000
  C   C22       1.0  0.23067  0.71452  0.12637  1.0000
  C   C23       1.0  0.02899  0.63368  0.78873  1.0000
  C   C24       1.0  0.97101  0.36633  0.21127  1.0000
  S   S1        1.0  0.22989  0.61038  0.64479  1.0000
  S   S2        1.0  0.77012  0.38962  0.35521  1.0000
  N   N1        1.0  0.37852  0.22251  0.34262  1.0000
  N   N2        1.0  0.62148  0.77749  0.65738  1.0000
  N   N3        1.0  0.62047  0.36014  0.84282  1.0000
  N   N4        1.0  0.37953  0.63986  0.15718  1.0000
  O   O1        1.0  0.80253  0.92517  0.14214  1.0000
  O   O2        1.0  0.19747  0.07482  0.85786  1.0000
  O   O3        1.0  0.17428  0.63471  0.52131  1.0000
  O   O4        1.0  0.82572  0.36529  0.47869  1.0000
  O   O5        1.0  0.26371  0.73955  0.69251  1.0000
  O   O6        1.0  0.73628  0.26045  0.30749  1.0000
  O   O7        1.0  0.35842  0.44466  0.64425  1.0000
  O   O8        1.0  0.64158  0.55534  0.35575  1.0000
  F   F1        1.0  0.06049  0.60316  0.91147  1.0000
  F   F2        1.0  0.93951  0.39684  0.08853  1.0000
  F   F3        1.0  0.89696  0.78747  0.81076  1.0000
  F   F4        1.0  0.10304  0.21253  0.18924  1.0000
  F   F5        1.0  0.97084  0.52742  0.75711  1.0000
  F   F6        1.0  0.02915  0.47259  0.24289  1.0000
