data_image0
_chemical_formula_structural       Zn4P4H20C24N4O12
_chemical_formula_sum              "Zn4 P4 H20 C24 N4 O12"
_cell_length_a       7.97449
_cell_length_b       8.493
_cell_length_c       12.292
_cell_angle_alpha    75.1902
_cell_angle_beta     78.7467
_cell_angle_gamma    67.9913

_space_group_name_H-M_alt    "P 1"
_space_group_IT_number       1

loop_
  _space_group_symop_operation_xyz
  'x, y, z'

loop_
  _atom_site_type_symbol
  _atom_site_label
  _atom_site_symmetry_multiplicity
  _atom_site_fract_x
  _atom_site_fract_y
  _atom_site_fract_z
  _atom_site_occupancy
  Zn  Zn1       1.0  0.37260  0.76983  0.28888  1.0000
  Zn  Zn2       1.0  0.62740  0.23017  0.71112  1.0000
  Zn  Zn3       1.0  0.53826  0.22950  0.03670  1.0000
  Zn  Zn4       1.0  0.46174  0.77050  0.96330  1.0000
  P   P1        1.0  0.71598  0.81133  0.11936  1.0000
  P   P2        1.0  0.28402  0.18867  0.88064  1.0000
  P   P3        1.0  0.31102  0.53121  0.17772  1.0000
  P   P4        1.0  0.68898  0.46879  0.82229  1.0000
  H   H1        1.0  0.90405  0.72334  0.12578  1.0000
  H   H2        1.0  0.09594  0.27666  0.87422  1.0000
  H   H3        1.0  0.15082  0.49309  0.18593  1.0000
  H   H4        1.0  0.84918  0.50691  0.81407  1.0000
  H   H5        1.0  0.53445  0.65809  0.53028  1.0000
  H   H6        1.0  0.46555  0.34191  0.46972  1.0000
  H   H7        1.0  0.47063  0.80590  0.69204  1.0000
  H   H8        1.0  0.52937  0.19410  0.30796  1.0000
  H   H9        1.0  0.23889  0.10162  0.68260  1.0000
  H   H10       1.0  0.76111  0.89839  0.31739  1.0000
  H   H11       1.0  0.77671  0.44717  0.21613  1.0000
  H   H12       1.0  0.22329  0.55283  0.78387  1.0000
  H   H13       1.0  0.86685  0.27013  0.06524  1.0000
  H   H14       1.0  0.13315  0.72987  0.93476  1.0000
  H   H15       1.0  0.11478  0.97943  0.09457  1.0000
  H   H16       1.0  0.88522  0.02057  0.90543  1.0000
  H   H17       1.0  0.99053  0.34848  0.57633  1.0000
  H   H18       1.0  0.00948  0.65153  0.42367  1.0000
  H   H19       1.0  0.82892  0.47531  0.40420  1.0000
  H   H20       1.0  0.17108  0.52469  0.59580  1.0000
  C   C1        1.0  0.43249  0.78750  0.52717  1.0000
  C   C2        1.0  0.56751  0.21250  0.47283  1.0000
  C   C3        1.0  0.39820  0.87202  0.61764  1.0000
  C   C4        1.0  0.60180  0.12798  0.38236  1.0000
  C   C5        1.0  0.26699  0.03499  0.61275  1.0000
  C   C6        1.0  0.73301  0.96502  0.38725  1.0000
  C   C7        1.0  0.16944  0.11375  0.51734  1.0000
  C   C8        1.0  0.83056  0.88625  0.48266  1.0000
  C   C9        1.0  0.21412  0.01960  0.42936  1.0000
  C   C10       1.0  0.78588  0.98039  0.57065  1.0000
  C   C11       1.0  0.11958  0.09377  0.33003  1.0000
  C   C12       1.0  0.88043  0.90623  0.66997  1.0000
  C   C13       1.0  0.98047  0.25830  0.32169  1.0000
  C   C14       1.0  0.01953  0.74171  0.67831  1.0000
  C   C15       1.0  0.88736  0.32250  0.22393  1.0000
  C   C16       1.0  0.11264  0.67750  0.77607  1.0000
  C   C17       1.0  0.93565  0.22481  0.14148  1.0000
  C   C18       1.0  0.06435  0.77519  0.85852  1.0000
  C   C19       1.0  0.07514  0.06239  0.15636  1.0000
  C   C20       1.0  0.92486  0.93762  0.84364  1.0000
  C   C21       1.0  0.02821  0.27996  0.50654  1.0000
  C   C22       1.0  0.97179  0.72004  0.49346  1.0000
  C   C23       1.0  0.93756  0.34931  0.41234  1.0000
  C   C24       1.0  0.06244  0.65069  0.58765  1.0000
  N   N1        1.0  0.34274  0.85869  0.43583  1.0000
  N   N2        1.0  0.65726  0.14131  0.56417  1.0000
  N   N3        1.0  0.16484  0.99915  0.24772  1.0000
  N   N4        1.0  0.83516  0.00085  0.75228  1.0000
  O   O1        1.0  0.68643  0.00199  0.11374  1.0000
  O   O2        1.0  0.31357  0.99801  0.88627  1.0000
  O   O3        1.0  0.62593  0.72911  0.23126  1.0000
  O   O4        1.0  0.37407  0.27089  0.76873  1.0000
  O   O5        1.0  0.67577  0.77390  0.01347  1.0000
  O   O6        1.0  0.32422  0.22611  0.98652  1.0000
  O   O7        1.0  0.28943  0.69769  0.08615  1.0000
  O   O8        1.0  0.71057  0.30231  0.91386  1.0000
  O   O9        1.0  0.47240  0.37304  0.15021  1.0000
  O   O10       1.0  0.52759  0.62695  0.84979  1.0000
  O   O11       1.0  0.31506  0.56360  0.29560  1.0000
  O   O12       1.0  0.68494  0.43640  0.70440  1.0000
