data_image0
_chemical_formula_structural       Co4P4H24C8N4O12
_chemical_formula_sum              "Co4 P4 H24 C8 N4 O12"
_cell_length_a       6.42768
_cell_length_b       8.32714
_cell_length_c       9.75077
_cell_angle_alpha    90
_cell_angle_beta     99.8395
_cell_angle_gamma    90

_space_group_name_H-M_alt    "P 1"
_space_group_IT_number       1

loop_
  _space_group_symop_operation_xyz
  'x, y, z'

loop_
  _atom_site_type_symbol
  _atom_site_label
  _atom_site_symmetry_multiplicity
  _atom_site_fract_x
  _atom_site_fract_y
  _atom_site_fract_z
  _atom_site_occupancy
  Co  Co1       1.0  0.50992  0.66375  0.34319  1.0000
  Co  Co2       1.0  0.49008  0.16375  0.15681  1.0000
  Co  Co3       1.0  0.49008  0.33625  0.65681  1.0000
  Co  Co4       1.0  0.50992  0.83625  0.84319  1.0000
  P   P1        1.0  0.75813  0.85709  0.15324  1.0000
  P   P2        1.0  0.24187  0.35709  0.34676  1.0000
  P   P3        1.0  0.24187  0.14291  0.84676  1.0000
  P   P4        1.0  0.75813  0.64291  0.65324  1.0000
  H   H1        1.0  0.09257  0.72673  0.16548  1.0000
  H   H2        1.0  0.90744  0.22672  0.33452  1.0000
  H   H3        1.0  0.90743  0.27328  0.83452  1.0000
  H   H4        1.0  0.09257  0.77328  0.66548  1.0000
  H   H5        1.0  0.11209  0.93985  0.16790  1.0000
  H   H6        1.0  0.88791  0.43985  0.33210  1.0000
  H   H7        1.0  0.88791  0.06015  0.83210  1.0000
  H   H8        1.0  0.11210  0.56015  0.66790  1.0000
  H   H9        1.0  0.02805  0.93092  0.41670  1.0000
  H   H10       1.0  0.97195  0.43092  0.08330  1.0000
  H   H11       1.0  0.97195  0.06908  0.58330  1.0000
  H   H12       1.0  0.02805  0.56908  0.91670  1.0000
  H   H13       1.0  0.05122  0.71883  0.41149  1.0000
  H   H14       1.0  0.94878  0.21883  0.08851  1.0000
  H   H15       1.0  0.94878  0.28116  0.58851  1.0000
  H   H16       1.0  0.05122  0.78117  0.91149  1.0000
  H   H17       1.0  0.37968  0.84275  0.51610  1.0000
  H   H18       1.0  0.62032  0.34275  0.98390  1.0000
  H   H19       1.0  0.62032  0.15725  0.48390  1.0000
  H   H20       1.0  0.37968  0.65725  0.01610  1.0000
  H   H21       1.0  0.38210  0.95289  0.37666  1.0000
  H   H22       1.0  0.61791  0.45289  0.12334  1.0000
  H   H23       1.0  0.61791  0.04711  0.62334  1.0000
  H   H24       1.0  0.38209  0.54711  0.87666  1.0000
  C   C1        1.0  0.03951  0.83639  0.21200  1.0000
  C   C2        1.0  0.96049  0.33638  0.28800  1.0000
  C   C3        1.0  0.96049  0.16362  0.78800  1.0000
  C   C4        1.0  0.03951  0.66362  0.71200  1.0000
  C   C5        1.0  0.10366  0.83124  0.36968  1.0000
  C   C6        1.0  0.89634  0.33124  0.13032  1.0000
  C   C7        1.0  0.89634  0.16876  0.63032  1.0000
  C   C8        1.0  0.10366  0.66876  0.86968  1.0000
  N   N1        1.0  0.33645  0.84298  0.40951  1.0000
  N   N2        1.0  0.66356  0.34298  0.09049  1.0000
  N   N3        1.0  0.66356  0.15702  0.59049  1.0000
  N   N4        1.0  0.33645  0.65702  0.90951  1.0000
  O   O1        1.0  0.68312  0.99539  0.23870  1.0000
  O   O2        1.0  0.31687  0.49539  0.26130  1.0000
  O   O3        1.0  0.31687  0.00461  0.76130  1.0000
  O   O4        1.0  0.68313  0.50461  0.73870  1.0000
  O   O5        1.0  0.64389  0.69811  0.17955  1.0000
  O   O6        1.0  0.35611  0.19811  0.32045  1.0000
  O   O7        1.0  0.35611  0.30189  0.82045  1.0000
  O   O8        1.0  0.64389  0.80189  0.67955  1.0000
  O   O9        1.0  0.73059  0.89436  0.99635  1.0000
  O   O10       1.0  0.26941  0.39435  0.50365  1.0000
  O   O11       1.0  0.26941  0.10564  0.00365  1.0000
  O   O12       1.0  0.73059  0.60564  0.49635  1.0000
