data_image0
_chemical_formula_structural       Zn4P4H36C48N8O12
_chemical_formula_sum              "Zn4 P4 H36 C48 N8 O12"
_cell_length_a       8.13709
_cell_length_b       12.3457
_cell_length_c       12.4324
_cell_angle_alpha    99.3316
_cell_angle_beta     92.7141
_cell_angle_gamma    92.7065

_space_group_name_H-M_alt    "P 1"
_space_group_IT_number       1

loop_
  _space_group_symop_operation_xyz
  'x, y, z'

loop_
  _atom_site_type_symbol
  _atom_site_label
  _atom_site_symmetry_multiplicity
  _atom_site_fract_x
  _atom_site_fract_y
  _atom_site_fract_z
  _atom_site_occupancy
  Zn  Zn1       1.0  0.75024  0.26368  0.73663  1.0000
  Zn  Zn2       1.0  0.24976  0.73632  0.26337  1.0000
  Zn  Zn3       1.0  0.74987  0.51909  0.48112  1.0000
  Zn  Zn4       1.0  0.25013  0.48091  0.51888  1.0000
  P   P1        1.0  0.92917  0.30885  0.50798  1.0000
  P   P2        1.0  0.57116  0.49279  0.69053  1.0000
  P   P3        1.0  0.07083  0.69115  0.49202  1.0000
  P   P4        1.0  0.42884  0.50721  0.30948  1.0000
  H   H1        1.0  0.99329  0.22901  0.42801  1.0000
  H   H2        1.0  0.50692  0.57379  0.76924  1.0000
  H   H3        1.0  0.00671  0.77099  0.57199  1.0000
  H   H4        1.0  0.49309  0.42621  0.23076  1.0000
  H   H5        1.0  0.11654  0.35904  0.72535  1.0000
  H   H6        1.0  0.38330  0.27626  0.64156  1.0000
  H   H7        1.0  0.88346  0.64096  0.27465  1.0000
  H   H8        1.0  0.61670  0.72374  0.35844  1.0000
  H   H9        1.0  0.35558  0.42868  0.85720  1.0000
  H   H10       1.0  0.14478  0.14354  0.57139  1.0000
  H   H11       1.0  0.64442  0.57132  0.14280  1.0000
  H   H12       1.0  0.85522  0.85646  0.42861  1.0000
  H   H13       1.0  0.31336  0.45028  0.05976  1.0000
  H   H14       1.0  0.18708  0.93959  0.54951  1.0000
  H   H15       1.0  0.68664  0.54972  0.94024  1.0000
  H   H16       1.0  0.81292  0.06041  0.45050  1.0000
  H   H17       1.0  0.58930  0.24837  0.21414  1.0000
  H   H18       1.0  0.91061  0.78425  0.75107  1.0000
  H   H19       1.0  0.41070  0.75163  0.78586  1.0000
  H   H20       1.0  0.08939  0.21575  0.24893  1.0000
  H   H21       1.0  0.37423  0.17039  0.06709  1.0000
  H   H22       1.0  0.12526  0.93243  0.82933  1.0000
  H   H23       1.0  0.62577  0.82961  0.93291  1.0000
  H   H24       1.0  0.87474  0.06757  0.17068  1.0000
  H   H25       1.0  0.43404  0.17781  0.87158  1.0000
  H   H26       1.0  0.06531  0.12925  0.82191  1.0000
  H   H27       1.0  0.56596  0.82219  0.12841  1.0000
  H   H28       1.0  0.93469  0.87075  0.17809  1.0000
  H   H29       1.0  0.12585  0.42497  0.20939  1.0000
  H   H30       1.0  0.37472  0.78876  0.57502  1.0000
  H   H31       1.0  0.87415  0.57503  0.79061  1.0000
  H   H32       1.0  0.62528  0.21124  0.42498  1.0000
  H   H33       1.0  0.86153  0.35191  0.26611  1.0000
  H   H34       1.0  0.63897  0.73193  0.64799  1.0000
  H   H35       1.0  0.13847  0.64809  0.73389  1.0000
  H   H36       1.0  0.36103  0.26807  0.35201  1.0000
  C   C1        1.0  0.10652  0.36272  0.81327  1.0000
  C   C2        1.0  0.39336  0.18773  0.63773  1.0000
  C   C3        1.0  0.89348  0.63728  0.18673  1.0000
  C   C4        1.0  0.60665  0.81227  0.36227  1.0000
  C   C5        1.0  0.23868  0.40449  0.88816  1.0000
  C   C6        1.0  0.26153  0.11233  0.59563  1.0000
  C   C7        1.0  0.76132  0.59551  0.11185  1.0000
  C   C8        1.0  0.73847  0.88767  0.40437  1.0000
  C   C9        1.0  0.21673  0.41436  0.99879  1.0000
  C   C10       1.0  0.28357  0.00092  0.58553  1.0000
  C   C11       1.0  0.78327  0.58564  0.00121  1.0000
  C   C12       1.0  0.71643  0.99909  0.41447  1.0000
  C   C13       1.0  0.06404  0.37867  0.03478  1.0000
  C   C14       1.0  0.43610  0.96465  0.62122  1.0000
  C   C15       1.0  0.93596  0.62133  0.96522  1.0000
  C   C16       1.0  0.56390  0.03535  0.37878  1.0000
  C   C17       1.0  0.93964  0.33392  0.95349  1.0000
  C   C18       1.0  0.56021  0.04650  0.66615  1.0000
  C   C19       1.0  0.06036  0.66608  0.04651  1.0000
  C   C20       1.0  0.43979  0.95350  0.33385  1.0000
  C   C21       1.0  0.78453  0.29230  0.98679  1.0000
  C   C22       1.0  0.71523  0.01306  0.70762  1.0000
  C   C23       1.0  0.21546  0.70769  0.01321  1.0000
  C   C24       1.0  0.28477  0.98694  0.29238  1.0000
  C   C25       1.0  0.76056  0.29583  0.09988  1.0000
  C   C26       1.0  0.73943  0.89926  0.70395  1.0000
  C   C27       1.0  0.23944  0.70417  0.90012  1.0000
  C   C28       1.0  0.26057  0.10074  0.29605  1.0000
  C   C29       1.0  0.61005  0.24926  0.12838  1.0000
  C   C30       1.0  0.88983  0.87061  0.75037  1.0000
  C   C31       1.0  0.38995  0.75074  0.87162  1.0000
  C   C32       1.0  0.11018  0.12939  0.24964  1.0000
  C   C33       1.0  0.49202  0.20572  0.04731  1.0000
  C   C34       1.0  0.00760  0.95227  0.79397  1.0000
  C   C35       1.0  0.50798  0.79428  0.95269  1.0000
  C   C36       1.0  0.99240  0.04773  0.20603  1.0000
  C   C37       1.0  0.52534  0.20933  0.93785  1.0000
  C   C38       1.0  0.97418  0.06247  0.79047  1.0000
  C   C39       1.0  0.47466  0.79067  0.06215  1.0000
  C   C40       1.0  0.02582  0.93753  0.20953  1.0000
  C   C41       1.0  0.03172  0.38631  0.14796  1.0000
  C   C42       1.0  0.46865  0.85072  0.61351  1.0000
  C   C43       1.0  0.96828  0.61369  0.85204  1.0000
  C   C44       1.0  0.53135  0.14928  0.38648  1.0000
  C   C45       1.0  0.88552  0.34587  0.17955  1.0000
  C   C46       1.0  0.61473  0.81903  0.65398  1.0000
  C   C47       1.0  0.11448  0.65413  0.82045  1.0000
  C   C48       1.0  0.38527  0.18097  0.34602  1.0000
  N   N1        1.0  0.96166  0.32841  0.84509  1.0000
  N   N2        1.0  0.53803  0.15566  0.67208  1.0000
  N   N3        1.0  0.03835  0.67159  0.15491  1.0000
  N   N4        1.0  0.46197  0.84434  0.32792  1.0000
  N   N5        1.0  0.66687  0.25044  0.90850  1.0000
  N   N6        1.0  0.83269  0.09192  0.74947  1.0000
  N   N7        1.0  0.33313  0.74956  0.09149  1.0000
  N   N8        1.0  0.16731  0.90808  0.25053  1.0000
  O   O1        1.0  0.85330  0.24248  0.58859  1.0000
  O   O2        1.0  0.64603  0.41210  0.75749  1.0000
  O   O3        1.0  0.14670  0.75752  0.41141  1.0000
  O   O4        1.0  0.35397  0.58790  0.24251  1.0000
  O   O5        1.0  0.80251  0.36479  0.44182  1.0000
  O   O6        1.0  0.69882  0.55838  0.63474  1.0000
  O   O7        1.0  0.19749  0.63521  0.55818  1.0000
  O   O8        1.0  0.30118  0.44162  0.36527  1.0000
  O   O9        1.0  0.07393  0.38597  0.56113  1.0000
  O   O10       1.0  0.42669  0.43935  0.61366  1.0000
  O   O11       1.0  0.92607  0.61403  0.43887  1.0000
  O   O12       1.0  0.57331  0.56065  0.38634  1.0000
