data_image0
_chemical_formula_structural       Cd3H30C42N4Cl4O8
_chemical_formula_sum              "Cd3 H30 C42 N4 Cl4 O8"
_cell_length_a       7.82917
_cell_length_b       9.66343
_cell_length_c       15.5543
_cell_angle_alpha    87.0004
_cell_angle_beta     79.7419
_cell_angle_gamma    68.4302

_space_group_name_H-M_alt    "P 1"
_space_group_IT_number       1

loop_
  _space_group_symop_operation_xyz
  'x, y, z'

loop_
  _atom_site_type_symbol
  _atom_site_label
  _atom_site_symmetry_multiplicity
  _atom_site_fract_x
  _atom_site_fract_y
  _atom_site_fract_z
  _atom_site_occupancy
  Cd  Cd1       1.0  0.99999  0.00000  0.00000  1.0000
  Cd  Cd2       1.0  0.88125  0.96979  0.23523  1.0000
  Cd  Cd3       1.0  0.11875  0.03020  0.76477  1.0000
  H   H1        1.0  0.33933  0.10141  0.02181  1.0000
  H   H2        1.0  0.66065  0.89859  0.97820  1.0000
  H   H3        1.0  0.30543  0.55361  0.97531  1.0000
  H   H4        1.0  0.69457  0.44639  0.02469  1.0000
  H   H5        1.0  0.96272  0.45387  0.19784  1.0000
  H   H6        1.0  0.03727  0.54614  0.80216  1.0000
  H   H7        1.0  0.63372  0.28485  0.93503  1.0000
  H   H8        1.0  0.36627  0.71513  0.06498  1.0000
  H   H9        1.0  0.56142  0.14211  0.91010  1.0000
  H   H10       1.0  0.43856  0.85789  0.08990  1.0000
  H   H11       1.0  0.44033  0.14218  0.79406  1.0000
  H   H12       1.0  0.55966  0.85782  0.20594  1.0000
  H   H13       1.0  0.35822  0.24864  0.65274  1.0000
  H   H14       1.0  0.64178  0.75137  0.34726  1.0000
  H   H15       1.0  0.42552  0.65146  0.72762  1.0000
  H   H16       1.0  0.57450  0.34854  0.27238  1.0000
  H   H17       1.0  0.51889  0.52311  0.86309  1.0000
  H   H18       1.0  0.48113  0.47689  0.13691  1.0000
  H   H19       1.0  0.29180  0.44775  0.55638  1.0000
  H   H20       1.0  0.70820  0.55226  0.44362  1.0000
  H   H21       1.0  0.32161  0.74319  0.60629  1.0000
  H   H22       1.0  0.67840  0.25681  0.39371  1.0000
  H   H23       1.0  0.17339  0.53034  0.44811  1.0000
  H   H24       1.0  0.82663  0.46966  0.55189  1.0000
  H   H25       1.0  0.05603  0.64926  0.31408  1.0000
  H   H26       1.0  0.94399  0.35073  0.68592  1.0000
  H   H27       1.0  0.14297  0.03388  0.36056  1.0000
  H   H28       1.0  0.85702  0.96613  0.63945  1.0000
  H   H29       1.0  0.26872  0.93115  0.49758  1.0000
  H   H30       1.0  0.73127  0.06886  0.50242  1.0000
  C   C1        1.0  0.06978  0.15881  0.16527  1.0000
  C   C2        1.0  0.93022  0.84119  0.83474  1.0000
  C   C3        1.0  0.14359  0.26681  0.11497  1.0000
  C   C4        1.0  0.85640  0.73319  0.88503  1.0000
  C   C5        1.0  0.28301  0.21844  0.04114  1.0000
  C   C6        1.0  0.71698  0.78157  0.95886  1.0000
  C   C7        1.0  0.34890  0.31891  0.99178  1.0000
  C   C8        1.0  0.65109  0.68109  0.00821  1.0000
  C   C9        1.0  0.26557  0.46969  0.01407  1.0000
  C   C10       1.0  0.73442  0.53031  0.98593  1.0000
  C   C11       1.0  0.12600  0.51961  0.08757  1.0000
  C   C12       1.0  0.87398  0.48039  0.91242  1.0000
  C   C13       1.0  0.06861  0.41723  0.13957  1.0000
  C   C14       1.0  0.93139  0.58276  0.86043  1.0000
  C   C15       1.0  0.04433  0.68385  0.10714  1.0000
  C   C16       1.0  0.95566  0.31615  0.89285  1.0000
  C   C17       1.0  0.51493  0.26267  0.91925  1.0000
  C   C18       1.0  0.48506  0.73732  0.08075  1.0000
  C   C19       1.0  0.43612  0.25351  0.77549  1.0000
  C   C20       1.0  0.56389  0.74649  0.22451  1.0000
  C   C21       1.0  0.38908  0.31628  0.69731  1.0000
  C   C22       1.0  0.61092  0.68372  0.30269  1.0000
  C   C23       1.0  0.37869  0.46251  0.67734  1.0000
  C   C24       1.0  0.62131  0.53748  0.32266  1.0000
  C   C25       1.0  0.42696  0.53876  0.73864  1.0000
  C   C26       1.0  0.57305  0.46123  0.26135  1.0000
  C   C27       1.0  0.47678  0.47015  0.81498  1.0000
  C   C28       1.0  0.52324  0.52985  0.18502  1.0000
  C   C29       1.0  0.31866  0.52489  0.59625  1.0000
  C   C30       1.0  0.68134  0.47511  0.40375  1.0000
  C   C31       1.0  0.29322  0.66474  0.56794  1.0000
  C   C32       1.0  0.70679  0.33526  0.43206  1.0000
  C   C33       1.0  0.22797  0.72266  0.48644  1.0000
  C   C34       1.0  0.77204  0.27734  0.51356  1.0000
  C   C35       1.0  0.16919  0.64263  0.43231  1.0000
  C   C36       1.0  0.83083  0.35737  0.56769  1.0000
  C   C37       1.0  0.10305  0.70769  0.35747  1.0000
  C   C38       1.0  0.89696  0.29231  0.64253  1.0000
  C   C39       1.0  0.15223  0.92277  0.38293  1.0000
  C   C40       1.0  0.84777  0.07724  0.61707  1.0000
  C   C41       1.0  0.22109  0.86550  0.45911  1.0000
  C   C42       1.0  0.77891  0.13451  0.54089  1.0000
  N   N1        1.0  0.09178  0.84662  0.33322  1.0000
  N   N2        1.0  0.90823  0.15338  0.66678  1.0000
  N   N3        1.0  0.47711  0.33055  0.83369  1.0000
  N   N4        1.0  0.52289  0.66945  0.16631  1.0000
  Cl  Cl1       1.0  0.68346  0.08120  0.10918  1.0000
  Cl  Cl2       1.0  0.31653  0.91881  0.89083  1.0000
  Cl  Cl3       1.0  0.60172  0.03293  0.35400  1.0000
  Cl  Cl4       1.0  0.39829  0.96706  0.64601  1.0000
  O   O1        1.0  0.11265  0.02952  0.12950  1.0000
  O   O2        1.0  0.88734  0.97047  0.87051  1.0000
  O   O3        1.0  0.96565  0.19525  0.23877  1.0000
  O   O4        1.0  0.03435  0.80474  0.76123  1.0000
  O   O5        1.0  0.95399  0.72827  0.18327  1.0000
  O   O6        1.0  0.04601  0.27173  0.81673  1.0000
  O   O7        1.0  0.07947  0.76386  0.04421  1.0000
  O   O8        1.0  0.92051  0.23614  0.95579  1.0000
