data_image0
_chemical_formula_structural       Ni2H34C42N4Cl2O10
_chemical_formula_sum              "Ni2 H34 C42 N4 Cl2 O10"
_cell_length_a       8.42334
_cell_length_b       10.0604
_cell_length_c       15.5031
_cell_angle_alpha    101.281
_cell_angle_beta     102.875
_cell_angle_gamma    104.255

_space_group_name_H-M_alt    "P 1"
_space_group_IT_number       1

loop_
  _space_group_symop_operation_xyz
  'x, y, z'

loop_
  _atom_site_type_symbol
  _atom_site_label
  _atom_site_symmetry_multiplicity
  _atom_site_fract_x
  _atom_site_fract_y
  _atom_site_fract_z
  _atom_site_occupancy
  Ni  Ni1       1.0  0.52374  0.50843  0.68079  1.0000
  Ni  Ni2       1.0  0.47626  0.49157  0.31921  1.0000
  H   H1        1.0  0.70615  0.74945  0.76860  1.0000
  H   H2        1.0  0.29384  0.25056  0.23143  1.0000
  H   H3        1.0  0.64675  0.69260  0.84743  1.0000
  H   H4        1.0  0.35318  0.30737  0.15258  1.0000
  H   H5        1.0  0.57397  0.07004  0.68779  1.0000
  H   H6        1.0  0.42606  0.93000  0.31222  1.0000
  H   H7        1.0  0.23454  0.67729  0.50106  1.0000
  H   H8        1.0  0.76554  0.32271  0.49896  1.0000
  H   H9        1.0  0.16814  0.08099  0.46863  1.0000
  H   H10       1.0  0.83187  0.91899  0.53136  1.0000
  H   H11       1.0  0.93615  0.85696  0.39056  1.0000
  H   H12       1.0  0.06389  0.14301  0.60945  1.0000
  H   H13       1.0  0.95449  0.69143  0.40612  1.0000
  H   H14       1.0  0.04556  0.30855  0.59389  1.0000
  H   H15       1.0  0.07034  0.55698  0.31605  1.0000
  H   H16       1.0  0.92964  0.44299  0.68393  1.0000
  H   H17       1.0  0.13377  0.49548  0.17019  1.0000
  H   H18       1.0  0.86617  0.50449  0.82978  1.0000
  H   H19       1.0  0.13897  0.91904  0.14382  1.0000
  H   H20       1.0  0.86107  0.08097  0.85620  1.0000
  H   H21       1.0  0.07307  0.96460  0.29247  1.0000
  H   H22       1.0  0.92702  0.03541  0.70756  1.0000
  H   H23       1.0  0.18757  0.76367  0.02196  1.0000
  H   H24       1.0  0.81243  0.23636  0.97805  1.0000
  H   H25       1.0  0.23071  0.47949  0.05320  1.0000
  H   H26       1.0  0.76923  0.52051  0.94678  1.0000
  H   H27       1.0  0.34202  0.35010  0.94587  1.0000
  H   H28       1.0  0.65793  0.64990  0.05412  1.0000
  H   H29       1.0  0.42890  0.31802  0.80122  1.0000
  H   H30       1.0  0.57103  0.68196  0.19876  1.0000
  H   H31       1.0  0.29902  0.66881  0.74555  1.0000
  H   H32       1.0  0.70093  0.33117  0.25443  1.0000
  H   H33       1.0  0.21369  0.72085  0.88818  1.0000
  H   H34       1.0  0.78627  0.27914  0.11179  1.0000
  C   C1        1.0  0.42950  0.24870  0.61652  1.0000
  C   C2        1.0  0.57051  0.75131  0.38348  1.0000
  C   C3        1.0  0.37702  0.09102  0.58098  1.0000
  C   C4        1.0  0.62300  0.90899  0.41902  1.0000
  C   C5        1.0  0.46581  0.01366  0.62761  1.0000
  C   C6        1.0  0.53421  0.98637  0.37240  1.0000
  C   C7        1.0  0.41480  0.86541  0.59891  1.0000
  C   C8        1.0  0.58525  0.13462  0.40110  1.0000
  C   C9        1.0  0.27233  0.79337  0.52281  1.0000
  C   C10       1.0  0.72773  0.20664  0.47721  1.0000
  C   C11       1.0  0.18237  0.86996  0.47568  1.0000
  C   C12       1.0  0.81768  0.13003  0.52433  1.0000
  C   C13       1.0  0.23580  0.01879  0.50430  1.0000
  C   C14       1.0  0.76423  0.98120  0.49571  1.0000
  C   C15       1.0  0.50742  0.78433  0.65292  1.0000
  C   C16       1.0  0.49263  0.21570  0.34710  1.0000
  C   C17       1.0  0.02363  0.79244  0.39652  1.0000
  C   C18       1.0  0.97641  0.20754  0.60349  1.0000
  C   C19       1.0  0.07731  0.63107  0.27309  1.0000
  C   C20       1.0  0.92268  0.36891  0.72690  1.0000
  C   C21       1.0  0.11578  0.59933  0.19116  1.0000
  C   C22       1.0  0.88419  0.40066  0.80883  1.0000
  C   C23       1.0  0.13801  0.70080  0.14050  1.0000
  C   C24       1.0  0.86198  0.29920  0.85949  1.0000
  C   C25       1.0  0.11829  0.83377  0.17766  1.0000
  C   C26       1.0  0.88175  0.16624  0.82235  1.0000
  C   C27       1.0  0.08129  0.86136  0.26015  1.0000
  C   C28       1.0  0.91876  0.13865  0.73987  1.0000
  C   C29       1.0  0.18501  0.67796  0.05591  1.0000
  C   C30       1.0  0.81497  0.32205  0.94408  1.0000
  C   C31       1.0  0.22888  0.56351  0.01805  1.0000
  C   C32       1.0  0.77109  0.43649  0.98193  1.0000
  C   C33       1.0  0.27596  0.54241  0.93336  1.0000
  C   C34       1.0  0.72399  0.45759  0.06663  1.0000
  C   C35       1.0  0.33307  0.42542  0.90444  1.0000
  C   C36       1.0  0.66687  0.57458  0.09553  1.0000
  C   C37       1.0  0.37978  0.40538  0.82365  1.0000
  C   C38       1.0  0.62017  0.59461  0.17633  1.0000
  C   C39       1.0  0.31053  0.60365  0.79365  1.0000
  C   C40       1.0  0.68941  0.39633  0.20632  1.0000
  C   C41       1.0  0.26475  0.63199  0.87403  1.0000
  C   C42       1.0  0.73521  0.36800  0.12595  1.0000
  N   N1        1.0  0.37105  0.49344  0.76823  1.0000
  N   N2        1.0  0.62890  0.50655  0.23175  1.0000
  N   N3        1.0  0.05979  0.75995  0.30652  1.0000
  N   N4        1.0  0.94024  0.24004  0.69349  1.0000
  Cl  Cl1       1.0  0.73791  0.55153  0.61187  1.0000
  Cl  Cl2       1.0  0.26212  0.44849  0.38815  1.0000
  O   O1        1.0  0.55330  0.30941  0.69061  1.0000
  O   O2        1.0  0.44670  0.69060  0.30939  1.0000
  O   O3        1.0  0.35182  0.32342  0.57694  1.0000
  O   O4        1.0  0.64818  0.67659  0.42305  1.0000
  O   O5        1.0  0.65000  0.85140  0.71277  1.0000
  O   O6        1.0  0.35003  0.14864  0.28727  1.0000
  O   O7        1.0  0.42837  0.65193  0.63599  1.0000
  O   O8        1.0  0.57167  0.34810  0.36402  1.0000
  O   O9        1.0  0.71372  0.67418  0.80520  1.0000
  O   O10       1.0  0.28624  0.32581  0.19481  1.0000
