data_image0
_chemical_formula_structural       Ag4H36C56N16O8
_chemical_formula_sum              "Ag4 H36 C56 N16 O8"
_cell_length_a       6.41119
_cell_length_b       10.6789
_cell_length_c       18.6355
_cell_angle_alpha    89.9998
_cell_angle_beta     92.4551
_cell_angle_gamma    90.0004

_space_group_name_H-M_alt    "P 1"
_space_group_IT_number       1

loop_
  _space_group_symop_operation_xyz
  'x, y, z'

loop_
  _atom_site_type_symbol
  _atom_site_label
  _atom_site_symmetry_multiplicity
  _atom_site_fract_x
  _atom_site_fract_y
  _atom_site_fract_z
  _atom_site_occupancy
  Ag  Ag1       1.0  0.27138  0.71577  0.60617  1.0000
  Ag  Ag2       1.0  0.22862  0.21573  0.89383  1.0000
  Ag  Ag3       1.0  0.72861  0.28426  0.39383  1.0000
  Ag  Ag4       1.0  0.77138  0.78423  0.10617  1.0000
  H   H1        1.0  0.84608  0.88731  0.81627  1.0000
  H   H2        1.0  0.65397  0.38732  0.68373  1.0000
  H   H3        1.0  0.15397  0.11268  0.18373  1.0000
  H   H4        1.0  0.34606  0.61271  0.31627  1.0000
  H   H5        1.0  0.15444  0.87382  0.73693  1.0000
  H   H6        1.0  0.34561  0.37379  0.76308  1.0000
  H   H7        1.0  0.84562  0.12620  0.26307  1.0000
  H   H8        1.0  0.65441  0.62619  0.23692  1.0000
  H   H9        1.0  0.08305  0.26829  0.68993  1.0000
  H   H10       1.0  0.41691  0.76827  0.81007  1.0000
  H   H11       1.0  0.91690  0.73173  0.31007  1.0000
  H   H12       1.0  0.58303  0.23172  0.18993  1.0000
  H   H13       1.0  0.78506  0.27710  0.76928  1.0000
  H   H14       1.0  0.71490  0.77711  0.73072  1.0000
  H   H15       1.0  0.21488  0.72288  0.23071  1.0000
  H   H16       1.0  0.28504  0.22292  0.26929  1.0000
  H   H17       1.0  0.71742  0.14938  0.57718  1.0000
  H   H18       1.0  0.78255  0.64934  0.92280  1.0000
  H   H19       1.0  0.28256  0.85065  0.42280  1.0000
  H   H20       1.0  0.21740  0.35063  0.07719  1.0000
  H   H21       1.0  0.41511  0.25117  0.65989  1.0000
  H   H22       1.0  0.08487  0.75113  0.84009  1.0000
  H   H23       1.0  0.58487  0.74886  0.34009  1.0000
  H   H24       1.0  0.91509  0.24885  0.15990  1.0000
  H   H25       1.0  0.58748  0.58078  0.50993  1.0000
  H   H26       1.0  0.91255  0.08073  0.99008  1.0000
  H   H27       1.0  0.41255  0.41925  0.49007  1.0000
  H   H28       1.0  0.08751  0.91924  0.00993  1.0000
  H   H29       1.0  0.92328  0.63037  0.45182  1.0000
  H   H30       1.0  0.57677  0.13032  0.04819  1.0000
  H   H31       1.0  0.07675  0.36966  0.54818  1.0000
  H   H32       1.0  0.42330  0.86964  0.95183  1.0000
  H   H33       1.0  0.91710  0.98478  0.54548  1.0000
  H   H34       1.0  0.58291  0.48473  0.95453  1.0000
  H   H35       1.0  0.08290  0.01525  0.45452  1.0000
  H   H36       1.0  0.41707  0.51521  0.04547  1.0000
  C   C1        1.0  0.79394  0.08139  0.79601  1.0000
  C   C2        1.0  0.70606  0.58140  0.70399  1.0000
  C   C3        1.0  0.20605  0.91860  0.20399  1.0000
  C   C4        1.0  0.29393  0.41863  0.29601  1.0000
  C   C5        1.0  0.90215  0.96895  0.78794  1.0000
  C   C6        1.0  0.59788  0.46895  0.71206  1.0000
  C   C7        1.0  0.09788  0.03105  0.21205  1.0000
  C   C8        1.0  0.40213  0.53106  0.28794  1.0000
  C   C9        1.0  0.07308  0.96171  0.74479  1.0000
  C   C10       1.0  0.42696  0.46170  0.75521  1.0000
  C   C11       1.0  0.92696  0.03830  0.25521  1.0000
  C   C12       1.0  0.57305  0.53831  0.24479  1.0000
  C   C13       1.0  0.13864  0.06935  0.70929  1.0000
  C   C14       1.0  0.36137  0.56933  0.79071  1.0000
  C   C15       1.0  0.86136  0.93066  0.29071  1.0000
  C   C16       1.0  0.63862  0.43066  0.20929  1.0000
  C   C17       1.0  0.03656  0.18395  0.71809  1.0000
  C   C18       1.0  0.46340  0.68394  0.78191  1.0000
  C   C19       1.0  0.96340  0.81605  0.28191  1.0000
  C   C20       1.0  0.53655  0.31606  0.21809  1.0000
  C   C21       1.0  0.86621  0.18899  0.76194  1.0000
  C   C22       1.0  0.63377  0.68899  0.73806  1.0000
  C   C23       1.0  0.13375  0.81100  0.23805  1.0000
  C   C24       1.0  0.36619  0.31102  0.26195  1.0000
  C   C25       1.0  0.59948  0.08295  0.83880  1.0000
  C   C26       1.0  0.90052  0.58298  0.66120  1.0000
  C   C27       1.0  0.40052  0.91702  0.16119  1.0000
  C   C28       1.0  0.09947  0.41705  0.33880  1.0000
  C   C29       1.0  0.54065  0.97197  0.60114  1.0000
  C   C30       1.0  0.95936  0.47193  0.89887  1.0000
  C   C31       1.0  0.45935  0.02806  0.39886  1.0000
  C   C32       1.0  0.04063  0.52804  0.10114  1.0000
  C   C33       1.0  0.59030  0.10186  0.60260  1.0000
  C   C34       1.0  0.90970  0.60182  0.89739  1.0000
  C   C35       1.0  0.40968  0.89816  0.39739  1.0000
  C   C36       1.0  0.09029  0.39815  0.10260  1.0000
  C   C37       1.0  0.43973  0.15535  0.64346  1.0000
  C   C38       1.0  0.06025  0.65530  0.85653  1.0000
  C   C39       1.0  0.56026  0.84467  0.35652  1.0000
  C   C40       1.0  0.93972  0.34466  0.14347  1.0000
  C   C41       1.0  0.64544  0.87229  0.56322  1.0000
  C   C42       1.0  0.85458  0.37225  0.93679  1.0000
  C   C43       1.0  0.35456  0.12774  0.43678  1.0000
  C   C44       1.0  0.14543  0.62772  0.06322  1.0000
  C   C45       1.0  0.65846  0.67293  0.51600  1.0000
  C   C46       1.0  0.84155  0.17289  0.98401  1.0000
  C   C47       1.0  0.34154  0.32709  0.48400  1.0000
  C   C48       1.0  0.15848  0.82707  0.01600  1.0000
  C   C49       1.0  0.84709  0.69984  0.48496  1.0000
  C   C50       1.0  0.65295  0.19979  0.01505  1.0000
  C   C51       1.0  0.15293  0.30019  0.51503  1.0000
  C   C52       1.0  0.34709  0.80016  0.98496  1.0000
  C   C53       1.0  0.84134  0.89487  0.53480  1.0000
  C   C54       1.0  0.65869  0.39482  0.96521  1.0000
  C   C55       1.0  0.15867  0.10516  0.46520  1.0000
  C   C56       1.0  0.34132  0.60513  0.03480  1.0000
  N   N1        1.0  0.31147  0.06069  0.66451  1.0000
  N   N2        1.0  0.18854  0.56066  0.83549  1.0000
  N   N3        1.0  0.68853  0.93933  0.33548  1.0000
  N   N4        1.0  0.81145  0.43932  0.16452  1.0000
  N   N5        1.0  0.37133  0.94841  0.63915  1.0000
  N   N6        1.0  0.12870  0.44838  0.86086  1.0000
  N   N7        1.0  0.62869  0.05162  0.36085  1.0000
  N   N8        1.0  0.87131  0.55160  0.13915  1.0000
  N   N9        1.0  0.55559  0.75794  0.55429  1.0000
  N   N10       1.0  0.94443  0.25789  0.94571  1.0000
  N   N11       1.0  0.44443  0.24210  0.44571  1.0000
  N   N12       1.0  0.05560  0.74207  0.05429  1.0000
  N   N13       1.0  0.94081  0.81172  0.49525  1.0000
  N   N14       1.0  0.55922  0.31168  0.00476  1.0000
  N   N15       1.0  0.05921  0.18831  0.50475  1.0000
  N   N16       1.0  0.44080  0.68827  0.99525  1.0000
  O   O1        1.0  0.54399  0.98565  0.87035  1.0000
  O   O2        1.0  0.95604  0.48568  0.62966  1.0000
  O   O3        1.0  0.45606  0.01432  0.12966  1.0000
  O   O4        1.0  0.04395  0.51436  0.37035  1.0000
  O   O5        1.0  0.50349  0.18965  0.83797  1.0000
  O   O6        1.0  0.99649  0.68968  0.66202  1.0000
  O   O7        1.0  0.49648  0.81031  0.16202  1.0000
  O   O8        1.0  0.00348  0.31036  0.33798  1.0000
