data_image0
_chemical_formula_structural       Zn2H44C56N16O12
_chemical_formula_sum              "Zn2 H44 C56 N16 O12"
_cell_length_a       7.98295
_cell_length_b       13.8207
_cell_length_c       14.295
_cell_angle_alpha    113.223
_cell_angle_beta     90
_cell_angle_gamma    106.786

_space_group_name_H-M_alt    "P 1"
_space_group_IT_number       1

loop_
  _space_group_symop_operation_xyz
  'x, y, z'

loop_
  _atom_site_type_symbol
  _atom_site_label
  _atom_site_symmetry_multiplicity
  _atom_site_fract_x
  _atom_site_fract_y
  _atom_site_fract_z
  _atom_site_occupancy
  Zn  Zn1       1.0  0.44368  1.00000  0.75012  1.0000
  Zn  Zn2       1.0  0.55632  0.00000  0.24988  1.0000
  H   H1        1.0  0.82341  0.96060  0.44511  1.0000
  H   H2        1.0  0.86277  0.03982  0.05545  1.0000
  H   H3        1.0  0.17659  0.03939  0.55489  1.0000
  H   H4        1.0  0.13724  0.96018  0.94455  1.0000
  H   H5        1.0  0.63435  0.04385  0.57489  1.0000
  H   H6        1.0  0.59077  0.95645  0.92553  1.0000
  H   H7        1.0  0.36565  0.95615  0.42511  1.0000
  H   H8        1.0  0.40924  0.04355  0.07447  1.0000
  H   H9        1.0  0.57530  0.79521  0.67727  1.0000
  H   H10       1.0  0.78060  0.20462  0.82265  1.0000
  H   H11       1.0  0.42469  0.20479  0.32273  1.0000
  H   H12       1.0  0.21941  0.79538  0.17735  1.0000
  H   H13       1.0  0.88556  0.62621  0.39430  1.0000
  H   H14       1.0  0.25905  0.37399  0.10606  1.0000
  H   H15       1.0  0.11443  0.37379  0.60570  1.0000
  H   H16       1.0  0.74096  0.62602  0.89394  1.0000
  H   H17       1.0  0.83531  0.43953  0.43259  1.0000
  H   H18       1.0  0.39568  0.56056  0.06757  1.0000
  H   H19       1.0  0.16468  0.56047  0.56741  1.0000
  H   H20       1.0  0.60432  0.43944  0.93243  1.0000
  H   H21       1.0  0.80453  0.34442  0.51755  1.0000
  H   H22       1.0  0.46048  0.65529  0.98224  1.0000
  H   H23       1.0  0.19547  0.65558  0.48245  1.0000
  H   H24       1.0  0.53951  0.34470  0.01776  1.0000
  H   H25       1.0  0.70880  0.21602  0.60121  1.0000
  H   H26       1.0  0.49304  0.78370  0.89860  1.0000
  H   H27       1.0  0.29121  0.78398  0.39879  1.0000
  H   H28       1.0  0.50696  0.21629  0.10140  1.0000
  H   H29       1.0  0.41485  0.41815  0.79075  1.0000
  H   H30       1.0  0.99698  0.58155  0.70912  1.0000
  H   H31       1.0  0.58515  0.58185  0.20925  1.0000
  H   H32       1.0  0.00302  0.41845  0.29088  1.0000
  H   H33       1.0  0.51277  0.55016  0.70774  1.0000
  H   H34       1.0  0.96305  0.44944  0.79201  1.0000
  H   H35       1.0  0.48723  0.44984  0.29226  1.0000
  H   H36       1.0  0.03694  0.55056  0.20798  1.0000
  H   H37       1.0  0.10927  0.93097  0.64077  1.0000
  H   H38       1.0  0.17849  0.06915  0.85926  1.0000
  H   H39       1.0  0.89072  0.06903  0.35923  1.0000
  H   H40       1.0  0.82152  0.93085  0.14075  1.0000
  H   H41       1.0  0.18503  0.83415  0.63653  1.0000
  H   H42       1.0  0.35124  0.16597  0.86366  1.0000
  H   H43       1.0  0.81497  0.16585  0.36347  1.0000
  H   H44       1.0  0.64877  0.83403  0.13634  1.0000
  C   C1        1.0  0.76790  0.92212  0.49631  1.0000
  C   C2        1.0  0.84591  0.07813  0.00408  1.0000
  C   C3        1.0  0.23209  0.07788  0.50369  1.0000
  C   C4        1.0  0.15409  0.92187  0.99592  1.0000
  C   C5        1.0  0.66475  0.96970  0.56792  1.0000
  C   C6        1.0  0.69528  0.03058  0.93245  1.0000
  C   C7        1.0  0.33525  0.03030  0.43208  1.0000
  C   C8        1.0  0.30473  0.96942  0.06755  1.0000
  C   C9        1.0  0.62976  0.83177  0.62458  1.0000
  C   C10       1.0  0.79837  0.16817  0.87546  1.0000
  C   C11       1.0  0.37024  0.16823  0.37542  1.0000
  C   C12       1.0  0.20163  0.83183  0.12454  1.0000
  C   C13       1.0  0.72893  0.78216  0.54944  1.0000
  C   C14       1.0  0.94695  0.21790  0.95074  1.0000
  C   C15       1.0  0.27107  0.21784  0.45056  1.0000
  C   C16       1.0  0.05305  0.78210  0.04926  1.0000
  C   C17       1.0  0.75042  0.67646  0.53545  1.0000
  C   C18       1.0  0.07419  0.32353  0.96464  1.0000
  C   C19       1.0  0.24958  0.32354  0.46455  1.0000
  C   C20       1.0  0.92581  0.67647  0.03536  1.0000
  C   C21       1.0  0.82709  0.60896  0.45663  1.0000
  C   C22       1.0  0.21802  0.39112  0.04359  1.0000
  C   C23       1.0  0.17291  0.39104  0.54337  1.0000
  C   C24       1.0  0.78198  0.60888  0.95641  1.0000
  C   C25       1.0  0.80357  0.51533  0.47446  1.0000
  C   C26       1.0  0.28828  0.48470  0.02565  1.0000
  C   C27       1.0  0.19643  0.48467  0.52553  1.0000
  C   C28       1.0  0.71172  0.51530  0.97435  1.0000
  C   C29       1.0  0.66451  0.45578  0.60812  1.0000
  C   C30       1.0  0.20913  0.54395  0.89170  1.0000
  C   C31       1.0  0.33549  0.54422  0.39188  1.0000
  C   C32       1.0  0.79086  0.45605  0.10829  1.0000
  C   C33       1.0  0.71957  0.36141  0.57755  1.0000
  C   C34       1.0  0.35855  0.63826  0.92222  1.0000
  C   C35       1.0  0.28044  0.63859  0.42245  1.0000
  C   C36       1.0  0.64144  0.36174  0.07778  1.0000
  C   C37       1.0  0.66494  0.28883  0.62480  1.0000
  C   C38       1.0  0.37634  0.71091  0.87505  1.0000
  C   C39       1.0  0.33507  0.71118  0.37520  1.0000
  C   C40       1.0  0.62365  0.28909  0.12495  1.0000
  C   C41       1.0  0.55571  0.30890  0.70240  1.0000
  C   C42       1.0  0.24702  0.69086  0.79750  1.0000
  C   C43       1.0  0.44430  0.69110  0.29760  1.0000
  C   C44       1.0  0.75298  0.30914  0.20251  1.0000
  C   C45       1.0  0.50229  0.40373  0.73188  1.0000
  C   C46       1.0  0.09886  0.59599  0.76798  1.0000
  C   C47       1.0  0.49772  0.59627  0.26812  1.0000
  C   C48       1.0  0.90114  0.40401  0.23202  1.0000
  C   C49       1.0  0.55580  0.47725  0.68580  1.0000
  C   C50       1.0  0.07894  0.52240  0.81400  1.0000
  C   C51       1.0  0.44420  0.52275  0.31420  1.0000
  C   C52       1.0  0.92105  0.47760  0.18599  1.0000
  C   C53       1.0  0.49367  0.23053  0.75253  1.0000
  C   C54       1.0  0.26307  0.76939  0.74754  1.0000
  C   C55       1.0  0.50634  0.76947  0.24747  1.0000
  C   C56       1.0  0.73693  0.23061  0.25246  1.0000
  N   N1        1.0  0.80196  0.82959  0.48654  1.0000
  N   N2        1.0  0.97246  0.17063  0.01379  1.0000
  N   N3        1.0  0.19804  0.17041  0.51346  1.0000
  N   N4        1.0  0.02754  0.82937  0.98621  1.0000
  N   N5        1.0  0.59823  0.92455  0.63337  1.0000
  N   N6        1.0  0.67396  0.07548  0.86679  1.0000
  N   N7        1.0  0.40177  0.07545  0.36662  1.0000
  N   N8        1.0  0.32604  0.92452  0.13321  1.0000
  N   N9        1.0  0.68420  0.62771  0.59822  1.0000
  N   N10       1.0  0.05692  0.37212  0.90171  1.0000
  N   N11       1.0  0.31580  0.37229  0.40178  1.0000
  N   N12       1.0  0.94307  0.62788  0.09830  1.0000
  N   N13       1.0  0.71812  0.52999  0.56039  1.0000
  N   N14       1.0  0.18856  0.46985  0.93953  1.0000
  N   N15       1.0  0.28188  0.47001  0.43961  1.0000
  N   N16       1.0  0.81144  0.53015  0.06047  1.0000
  O   O1        1.0  0.43023  0.26439  0.83694  1.0000
  O   O2        1.0  0.16557  0.73561  0.66323  1.0000
  O   O3        1.0  0.56978  0.73561  0.16306  1.0000
  O   O4        1.0  0.83444  0.26439  0.33677  1.0000
  O   O5        1.0  0.50888  0.13349  0.70670  1.0000
  O   O6        1.0  0.37520  0.86646  0.79341  1.0000
  O   O7        1.0  0.49112  0.86651  0.29330  1.0000
  O   O8        1.0  0.62480  0.13354  0.20660  1.0000
  O   O9        1.0  0.21582  0.90950  0.63043  1.0000
  O   O10       1.0  0.30649  0.09061  0.86977  1.0000
  O   O11       1.0  0.78418  0.09051  0.36957  1.0000
  O   O12       1.0  0.69351  0.90939  0.13023  1.0000
