data_image0
_chemical_formula_structural       Co2P8H32C8N4O24
_chemical_formula_sum              "Co2 P8 H32 C8 N4 O24"
_cell_length_a       8.52083
_cell_length_b       9.33846
_cell_length_c       9.32413
_cell_angle_alpha    96.8241
_cell_angle_beta     90
_cell_angle_gamma    89.9998

_space_group_name_H-M_alt    "P 1"
_space_group_IT_number       1

loop_
  _space_group_symop_operation_xyz
  'x, y, z'

loop_
  _atom_site_type_symbol
  _atom_site_label
  _atom_site_symmetry_multiplicity
  _atom_site_fract_x
  _atom_site_fract_y
  _atom_site_fract_z
  _atom_site_occupancy
  Co  Co1       1.0  0.00000  0.00000  0.50000  1.0000
  Co  Co2       1.0  0.50000  0.50000  0.50000  1.0000
  P   P1        1.0  0.65973  0.46276  0.17050  1.0000
  P   P2        1.0  0.15972  0.03724  0.82950  1.0000
  P   P3        1.0  0.34028  0.53724  0.82950  1.0000
  P   P4        1.0  0.84028  0.96276  0.17050  1.0000
  P   P5        1.0  0.18665  0.28268  0.41246  1.0000
  P   P6        1.0  0.68665  0.21732  0.58754  1.0000
  P   P7        1.0  0.81335  0.71732  0.58754  1.0000
  P   P8        1.0  0.31335  0.78268  0.41246  1.0000
  H   H1        1.0  0.17108  0.33066  0.16168  1.0000
  H   H2        1.0  0.67108  0.16934  0.83832  1.0000
  H   H3        1.0  0.82892  0.66934  0.83832  1.0000
  H   H4        1.0  0.32892  0.83066  0.16168  1.0000
  H   H5        1.0  0.15715  0.49263  0.28544  1.0000
  H   H6        1.0  0.65715  0.00737  0.71456  1.0000
  H   H7        1.0  0.84285  0.50737  0.71456  1.0000
  H   H8        1.0  0.34285  0.99263  0.28544  1.0000
  H   H9        1.0  0.91435  0.25978  0.22586  1.0000
  H   H10       1.0  0.41435  0.24022  0.77414  1.0000
  H   H11       1.0  0.08565  0.74022  0.77414  1.0000
  H   H12       1.0  0.58565  0.75978  0.22586  1.0000
  H   H13       1.0  0.90449  0.39946  0.03488  1.0000
  H   H14       1.0  0.40449  0.10054  0.96512  1.0000
  H   H15       1.0  0.09551  0.60054  0.96512  1.0000
  H   H16       1.0  0.59551  0.89946  0.03488  1.0000
  H   H17       1.0  0.91834  0.56294  0.15756  1.0000
  H   H18       1.0  0.41834  0.93706  0.84244  1.0000
  H   H19       1.0  0.08166  0.43706  0.84244  1.0000
  H   H20       1.0  0.58166  0.06294  0.15756  1.0000
  H   H21       1.0  0.89430  0.40902  0.35058  1.0000
  H   H22       1.0  0.39430  0.09098  0.64942  1.0000
  H   H23       1.0  0.10570  0.59097  0.64942  1.0000
  H   H24       1.0  0.60570  0.90902  0.35058  1.0000
  H   H25       1.0  0.50698  0.36617  0.99265  1.0000
  H   H26       1.0  0.00698  0.13383  0.00735  1.0000
  H   H27       1.0  0.49302  0.63383  0.00735  1.0000
  H   H28       1.0  0.99302  0.86617  0.99265  1.0000
  H   H29       1.0  0.99578  0.29558  0.56744  1.0000
  H   H30       1.0  0.49578  0.20442  0.43256  1.0000
  H   H31       1.0  0.00422  0.70442  0.43256  1.0000
  H   H32       1.0  0.50422  0.79558  0.56744  1.0000
  C   C1        1.0  0.12012  0.37952  0.26412  1.0000
  C   C2        1.0  0.62012  0.12048  0.73588  1.0000
  C   C3        1.0  0.87988  0.62048  0.73588  1.0000
  C   C4        1.0  0.37988  0.87952  0.26412  1.0000
  C   C5        1.0  0.87335  0.45205  0.14235  1.0000
  C   C6        1.0  0.37335  0.04796  0.85765  1.0000
  C   C7        1.0  0.12665  0.54795  0.85765  1.0000
  C   C8        1.0  0.62665  0.95205  0.14235  1.0000
  N   N1        1.0  0.94575  0.36992  0.25309  1.0000
  N   N2        1.0  0.44575  0.13008  0.74691  1.0000
  N   N3        1.0  0.05425  0.63008  0.74691  1.0000
  N   N4        1.0  0.55425  0.86992  0.25309  1.0000
  O   O1        1.0  0.60841  0.60593  0.12177  1.0000
  O   O2        1.0  0.10842  0.89407  0.87822  1.0000
  O   O3        1.0  0.39159  0.39407  0.87823  1.0000
  O   O4        1.0  0.89159  0.10593  0.12178  1.0000
  O   O5        1.0  0.64236  0.44091  0.32735  1.0000
  O   O6        1.0  0.14235  0.05910  0.67265  1.0000
  O   O7        1.0  0.35764  0.55910  0.67265  1.0000
  O   O8        1.0  0.85765  0.94090  0.32735  1.0000
  O   O9        1.0  0.09074  0.35851  0.54752  1.0000
  O   O10       1.0  0.59074  0.14149  0.45247  1.0000
  O   O11       1.0  0.90926  0.64149  0.45247  1.0000
  O   O12       1.0  0.40926  0.85851  0.54753  1.0000
  O   O13       1.0  0.14121  0.12563  0.37862  1.0000
  O   O14       1.0  0.64120  0.37437  0.62138  1.0000
  O   O15       1.0  0.85879  0.87437  0.62138  1.0000
  O   O16       1.0  0.35879  0.62563  0.37862  1.0000
  O   O17       1.0  0.36144  0.31256  0.43175  1.0000
  O   O18       1.0  0.86144  0.18744  0.56825  1.0000
  O   O19       1.0  0.63856  0.68744  0.56825  1.0000
  O   O20       1.0  0.13856  0.81256  0.43175  1.0000
  O   O21       1.0  0.58400  0.33337  0.06830  1.0000
  O   O22       1.0  0.08400  0.16663  0.93170  1.0000
  O   O23       1.0  0.41600  0.66663  0.93170  1.0000
  O   O24       1.0  0.91600  0.83337  0.06830  1.0000
