data_image0
_chemical_formula_structural       Cu2P2H14C4N2Cl2O6
_chemical_formula_sum              "Cu2 P2 H14 C4 N2 Cl2 O6"
_cell_length_a       6.30533
_cell_length_b       7.63763
_cell_length_c       7.7714
_cell_angle_alpha    110.801
_cell_angle_beta     113.913
_cell_angle_gamma    90.0192

_space_group_name_H-M_alt    "P 1"
_space_group_IT_number       1

loop_
  _space_group_symop_operation_xyz
  'x, y, z'

loop_
  _atom_site_type_symbol
  _atom_site_label
  _atom_site_symmetry_multiplicity
  _atom_site_fract_x
  _atom_site_fract_y
  _atom_site_fract_z
  _atom_site_occupancy
  Cu  Cu1       1.0  0.09768  0.91226  0.19548  1.0000
  Cu  Cu2       1.0  0.90231  0.08773  0.80451  1.0000
  P   P1        1.0  0.34061  0.03416  0.68113  1.0000
  P   P2        1.0  0.65936  0.96583  0.31884  1.0000
  H   H1        1.0  0.28700  0.43636  0.57434  1.0000
  H   H2        1.0  0.71300  0.56364  0.42567  1.0000
  H   H3        1.0  0.26098  0.48243  0.80670  1.0000
  H   H4        1.0  0.45445  0.51757  0.19351  1.0000
  H   H5        1.0  0.73902  0.51757  0.19331  1.0000
  H   H6        1.0  0.54555  0.48243  0.80650  1.0000
  H   H7        1.0  0.39962  0.71669  0.51362  1.0000
  H   H8        1.0  0.88533  0.28345  0.48664  1.0000
  H   H9        1.0  0.60038  0.28331  0.48638  1.0000
  H   H10       1.0  0.11467  0.71654  0.51336  1.0000
  H   H11       1.0  0.56973  0.78530  0.87796  1.0000
  H   H12       1.0  0.69262  0.21491  0.12259  1.0000
  H   H13       1.0  0.43028  0.21470  0.12204  1.0000
  H   H14       1.0  0.30739  0.78509  0.87742  1.0000
  C   C1        1.0  0.30246  0.77626  0.60431  1.0000
  C   C2        1.0  0.69754  0.22374  0.39569  1.0000
  C   C3        1.0  0.36974  0.51672  0.73966  1.0000
  C   C4        1.0  0.63026  0.48329  0.26035  1.0000
  N   N1        1.0  0.39290  0.72539  0.78593  1.0000
  N   N2        1.0  0.60710  0.27461  0.21407  1.0000
  Cl  Cl1       1.0  0.92508  0.72450  0.85012  1.0000
  Cl  Cl2       1.0  0.07492  0.27550  0.14987  1.0000
  O   O1        1.0  0.24319  0.07446  0.48693  1.0000
  O   O2        1.0  0.75681  0.92553  0.51308  1.0000
  O   O3        1.0  0.21678  0.11401  0.82096  1.0000
  O   O4        1.0  0.39588  0.88554  0.17943  1.0000
  O   O5        1.0  0.78320  0.88599  0.17903  1.0000
  O   O6        1.0  0.60413  0.11447  0.82057  1.0000
