data_image0
_chemical_formula_structural       MnH26C22N6O8
_chemical_formula_sum              "Mn1 H26 C22 N6 O8"
_cell_length_a       7.23565
_cell_length_b       8.30465
_cell_length_c       11.6096
_cell_angle_alpha    101.438
_cell_angle_beta     90.5078
_cell_angle_gamma    108.375

_space_group_name_H-M_alt    "P 1"
_space_group_IT_number       1

loop_
  _space_group_symop_operation_xyz
  'x, y, z'

loop_
  _atom_site_type_symbol
  _atom_site_label
  _atom_site_symmetry_multiplicity
  _atom_site_fract_x
  _atom_site_fract_y
  _atom_site_fract_z
  _atom_site_occupancy
  Mn  Mn1       1.0  0.49994  0.49998  0.50000  1.0000
  H   H1        1.0  0.82496  0.51235  0.39596  1.0000
  H   H2        1.0  0.17501  0.48769  0.60407  1.0000
  H   H3        1.0  0.91598  0.58102  0.53064  1.0000
  H   H4        1.0  0.08381  0.41922  0.46942  1.0000
  H   H5        1.0  0.29044  0.31894  0.12502  1.0000
  H   H6        1.0  0.70957  0.68103  0.87499  1.0000
  H   H7        1.0  0.02539  0.68278  0.97292  1.0000
  H   H8        1.0  0.97461  0.31719  0.02708  1.0000
  H   H9        1.0  0.40500  0.77853  0.05152  1.0000
  H   H10       1.0  0.59502  0.22146  0.94846  1.0000
  H   H11       1.0  0.51183  0.99591  0.12381  1.0000
  H   H12       1.0  0.48818  0.00411  0.87618  1.0000
  H   H13       1.0  0.16768  0.01973  0.14500  1.0000
  H   H14       1.0  0.83232  0.98025  0.85499  1.0000
  H   H15       1.0  0.24040  0.98594  0.99855  1.0000
  H   H16       1.0  0.75959  0.01404  0.00145  1.0000
  H   H17       1.0  0.19730  0.12468  0.57968  1.0000
  H   H18       1.0  0.80270  0.87530  0.42031  1.0000
  H   H19       1.0  0.55875  0.18879  0.29806  1.0000
  H   H20       1.0  0.44129  0.81120  0.70194  1.0000
  H   H21       1.0  0.23336  0.70964  0.23174  1.0000
  H   H22       1.0  0.76668  0.29036  0.76825  1.0000
  H   H23       1.0  0.49182  0.78944  0.25499  1.0000
  H   H24       1.0  0.50820  0.21056  0.74499  1.0000
  H   H25       1.0  0.13074  0.80315  0.42705  1.0000
  H   H26       1.0  0.86926  0.19683  0.57292  1.0000
  C   C1        1.0  0.56402  0.51337  0.11732  1.0000
  C   C2        1.0  0.43600  0.48662  0.88269  1.0000
  C   C3        1.0  0.38053  0.39924  0.06949  1.0000
  C   C4        1.0  0.61949  0.60074  0.93051  1.0000
  C   C5        1.0  0.62855  0.51464  0.24121  1.0000
  C   C6        1.0  0.37144  0.48535  0.75881  1.0000
  C   C7        1.0  0.86353  0.76484  0.10167  1.0000
  C   C8        1.0  0.13646  0.23515  0.89832  1.0000
  C   C9        1.0  0.68436  0.61698  0.04743  1.0000
  C   C10       1.0  0.31565  0.38299  0.95258  1.0000
  C   C11       1.0  0.37998  0.88238  0.11797  1.0000
  C   C12       1.0  0.62001  0.11762  0.88203  1.0000
  C   C13       1.0  0.20493  0.92658  0.07569  1.0000
  C   C14       1.0  0.79507  0.07344  0.92431  1.0000
  C   C15       1.0  0.26157  0.09166  0.49791  1.0000
  C   C16       1.0  0.73845  0.90833  0.50208  1.0000
  C   C17       1.0  0.44918  0.13046  0.35376  1.0000
  C   C18       1.0  0.55086  0.86953  0.64624  1.0000
  C   C19       1.0  0.36267  0.82419  0.23518  1.0000
  C   C20       1.0  0.63735  0.17579  0.76482  1.0000
  C   C21       1.0  0.22657  0.93184  0.42419  1.0000
  C   C22       1.0  0.77345  0.06814  0.57578  1.0000
  N   N1        1.0  0.40029  0.21499  0.45243  1.0000
  N   N2        1.0  0.59974  0.78500  0.54758  1.0000
  N   N3        1.0  0.02875  0.77688  0.04454  1.0000
  N   N4        1.0  0.97125  0.22310  0.95546  1.0000
  N   N5        1.0  0.34592  0.95873  0.33311  1.0000
  N   N6        1.0  0.65410  0.04125  0.66688  1.0000
  O   O1        1.0  0.49698  0.50320  0.31400  1.0000
  O   O2        1.0  0.50299  0.49677  0.68600  1.0000
  O   O3        1.0  0.80352  0.51949  0.26148  1.0000
  O   O4        1.0  0.19649  0.48055  0.73856  1.0000
  O   O5        1.0  0.80701  0.49405  0.48037  1.0000
  O   O6        1.0  0.19300  0.50596  0.51966  1.0000
  O   O7        1.0  0.85171  0.87443  0.18879  1.0000
  O   O8        1.0  0.14829  0.12558  0.81120  1.0000
