data_image0
_chemical_formula_structural       Sr4H56C48N32
_chemical_formula_sum              "Sr4 H56 C48 N32"
_cell_length_a       10.6202
_cell_length_b       10.5848
_cell_length_c       13.894
_cell_angle_alpha    95.2686
_cell_angle_beta     90
_cell_angle_gamma    90

_space_group_name_H-M_alt    "P 1"
_space_group_IT_number       1

loop_
  _space_group_symop_operation_xyz
  'x, y, z'

loop_
  _atom_site_type_symbol
  _atom_site_label
  _atom_site_symmetry_multiplicity
  _atom_site_fract_x
  _atom_site_fract_y
  _atom_site_fract_z
  _atom_site_occupancy
  Sr  Sr1       1.0  0.28907  0.50531  0.25227  1.0000
  Sr  Sr2       1.0  0.78907  0.99469  0.24773  1.0000
  Sr  Sr3       1.0  0.71093  0.49469  0.74773  1.0000
  Sr  Sr4       1.0  0.21093  0.00531  0.75227  1.0000
  H   H1        1.0  0.40993  0.68375  0.48140  1.0000
  H   H2        1.0  0.90993  0.81625  0.01860  1.0000
  H   H3        1.0  0.59007  0.31625  0.51860  1.0000
  H   H4        1.0  0.09007  0.18375  0.98140  1.0000
  H   H5        1.0  0.33481  0.24618  0.37033  1.0000
  H   H6        1.0  0.83481  0.25382  0.12967  1.0000
  H   H7        1.0  0.66519  0.75382  0.62967  1.0000
  H   H8        1.0  0.16519  0.74618  0.87033  1.0000
  H   H9        1.0  0.75942  0.71948  0.36959  1.0000
  H   H10       1.0  0.25942  0.78051  0.13041  1.0000
  H   H11       1.0  0.24058  0.28051  0.63040  1.0000
  H   H12       1.0  0.74058  0.21948  0.86959  1.0000
  H   H13       1.0  0.44842  0.84901  0.21931  1.0000
  H   H14       1.0  0.94841  0.65099  0.28069  1.0000
  H   H15       1.0  0.55158  0.15099  0.78070  1.0000
  H   H16       1.0  0.05158  0.34901  0.71930  1.0000
  H   H17       1.0  0.09961  0.43442  0.46965  1.0000
  H   H18       1.0  0.59961  0.06558  0.03035  1.0000
  H   H19       1.0  0.90039  0.56558  0.53035  1.0000
  H   H20       1.0  0.40039  0.93442  0.96965  1.0000
  H   H21       1.0  0.15008  0.58483  0.01749  1.0000
  H   H22       1.0  0.65008  0.91517  0.48251  1.0000
  H   H23       1.0  0.84992  0.41517  0.98251  1.0000
  H   H24       1.0  0.34992  0.08483  0.51749  1.0000
  H   H25       1.0  0.52012  0.06195  0.37053  1.0000
  H   H26       1.0  0.02011  0.43805  0.12947  1.0000
  H   H27       1.0  0.47989  0.93805  0.62947  1.0000
  H   H28       1.0  0.97988  0.56195  0.87053  1.0000
  H   H29       1.0  0.21475  0.48303  0.83130  1.0000
  H   H30       1.0  0.71475  0.01697  0.66870  1.0000
  H   H31       1.0  0.78525  0.51697  0.16870  1.0000
  H   H32       1.0  0.28525  0.98303  0.33130  1.0000
  H   H33       1.0  0.30029  0.71326  0.64502  1.0000
  H   H34       1.0  0.80029  0.78674  0.85498  1.0000
  H   H35       1.0  0.69971  0.28674  0.35498  1.0000
  H   H36       1.0  0.19971  0.21326  0.14502  1.0000
  H   H37       1.0  0.57728  0.53226  0.35259  1.0000
  H   H38       1.0  0.07728  0.96773  0.14741  1.0000
  H   H39       1.0  0.42272  0.46773  0.64741  1.0000
  H   H40       1.0  0.92272  0.03227  0.85259  1.0000
  H   H41       1.0  0.60750  0.31157  0.16151  1.0000
  H   H42       1.0  0.10750  0.18843  0.33848  1.0000
  H   H43       1.0  0.39250  0.68843  0.83849  1.0000
  H   H44       1.0  0.89250  0.81157  0.66151  1.0000
  H   H45       1.0  0.46116  0.34106  0.03461  1.0000
  H   H46       1.0  0.96117  0.15894  0.46539  1.0000
  H   H47       1.0  0.53884  0.65894  0.96539  1.0000
  H   H48       1.0  0.03884  0.84106  0.53460  1.0000
  H   H49       1.0  0.10799  0.56937  0.65230  1.0000
  H   H50       1.0  0.60799  0.93063  0.84770  1.0000
  H   H51       1.0  0.89201  0.43063  0.34770  1.0000
  H   H52       1.0  0.39201  0.06937  0.15230  1.0000
  H   H53       1.0  0.40550  0.34380  0.85604  1.0000
  H   H54       1.0  0.90550  0.15620  0.64396  1.0000
  H   H55       1.0  0.59450  0.65620  0.14396  1.0000
  H   H56       1.0  0.09450  0.84380  0.35604  1.0000
  C   C1        1.0  0.57660  0.62614  0.32691  1.0000
  C   C2        1.0  0.07660  0.87385  0.17309  1.0000
  C   C3        1.0  0.42340  0.37386  0.67309  1.0000
  C   C4        1.0  0.92340  0.12614  0.82691  1.0000
  C   C5        1.0  0.51085  0.14060  0.32599  1.0000
  C   C6        1.0  0.01085  0.35940  0.17401  1.0000
  C   C7        1.0  0.48915  0.85940  0.67401  1.0000
  C   C8        1.0  0.98914  0.64060  0.82599  1.0000
  C   C9        1.0  0.22452  0.51911  0.99358  1.0000
  C   C10       1.0  0.72452  0.98090  0.50642  1.0000
  C   C11       1.0  0.77548  0.48090  0.00642  1.0000
  C   C12       1.0  0.27548  0.01910  0.49358  1.0000
  C   C13       1.0  0.50921  0.78753  0.25743  1.0000
  C   C14       1.0  0.00921  0.71247  0.24257  1.0000
  C   C15       1.0  0.49079  0.21247  0.74257  1.0000
  C   C16       1.0  0.99079  0.28753  0.75743  1.0000
  C   C17       1.0  0.16836  0.57092  0.58941  1.0000
  C   C18       1.0  0.66836  0.92908  0.91059  1.0000
  C   C19       1.0  0.83164  0.42908  0.41059  1.0000
  C   C20       1.0  0.33164  0.07092  0.08942  1.0000
  C   C21       1.0  0.16607  0.50572  0.49892  1.0000
  C   C22       1.0  0.66607  0.99428  0.00108  1.0000
  C   C23       1.0  0.83393  0.49428  0.50108  1.0000
  C   C24       1.0  0.33393  0.00572  0.99892  1.0000
  C   C25       1.0  0.55691  0.26742  0.21779  1.0000
  C   C26       1.0  0.05691  0.23258  0.28221  1.0000
  C   C27       1.0  0.44309  0.73258  0.78222  1.0000
  C   C28       1.0  0.94309  0.76742  0.71778  1.0000
  C   C29       1.0  0.32664  0.63250  0.50093  1.0000
  C   C30       1.0  0.82664  0.86750  0.99907  1.0000
  C   C31       1.0  0.67336  0.36750  0.49907  1.0000
  C   C32       1.0  0.17336  0.13250  0.00093  1.0000
  C   C33       1.0  0.25517  0.47039  0.90125  1.0000
  C   C34       1.0  0.75517  0.02961  0.59875  1.0000
  C   C35       1.0  0.74483  0.52961  0.09875  1.0000
  C   C36       1.0  0.24483  0.97039  0.40125  1.0000
  C   C37       1.0  0.38486  0.39504  0.00663  1.0000
  C   C38       1.0  0.88486  0.10496  0.49337  1.0000
  C   C39       1.0  0.61514  0.60496  0.99337  1.0000
  C   C40       1.0  0.11514  0.89504  0.50663  1.0000
  C   C41       1.0  0.66792  0.71973  0.33472  1.0000
  C   C42       1.0  0.16792  0.78026  0.16528  1.0000
  C   C43       1.0  0.33208  0.28027  0.66528  1.0000
  C   C44       1.0  0.83208  0.21973  0.83472  1.0000
  C   C45       1.0  0.41814  0.23227  0.32523  1.0000
  C   C46       1.0  0.91814  0.26773  0.17476  1.0000
  C   C47       1.0  0.58186  0.76773  0.67477  1.0000
  C   C48       1.0  0.08186  0.73227  0.82523  1.0000
  N   N1        1.0  0.60073  0.16322  0.25717  1.0000
  N   N2        1.0  0.10073  0.33678  0.24283  1.0000
  N   N3        1.0  0.39926  0.83678  0.74283  1.0000
  N   N4        1.0  0.89927  0.66322  0.75717  1.0000
  N   N5        1.0  0.26506  0.54493  0.44390  1.0000
  N   N6        1.0  0.76506  0.95507  0.05609  1.0000
  N   N7        1.0  0.73494  0.45507  0.55610  1.0000
  N   N8        1.0  0.23494  0.04493  0.94391  1.0000
  N   N9        1.0  0.27102  0.65034  0.58897  1.0000
  N   N10       1.0  0.77102  0.84966  0.91103  1.0000
  N   N11       1.0  0.72898  0.34966  0.41103  1.0000
  N   N12       1.0  0.22898  0.15034  0.08898  1.0000
  N   N13       1.0  0.47477  0.66923  0.27709  1.0000
  N   N14       1.0  0.97477  0.83077  0.22291  1.0000
  N   N15       1.0  0.52523  0.33077  0.72291  1.0000
  N   N16       1.0  0.02523  0.16923  0.77709  1.0000
  N   N17       1.0  0.62520  0.82285  0.29000  1.0000
  N   N18       1.0  0.12520  0.67715  0.21000  1.0000
  N   N19       1.0  0.37480  0.17715  0.71000  1.0000
  N   N20       1.0  0.87480  0.32285  0.79000  1.0000
  N   N21       1.0  0.44743  0.31330  0.25600  1.0000
  N   N22       1.0  0.94743  0.18670  0.24400  1.0000
  N   N23       1.0  0.55257  0.68670  0.74401  1.0000
  N   N24       1.0  0.05257  0.81330  0.75599  1.0000
  N   N25       1.0  0.30624  0.47141  0.05919  1.0000
  N   N26       1.0  0.80624  0.02859  0.44081  1.0000
  N   N27       1.0  0.69376  0.52859  0.94081  1.0000
  N   N28       1.0  0.19376  0.97141  0.55919  1.0000
  N   N29       1.0  0.35683  0.39200  0.91133  1.0000
  N   N30       1.0  0.85683  0.10800  0.58867  1.0000
  N   N31       1.0  0.64317  0.60800  0.08867  1.0000
  N   N32       1.0  0.14317  0.89200  0.41133  1.0000
