data_image0
_chemical_formula_structural       Ca2H28C24N16
_chemical_formula_sum              "Ca2 H28 C24 N16"
_cell_length_a       8.6549
_cell_length_b       9.02477
_cell_length_c       10.3001
_cell_angle_alpha    114.961
_cell_angle_beta     90
_cell_angle_gamma    90

_space_group_name_H-M_alt    "P 1"
_space_group_IT_number       1

loop_
  _space_group_symop_operation_xyz
  'x, y, z'

loop_
  _atom_site_type_symbol
  _atom_site_label
  _atom_site_symmetry_multiplicity
  _atom_site_fract_x
  _atom_site_fract_y
  _atom_site_fract_z
  _atom_site_occupancy
  Ca  Ca1       1.0  0.50000  0.50000  0.50000  1.0000
  Ca  Ca2       1.0  0.00000  0.50000  0.00000  1.0000
  H   H1        1.0  0.79140  0.92006  0.41597  1.0000
  H   H2        1.0  0.29140  0.07994  0.08403  1.0000
  H   H3        1.0  0.20860  0.07993  0.58403  1.0000
  H   H4        1.0  0.70860  0.92007  0.91597  1.0000
  H   H5        1.0  0.13877  0.48362  0.32665  1.0000
  H   H6        1.0  0.63877  0.51638  0.17335  1.0000
  H   H7        1.0  0.86123  0.51638  0.67335  1.0000
  H   H8        1.0  0.36123  0.48362  0.82665  1.0000
  H   H9        1.0  0.54509  0.25135  0.11526  1.0000
  H   H10       1.0  0.04510  0.74865  0.38474  1.0000
  H   H11       1.0  0.45490  0.74865  0.88474  1.0000
  H   H12       1.0  0.95491  0.25135  0.61526  1.0000
  H   H13       1.0  0.32433  0.23470  0.91372  1.0000
  H   H14       1.0  0.82433  0.76530  0.58628  1.0000
  H   H15       1.0  0.67567  0.76530  0.08629  1.0000
  H   H16       1.0  0.17567  0.23470  0.41372  1.0000
  H   H17       1.0  0.57167  0.12987  0.53090  1.0000
  H   H18       1.0  0.07167  0.87013  0.96910  1.0000
  H   H19       1.0  0.42833  0.87013  0.46910  1.0000
  H   H20       1.0  0.92833  0.12987  0.03090  1.0000
  H   H21       1.0  0.83466  0.29527  0.27454  1.0000
  H   H22       1.0  0.33466  0.70473  0.22546  1.0000
  H   H23       1.0  0.16534  0.70473  0.72546  1.0000
  H   H24       1.0  0.66534  0.29527  0.77454  1.0000
  H   H25       1.0  0.95661  0.99723  0.25167  1.0000
  H   H26       1.0  0.45661  0.00277  0.24834  1.0000
  H   H27       1.0  0.04339  0.00277  0.74834  1.0000
  H   H28       1.0  0.54339  0.99723  0.75166  1.0000
  C   C1        1.0  0.21990  0.41739  0.24106  1.0000
  C   C2        1.0  0.71990  0.58261  0.25894  1.0000
  C   C3        1.0  0.78010  0.58261  0.75894  1.0000
  C   C4        1.0  0.28010  0.41739  0.74106  1.0000
  C   C5        1.0  0.42759  0.29799  0.13069  1.0000
  C   C6        1.0  0.92759  0.70201  0.36931  1.0000
  C   C7        1.0  0.57241  0.70201  0.86931  1.0000
  C   C8        1.0  0.07241  0.29799  0.63069  1.0000
  C   C9        1.0  0.31679  0.28787  0.02974  1.0000
  C   C10       1.0  0.81679  0.71214  0.47026  1.0000
  C   C11       1.0  0.68320  0.71213  0.97026  1.0000
  C   C12       1.0  0.18321  0.28787  0.52974  1.0000
  C   C13       1.0  0.65865  0.13588  0.45753  1.0000
  C   C14       1.0  0.15865  0.86413  0.04247  1.0000
  C   C15       1.0  0.34135  0.86413  0.54246  1.0000
  C   C16       1.0  0.84135  0.13588  0.95753  1.0000
  C   C17       1.0  0.79731  0.21583  0.32347  1.0000
  C   C18       1.0  0.29732  0.78417  0.17653  1.0000
  C   C19       1.0  0.20268  0.78417  0.67653  1.0000
  C   C20       1.0  0.70269  0.21583  0.82347  1.0000
  C   C21       1.0  0.85935  0.06982  0.31111  1.0000
  C   C22       1.0  0.35935  0.93018  0.18889  1.0000
  C   C23       1.0  0.14065  0.93018  0.68889  1.0000
  C   C24       1.0  0.64065  0.06982  0.81111  1.0000
  N   N1        1.0  0.36531  0.38103  0.26589  1.0000
  N   N2        1.0  0.86531  0.61897  0.23411  1.0000
  N   N3        1.0  0.63468  0.61897  0.73411  1.0000
  N   N4        1.0  0.13469  0.38103  0.76589  1.0000
  N   N5        1.0  0.18367  0.36484  0.10075  1.0000
  N   N6        1.0  0.68367  0.63516  0.39925  1.0000
  N   N7        1.0  0.81633  0.63516  0.89925  1.0000
  N   N8        1.0  0.31633  0.36484  0.60075  1.0000
  N   N9        1.0  0.67157  0.25572  0.41482  1.0000
  N   N10       1.0  0.17157  0.74428  0.08518  1.0000
  N   N11       1.0  0.32843  0.74428  0.58518  1.0000
  N   N12       1.0  0.82843  0.25572  0.91482  1.0000
  N   N13       1.0  0.76958  0.02125  0.39656  1.0000
  N   N14       1.0  0.26958  0.97875  0.10344  1.0000
  N   N15       1.0  0.23042  0.97875  0.60344  1.0000
  N   N16       1.0  0.73042  0.02125  0.89656  1.0000
