data_image0
_chemical_formula_structural       Zn2P2H30C34N4O12
_chemical_formula_sum              "Zn2 P2 H30 C34 N4 O12"
_cell_length_a       6.8294
_cell_length_b       9.89822
_cell_length_c       12.2885
_cell_angle_alpha    92.1786
_cell_angle_beta     89.9997
_cell_angle_gamma    90.0005

_space_group_name_H-M_alt    "P 1"
_space_group_IT_number       1

loop_
  _space_group_symop_operation_xyz
  'x, y, z'

loop_
  _atom_site_type_symbol
  _atom_site_label
  _atom_site_symmetry_multiplicity
  _atom_site_fract_x
  _atom_site_fract_y
  _atom_site_fract_z
  _atom_site_occupancy
  Zn  Zn1       1.0  0.86343  0.67525  0.24666  1.0000
  Zn  Zn2       1.0  0.36343  0.32475  0.75334  1.0000
  P   P1        1.0  0.69783  0.63016  0.50060  1.0000
  P   P2        1.0  0.19784  0.36983  0.49940  1.0000
  H   H1        1.0  0.38333  0.58657  0.47334  1.0000
  H   H2        1.0  0.88333  0.41342  0.52666  1.0000
  H   H3        1.0  0.27212  0.71113  0.26432  1.0000
  H   H4        1.0  0.77212  0.28887  0.73568  1.0000
  H   H5        1.0  0.18457  0.58441  0.32962  1.0000
  H   H6        1.0  0.68457  0.41559  0.67038  1.0000
  H   H7        1.0  0.81980  0.37549  0.31276  1.0000
  H   H8        1.0  0.31982  0.62450  0.68723  1.0000
  H   H9        1.0  0.84866  0.14498  0.21886  1.0000
  H   H10       1.0  0.34867  0.85502  0.78114  1.0000
  H   H11       1.0  0.89070  0.13358  0.01434  1.0000
  H   H12       1.0  0.39070  0.86642  0.98566  1.0000
  H   H13       1.0  0.90124  0.34389  0.91442  1.0000
  H   H14       1.0  0.40124  0.65612  0.08558  1.0000
  H   H15       1.0  0.85205  0.52707  0.84033  1.0000
  H   H16       1.0  0.35205  0.47293  0.15967  1.0000
  H   H17       1.0  0.86540  0.75608  0.76501  1.0000
  H   H18       1.0  0.36540  0.24392  0.23499  1.0000
  H   H19       1.0  0.87834  0.95954  0.89288  1.0000
  H   H20       1.0  0.37834  0.04046  0.10712  1.0000
  H   H21       1.0  0.87987  0.92119  0.09620  1.0000
  H   H22       1.0  0.37987  0.07881  0.90380  1.0000
  H   H23       1.0  0.53488  0.87432  0.61203  1.0000
  H   H24       1.0  0.03488  0.12567  0.38797  1.0000
  H   H25       1.0  0.69333  0.07400  0.70226  1.0000
  H   H26       1.0  0.19334  0.92599  0.29774  1.0000
  H   H27       1.0  0.25643  0.92585  0.59619  1.0000
  H   H28       1.0  0.75643  0.07414  0.40382  1.0000
  H   H29       1.0  0.09895  0.72295  0.50907  1.0000
  H   H30       1.0  0.59895  0.27705  0.49094  1.0000
  C   C1        1.0  0.83589  0.36290  0.22470  1.0000
  C   C2        1.0  0.33590  0.63710  0.77529  1.0000
  C   C3        1.0  0.85332  0.23615  0.17193  1.0000
  C   C4        1.0  0.35333  0.76385  0.82807  1.0000
  C   C5        1.0  0.87516  0.23004  0.05910  1.0000
  C   C6        1.0  0.37517  0.76996  0.94090  1.0000
  C   C7        1.0  0.87952  0.34892  0.00218  1.0000
  C   C8        1.0  0.37952  0.65108  0.99781  1.0000
  C   C9        1.0  0.86084  0.47219  0.06077  1.0000
  C   C10       1.0  0.36084  0.52782  0.93923  1.0000
  C   C11       1.0  0.86621  0.60421  0.00805  1.0000
  C   C12       1.0  0.36621  0.39580  0.99195  1.0000
  C   C13       1.0  0.86274  0.61621  0.89483  1.0000
  C   C14       1.0  0.36274  0.38380  0.10517  1.0000
  C   C15       1.0  0.86800  0.74466  0.85274  1.0000
  C   C16       1.0  0.36800  0.25535  0.14727  1.0000
  C   C17       1.0  0.87458  0.85794  0.92399  1.0000
  C   C18       1.0  0.37459  0.14207  0.07601  1.0000
  C   C19       1.0  0.87643  0.83786  0.03546  1.0000
  C   C20       1.0  0.37643  0.16215  0.96454  1.0000
  C   C21       1.0  0.80596  0.78367  0.55717  1.0000
  C   C22       1.0  0.30596  0.21633  0.44282  1.0000
  C   C23       1.0  0.69338  0.88456  0.61041  1.0000
  C   C24       1.0  0.19338  0.11543  0.38959  1.0000
  C   C25       1.0  0.78287  0.99675  0.66098  1.0000
  C   C26       1.0  0.28287  0.00325  0.33902  1.0000
  C   C27       1.0  0.98709  0.01038  0.65852  1.0000
  C   C28       1.0  0.48709  0.98962  0.34148  1.0000
  C   C29       1.0  0.09886  0.91177  0.60176  1.0000
  C   C30       1.0  0.59885  0.08824  0.39824  1.0000
  C   C31       1.0  0.01001  0.79909  0.55214  1.0000
  C   C32       1.0  0.51001  0.20091  0.44786  1.0000
  C   C33       1.0  0.08594  0.12828  0.71524  1.0000
  C   C34       1.0  0.58594  0.87172  0.28476  1.0000
  N   N1        1.0  0.83910  0.47744  0.16996  1.0000
  N   N2        1.0  0.33910  0.52256  0.83004  1.0000
  N   N3        1.0  0.87294  0.71427  0.07615  1.0000
  N   N4        1.0  0.37293  0.28573  0.92385  1.0000
  O   O1        1.0  0.75063  0.51517  0.57581  1.0000
  O   O2        1.0  0.25064  0.48483  0.42419  1.0000
  O   O3        1.0  0.47273  0.66454  0.50524  1.0000
  O   O4        1.0  0.97273  0.33545  0.49477  1.0000
  O   O5        1.0  0.77124  0.59869  0.38591  1.0000
  O   O6        1.0  0.27125  0.40130  0.61409  1.0000
  O   O7        1.0  0.98466  0.21917  0.76418  1.0000
  O   O8        1.0  0.48466  0.78083  0.23582  1.0000
  O   O9        1.0  0.27446  0.13112  0.71224  1.0000
  O   O10       1.0  0.77446  0.86887  0.28776  1.0000
  O   O11       1.0  0.15692  0.64913  0.27053  1.0000
  O   O12       1.0  0.65692  0.35086  0.72947  1.0000
