data_image0
_chemical_formula_structural       Zn4H8C12N12O8
_chemical_formula_sum              "Zn4 H8 C12 N12 O8"
_cell_length_a       8.99557
_cell_length_b       9.48507
_cell_length_c       9.86834
_cell_angle_alpha    90
_cell_angle_beta     90.0002
_cell_angle_gamma    117.044

_space_group_name_H-M_alt    "P 1"
_space_group_IT_number       1

loop_
  _space_group_symop_operation_xyz
  'x, y, z'

loop_
  _atom_site_type_symbol
  _atom_site_label
  _atom_site_symmetry_multiplicity
  _atom_site_fract_x
  _atom_site_fract_y
  _atom_site_fract_z
  _atom_site_occupancy
  Zn  Zn1       1.0  0.17385  0.93795  0.94278  1.0000
  Zn  Zn2       1.0  0.82615  0.56205  0.44278  1.0000
  Zn  Zn3       1.0  0.82615  0.06205  0.05722  1.0000
  Zn  Zn4       1.0  0.17385  0.43795  0.55722  1.0000
  H   H1        1.0  0.89741  0.80034  0.69087  1.0000
  H   H2        1.0  0.10259  0.69966  0.19087  1.0000
  H   H3        1.0  0.10259  0.19966  0.30914  1.0000
  H   H4        1.0  0.89741  0.30035  0.80914  1.0000
  H   H5        1.0  0.26751  0.67121  0.81086  1.0000
  H   H6        1.0  0.73249  0.82879  0.31087  1.0000
  H   H7        1.0  0.73250  0.32879  0.18914  1.0000
  H   H8        1.0  0.26750  0.17121  0.68914  1.0000
  C   C1        1.0  0.47318  0.91592  0.03024  1.0000
  C   C2        1.0  0.52682  0.58408  0.53024  1.0000
  C   C3        1.0  0.52682  0.08408  0.96975  1.0000
  C   C4        1.0  0.47318  0.41592  0.46975  1.0000
  C   C5        1.0  0.97900  0.74452  0.69692  1.0000
  C   C6        1.0  0.02100  0.75548  0.19692  1.0000
  C   C7        1.0  0.02100  0.25548  0.30308  1.0000
  C   C8        1.0  0.97900  0.24453  0.80308  1.0000
  C   C9        1.0  0.16618  0.67789  0.75653  1.0000
  C   C10       1.0  0.83382  0.82211  0.25653  1.0000
  C   C11       1.0  0.83382  0.32211  0.24347  1.0000
  C   C12       1.0  0.16618  0.17789  0.74347  1.0000
  N   N1        1.0  0.09965  0.77564  0.79057  1.0000
  N   N2        1.0  0.90035  0.72436  0.29057  1.0000
  N   N3        1.0  0.90035  0.22436  0.20943  1.0000
  N   N4        1.0  0.09965  0.27564  0.70944  1.0000
  N   N5        1.0  0.97092  0.63357  0.61001  1.0000
  N   N6        1.0  0.02908  0.86642  0.11001  1.0000
  N   N7        1.0  0.02908  0.36642  0.38999  1.0000
  N   N8        1.0  0.97092  0.13358  0.88999  1.0000
  N   N9        1.0  0.09184  0.59118  0.64805  1.0000
  N   N10       1.0  0.90816  0.90882  0.14805  1.0000
  N   N11       1.0  0.90817  0.40882  0.35195  1.0000
  N   N12       1.0  0.09183  0.09118  0.85195  1.0000
  O   O1        1.0  0.31948  0.82155  0.03117  1.0000
  O   O2        1.0  0.68052  0.67845  0.53116  1.0000
  O   O3        1.0  0.68052  0.17845  0.96883  1.0000
  O   O4        1.0  0.31947  0.32154  0.46884  1.0000
  O   O5        1.0  0.58889  0.88580  0.07393  1.0000
  O   O6        1.0  0.41110  0.61420  0.57393  1.0000
  O   O7        1.0  0.41111  0.11420  0.92607  1.0000
  O   O8        1.0  0.58889  0.38580  0.42607  1.0000
