data_image0
_chemical_formula_structural       Ho4H8C4O16
_chemical_formula_sum              "Ho4 H8 C4 O16"
_cell_length_a       6.15693
_cell_length_b       6.97156
_cell_length_c       7.55941
_cell_angle_alpha    90
_cell_angle_beta     100.011
_cell_angle_gamma    90

_space_group_name_H-M_alt    "P 1"
_space_group_IT_number       1

loop_
  _space_group_symop_operation_xyz
  'x, y, z'

loop_
  _atom_site_type_symbol
  _atom_site_label
  _atom_site_symmetry_multiplicity
  _atom_site_fract_x
  _atom_site_fract_y
  _atom_site_fract_z
  _atom_site_occupancy
  Ho  Ho1       1.0  0.76806  0.11481  0.10763  1.0000
  Ho  Ho2       1.0  0.73194  0.61481  0.89237  1.0000
  Ho  Ho3       1.0  0.23194  0.88519  0.89237  1.0000
  Ho  Ho4       1.0  0.26806  0.38519  0.10763  1.0000
  H   H1        1.0  0.96239  0.22884  0.80627  1.0000
  H   H2        1.0  0.53761  0.72884  0.19373  1.0000
  H   H3        1.0  0.03761  0.77116  0.19373  1.0000
  H   H4        1.0  0.46239  0.27116  0.80627  1.0000
  H   H5        1.0  0.88872  0.47656  0.25489  1.0000
  H   H6        1.0  0.61128  0.97656  0.74511  1.0000
  H   H7        1.0  0.11128  0.52344  0.74511  1.0000
  H   H8        1.0  0.38872  0.02344  0.25489  1.0000
  C   C1        1.0  0.09859  0.06768  0.49141  1.0000
  C   C2        1.0  0.40141  0.56768  0.50858  1.0000
  C   C3        1.0  0.90141  0.93232  0.50859  1.0000
  C   C4        1.0  0.59859  0.43232  0.49141  1.0000
  O   O1        1.0  0.08877  0.15330  0.34220  1.0000
  O   O2        1.0  0.41123  0.65330  0.65780  1.0000
  O   O3        1.0  0.91123  0.84670  0.65780  1.0000
  O   O4        1.0  0.58877  0.34670  0.34220  1.0000
  O   O5        1.0  0.03092  0.16745  0.91801  1.0000
  O   O6        1.0  0.46908  0.66745  0.08199  1.0000
  O   O7        1.0  0.96908  0.83255  0.08199  1.0000
  O   O8        1.0  0.53092  0.33255  0.91801  1.0000
  O   O9        1.0  0.25196  0.08050  0.62569  1.0000
  O   O10       1.0  0.24803  0.58050  0.37431  1.0000
  O   O11       1.0  0.74803  0.91950  0.37431  1.0000
  O   O12       1.0  0.75196  0.41950  0.62569  1.0000
  O   O13       1.0  0.90153  0.43365  0.13481  1.0000
  O   O14       1.0  0.59847  0.93365  0.86519  1.0000
  O   O15       1.0  0.09847  0.56635  0.86519  1.0000
  O   O16       1.0  0.40153  0.06635  0.13481  1.0000
