data_image0
_chemical_formula_structural       Zn4H20C32N4O16
_chemical_formula_sum              "Zn4 H20 C32 N4 O16"
_cell_length_a       7.29581
_cell_length_b       7.29622
_cell_length_c       18.1095
_cell_angle_alpha    94.3138
_cell_angle_beta     98.0574
_cell_angle_gamma    117.703

_space_group_name_H-M_alt    "P 1"
_space_group_IT_number       1

loop_
  _space_group_symop_operation_xyz
  'x, y, z'

loop_
  _atom_site_type_symbol
  _atom_site_label
  _atom_site_symmetry_multiplicity
  _atom_site_fract_x
  _atom_site_fract_y
  _atom_site_fract_z
  _atom_site_occupancy
  Zn  Zn1       1.0  0.16097  0.30213  0.68687  1.0000
  Zn  Zn2       1.0  0.61502  0.97392  0.81315  1.0000
  Zn  Zn3       1.0  0.83903  0.69787  0.31313  1.0000
  Zn  Zn4       1.0  0.38498  0.02608  0.18685  1.0000
  H   H1        1.0  0.12714  0.58819  0.32034  1.0000
  H   H2        1.0  0.26721  0.30635  0.17968  1.0000
  H   H3        1.0  0.87287  0.41182  0.67966  1.0000
  H   H4        1.0  0.73278  0.69364  0.82032  1.0000
  H   H5        1.0  0.24007  0.84454  0.33175  1.0000
  H   H6        1.0  0.51223  0.40834  0.16824  1.0000
  H   H7        1.0  0.75994  0.15547  0.66825  1.0000
  H   H8        1.0  0.48777  0.59166  0.83176  1.0000
  H   H9        1.0  0.36240  0.47753  0.55290  1.0000
  H   H10       1.0  0.92455  0.30973  0.94703  1.0000
  H   H11       1.0  0.63761  0.52247  0.44710  1.0000
  H   H12       1.0  0.07545  0.69028  0.05297  1.0000
  H   H13       1.0  0.24219  0.45226  0.41544  1.0000
  H   H14       1.0  0.03661  0.32713  0.08451  1.0000
  H   H15       1.0  0.75782  0.54775  0.58456  1.0000
  H   H16       1.0  0.96338  0.67286  0.91549  1.0000
  H   H17       1.0  0.14552  0.98589  0.46022  1.0000
  H   H18       1.0  0.52493  0.18470  0.03982  1.0000
  H   H19       1.0  0.85448  0.01411  0.53978  1.0000
  H   H20       1.0  0.47505  0.81529  0.96018  1.0000
  C   C1        1.0  0.24938  0.88229  0.55831  1.0000
  C   C2        1.0  0.32352  0.19060  0.94171  1.0000
  C   C3        1.0  0.75063  0.11772  0.44169  1.0000
  C   C4        1.0  0.67648  0.80940  0.05829  1.0000
  C   C5        1.0  0.31689  0.74257  0.58464  1.0000
  C   C6        1.0  0.15761  0.23189  0.91536  1.0000
  C   C7        1.0  0.68311  0.25743  0.41536  1.0000
  C   C8        1.0  0.84239  0.76811  0.08464  1.0000
  C   C9        1.0  0.31383  0.58842  0.53278  1.0000
  C   C10       1.0  0.05535  0.28098  0.96717  1.0000
  C   C11       1.0  0.68618  0.41158  0.46722  1.0000
  C   C12       1.0  0.94465  0.71902  0.03283  1.0000
  C   C13       1.0  0.24938  0.57586  0.45556  1.0000
  C   C14       1.0  0.11998  0.29393  0.04440  1.0000
  C   C15       1.0  0.75063  0.42415  0.54444  1.0000
  C   C16       1.0  0.88001  0.70607  0.95560  1.0000
  C   C17       1.0  0.19380  0.72216  0.42979  1.0000
  C   C18       1.0  0.29184  0.26382  0.07020  1.0000
  C   C19       1.0  0.80621  0.27784  0.57021  1.0000
  C   C20       1.0  0.70815  0.73618  0.92980  1.0000
  C   C21       1.0  0.19450  0.87583  0.48096  1.0000
  C   C22       1.0  0.39427  0.21308  0.01907  1.0000
  C   C23       1.0  0.80550  0.12417  0.51904  1.0000
  C   C24       1.0  0.60572  0.78691  0.98093  1.0000
  C   C25       1.0  0.20278  0.01484  0.61181  1.0000
  C   C26       1.0  0.40259  0.09048  0.88821  1.0000
  C   C27       1.0  0.79723  0.98516  0.38819  1.0000
  C   C28       1.0  0.59740  0.90951  0.11179  1.0000
  C   C29       1.0  0.40099  0.76766  0.66659  1.0000
  C   C30       1.0  0.10085  0.23409  0.83340  1.0000
  C   C31       1.0  0.59901  0.23234  0.33342  1.0000
  C   C32       1.0  0.89915  0.76591  0.16660  1.0000
  N   N1        1.0  0.12908  0.71435  0.35009  1.0000
  N   N2        1.0  0.36380  0.27888  0.14991  1.0000
  N   N3        1.0  0.87092  0.28566  0.64991  1.0000
  N   N4        1.0  0.63620  0.72112  0.85009  1.0000
  O   O1        1.0  0.36934  0.61256  0.70017  1.0000
  O   O2        1.0  0.91216  0.16890  0.79983  1.0000
  O   O3        1.0  0.63066  0.38744  0.29983  1.0000
  O   O4        1.0  0.08784  0.83110  0.20016  1.0000
  O   O5        1.0  0.51519  0.95662  0.70233  1.0000
  O   O6        1.0  0.25414  0.31262  0.79768  1.0000
  O   O7        1.0  0.48481  0.04338  0.29767  1.0000
  O   O8        1.0  0.74585  0.68738  0.20232  1.0000
  O   O9        1.0  0.05929  0.92583  0.64850  1.0000
  O   O10       1.0  0.27698  0.91046  0.85143  1.0000
  O   O11       1.0  0.94073  0.07418  0.35150  1.0000
  O   O12       1.0  0.72301  0.08954  0.14856  1.0000
  O   O13       1.0  0.30195  0.21560  0.61477  1.0000
  O   O14       1.0  0.60048  0.18671  0.88534  1.0000
  O   O15       1.0  0.69805  0.78441  0.38523  1.0000
  O   O16       1.0  0.39951  0.81328  0.11466  1.0000
