data_image0
_chemical_formula_structural       Cu4H32C16N32Cl8
_chemical_formula_sum              "Cu4 H32 C16 N32 Cl8"
_cell_length_a       8.65812
_cell_length_b       9.68474
_cell_length_c       13.0286
_cell_angle_alpha    90.0038
_cell_angle_beta     89.9955
_cell_angle_gamma    111.688

_space_group_name_H-M_alt    "P 1"
_space_group_IT_number       1

loop_
  _space_group_symop_operation_xyz
  'x, y, z'

loop_
  _atom_site_type_symbol
  _atom_site_label
  _atom_site_symmetry_multiplicity
  _atom_site_fract_x
  _atom_site_fract_y
  _atom_site_fract_z
  _atom_site_occupancy
  Cu  Cu1       1.0  0.61422  0.13300  0.38884  1.0000
  Cu  Cu2       1.0  0.88579  0.36701  0.88884  1.0000
  Cu  Cu3       1.0  0.38574  0.86701  0.61115  1.0000
  Cu  Cu4       1.0  0.11423  0.63298  0.11115  1.0000
  H   H1        1.0  0.84116  0.28523  0.59316  1.0000
  H   H2        1.0  0.65880  0.21480  0.09315  1.0000
  H   H3        1.0  0.15882  0.71477  0.40682  1.0000
  H   H4        1.0  0.34115  0.78519  0.90683  1.0000
  H   H5        1.0  0.71969  0.72323  0.42843  1.0000
  H   H6        1.0  0.78033  0.77680  0.92843  1.0000
  H   H7        1.0  0.28031  0.27681  0.57156  1.0000
  H   H8        1.0  0.21968  0.22322  0.07156  1.0000
  H   H9        1.0  0.90388  0.77934  0.50522  1.0000
  H   H10       1.0  0.59613  0.72072  0.00522  1.0000
  H   H11       1.0  0.09613  0.22068  0.49478  1.0000
  H   H12       1.0  0.40390  0.27931  0.99477  1.0000
  H   H13       1.0  0.70291  0.72887  0.56567  1.0000
  H   H14       1.0  0.79707  0.77116  0.06566  1.0000
  H   H15       1.0  0.29707  0.27115  0.43433  1.0000
  H   H16       1.0  0.20295  0.22886  0.93433  1.0000
  H   H17       1.0  0.79546  0.44071  0.24619  1.0000
  H   H18       1.0  0.70450  0.05920  0.74616  1.0000
  H   H19       1.0  0.20450  0.55920  0.75377  1.0000
  H   H20       1.0  0.29547  0.94076  0.25381  1.0000
  H   H21       1.0  0.15748  0.12052  0.28081  1.0000
  H   H22       1.0  0.34258  0.37950  0.78087  1.0000
  H   H23       1.0  0.84250  0.87943  0.71919  1.0000
  H   H24       1.0  0.65748  0.62053  0.21916  1.0000
  H   H25       1.0  0.95871  0.04963  0.34639  1.0000
  H   H26       1.0  0.54136  0.45039  0.84641  1.0000
  H   H27       1.0  0.04129  0.95036  0.65362  1.0000
  H   H28       1.0  0.45867  0.54960  0.15364  1.0000
  H   H29       1.0  0.97183  0.01262  0.21276  1.0000
  H   H30       1.0  0.52823  0.48738  0.71279  1.0000
  H   H31       1.0  0.02813  0.98735  0.78726  1.0000
  H   H32       1.0  0.47187  0.51265  0.28727  1.0000
  C   C1        1.0  0.79780  0.36234  0.55335  1.0000
  C   C2        1.0  0.70217  0.13770  0.05334  1.0000
  C   C3        1.0  0.20219  0.63768  0.44663  1.0000
  C   C4        1.0  0.29779  0.86231  0.94663  1.0000
  C   C5        1.0  0.77238  0.70656  0.50137  1.0000
  C   C6        1.0  0.72763  0.79348  0.00138  1.0000
  C   C7        1.0  0.22762  0.29346  0.49862  1.0000
  C   C8        1.0  0.27237  0.20652  0.99863  1.0000
  C   C9        1.0  0.88221  0.38482  0.23921  1.0000
  C   C10       1.0  0.61777  0.11515  0.73919  1.0000
  C   C11       1.0  0.11774  0.61516  0.76078  1.0000
  C   C12       1.0  0.38221  0.88483  0.26080  1.0000
  C   C13       1.0  0.02334  0.09383  0.27436  1.0000
  C   C14       1.0  0.47673  0.40617  0.77439  1.0000
  C   C15       1.0  0.97666  0.90614  0.72565  1.0000
  C   C16       1.0  0.52333  0.59383  0.22565  1.0000
  N   N1        1.0  0.84162  0.50541  0.57730  1.0000
  N   N2        1.0  0.65835  0.99462  0.07730  1.0000
  N   N3        1.0  0.15836  0.49460  0.42268  1.0000
  N   N4        1.0  0.34160  0.00536  0.92268  1.0000
  N   N5        1.0  0.76129  0.55312  0.50663  1.0000
  N   N6        1.0  0.73873  0.94690  0.00664  1.0000
  N   N7        1.0  0.23870  0.44689  0.49335  1.0000
  N   N8        1.0  0.26127  0.05308  0.99336  1.0000
  N   N9        1.0  0.67106  0.44934  0.44235  1.0000
  N   N10       1.0  0.82895  0.05069  0.94236  1.0000
  N   N11       1.0  0.32892  0.55068  0.55763  1.0000
  N   N12       1.0  0.17104  0.94933  0.05766  1.0000
  N   N13       1.0  0.69350  0.32630  0.47146  1.0000
  N   N14       1.0  0.80649  0.17372  0.97146  1.0000
  N   N15       1.0  0.30648  0.67372  0.52852  1.0000
  N   N16       1.0  0.19350  0.82627  0.02854  1.0000
  N   N17       1.0  0.85929  0.25254  0.27916  1.0000
  N   N18       1.0  0.64075  0.24744  0.77917  1.0000
  N   N19       1.0  0.14072  0.74745  0.72082  1.0000
  N   N20       1.0  0.35926  0.75253  0.22085  1.0000
  N   N21       1.0  0.99665  0.23044  0.25128  1.0000
  N   N22       1.0  0.50340  0.26957  0.75131  1.0000
  N   N23       1.0  0.00337  0.76957  0.74872  1.0000
  N   N24       1.0  0.49662  0.73043  0.24872  1.0000
  N   N25       1.0  0.10070  0.34015  0.19625  1.0000
  N   N26       1.0  0.39934  0.15986  0.69627  1.0000
  N   N27       1.0  0.89934  0.65984  0.80376  1.0000
  N   N28       1.0  0.60067  0.84017  0.30374  1.0000
  N   N29       1.0  0.02822  0.43898  0.18832  1.0000
  N   N30       1.0  0.47177  0.06102  0.68832  1.0000
  N   N31       1.0  0.97177  0.56102  0.81167  1.0000
  N   N32       1.0  0.52822  0.93900  0.31166  1.0000
  Cl  Cl1       1.0  0.47051  0.22612  0.27581  1.0000
  Cl  Cl2       1.0  0.02946  0.27392  0.77583  1.0000
  Cl  Cl3       1.0  0.52942  0.77387  0.72420  1.0000
  Cl  Cl4       1.0  0.97054  0.72613  0.22425  1.0000
  Cl  Cl5       1.0  0.74402  0.03289  0.50375  1.0000
  Cl  Cl6       1.0  0.75604  0.46712  0.00378  1.0000
  Cl  Cl7       1.0  0.25600  0.96713  0.49622  1.0000
  Cl  Cl8       1.0  0.24403  0.53285  0.99620  1.0000
