data_image0
_chemical_formula_structural       Cu8H48C48N24
_chemical_formula_sum              "Cu8 H48 C48 N24"
_cell_length_a       9.51543
_cell_length_b       9.50904
_cell_length_c       14.407
_cell_angle_alpha    90
_cell_angle_beta     90
_cell_angle_gamma    90

_space_group_name_H-M_alt    "P 1"
_space_group_IT_number       1

loop_
  _space_group_symop_operation_xyz
  'x, y, z'

loop_
  _atom_site_type_symbol
  _atom_site_label
  _atom_site_symmetry_multiplicity
  _atom_site_fract_x
  _atom_site_fract_y
  _atom_site_fract_z
  _atom_site_occupancy
  Cu  Cu1       1.0  0.43646  0.18098  0.82749  1.0000
  Cu  Cu2       1.0  0.06353  0.81902  0.32749  1.0000
  Cu  Cu3       1.0  0.56353  0.68098  0.67251  1.0000
  Cu  Cu4       1.0  0.93646  0.31902  0.17251  1.0000
  Cu  Cu5       1.0  0.43106  0.81294  0.07736  1.0000
  Cu  Cu6       1.0  0.06894  0.18706  0.57736  1.0000
  Cu  Cu7       1.0  0.56895  0.31294  0.42264  1.0000
  Cu  Cu8       1.0  0.93106  0.68706  0.92263  1.0000
  H   H1        1.0  0.12749  0.33025  0.01249  1.0000
  H   H2        1.0  0.37252  0.66975  0.51248  1.0000
  H   H3        1.0  0.87252  0.83025  0.48751  1.0000
  H   H4        1.0  0.62749  0.16976  0.98751  1.0000
  H   H5        1.0  0.25664  0.19359  0.00404  1.0000
  H   H6        1.0  0.24337  0.80640  0.50404  1.0000
  H   H7        1.0  0.74337  0.69360  0.49596  1.0000
  H   H8        1.0  0.75663  0.30641  0.99595  1.0000
  H   H9        1.0  0.17905  0.25876  0.90223  1.0000
  H   H10       1.0  0.32095  0.74124  0.40222  1.0000
  H   H11       1.0  0.82096  0.75875  0.59777  1.0000
  H   H12       1.0  0.67905  0.24125  0.09777  1.0000
  H   H13       1.0  0.23465  0.54882  0.05493  1.0000
  H   H14       1.0  0.26535  0.45118  0.55493  1.0000
  H   H15       1.0  0.76534  0.04882  0.44507  1.0000
  H   H16       1.0  0.73465  0.95119  0.94507  1.0000
  H   H17       1.0  0.63090  0.65611  0.95522  1.0000
  H   H18       1.0  0.86909  0.34389  0.45522  1.0000
  H   H19       1.0  0.36910  0.15610  0.54478  1.0000
  H   H20       1.0  0.13090  0.84390  0.04478  1.0000
  H   H21       1.0  0.63613  0.43790  0.86169  1.0000
  H   H22       1.0  0.86388  0.56210  0.36169  1.0000
  H   H23       1.0  0.36388  0.93789  0.63831  1.0000
  H   H24       1.0  0.13612  0.06211  0.13831  1.0000
  H   H25       1.0  0.91542  0.87213  0.75406  1.0000
  H   H26       1.0  0.58458  0.12788  0.25406  1.0000
  H   H27       1.0  0.08458  0.37213  0.74594  1.0000
  H   H28       1.0  0.41542  0.62787  0.24594  1.0000
  H   H29       1.0  0.04738  0.00385  0.76764  1.0000
  H   H30       1.0  0.45262  0.99616  0.26765  1.0000
  H   H31       1.0  0.95263  0.50385  0.73236  1.0000
  H   H32       1.0  0.54738  0.49615  0.23236  1.0000
  H   H33       1.0  0.00789  0.94352  0.65539  1.0000
  H   H34       1.0  0.49211  0.05649  0.15539  1.0000
  H   H35       1.0  0.99211  0.44353  0.84461  1.0000
  H   H36       1.0  0.50789  0.55647  0.34461  1.0000
  H   H37       1.0  0.70028  0.98389  0.80415  1.0000
  H   H38       1.0  0.79972  0.01611  0.30415  1.0000
  H   H39       1.0  0.29972  0.48389  0.69585  1.0000
  H   H40       1.0  0.20028  0.51611  0.19585  1.0000
  H   H41       1.0  0.59323  0.38093  0.70530  1.0000
  H   H42       1.0  0.90677  0.61908  0.20530  1.0000
  H   H43       1.0  0.40678  0.88092  0.79470  1.0000
  H   H44       1.0  0.09322  0.11908  0.29470  1.0000
  H   H45       1.0  0.81079  0.38599  0.61127  1.0000
  H   H46       1.0  0.68921  0.61401  0.11127  1.0000
  H   H47       1.0  0.18922  0.88599  0.88873  1.0000
  H   H48       1.0  0.31078  0.11401  0.38874  1.0000
  C   C1        1.0  0.43847  0.95142  0.98447  1.0000
  C   C2        1.0  0.06152  0.04858  0.48447  1.0000
  C   C3        1.0  0.56153  0.45142  0.51553  1.0000
  C   C4        1.0  0.93847  0.54858  0.01553  1.0000
  C   C5        1.0  0.29774  0.18774  0.73474  1.0000
  C   C6        1.0  0.20227  0.81225  0.23475  1.0000
  C   C7        1.0  0.70226  0.68774  0.76526  1.0000
  C   C8        1.0  0.79773  0.31226  0.26525  1.0000
  C   C9        1.0  0.33030  0.39533  0.96410  1.0000
  C   C10       1.0  0.16970  0.60467  0.46409  1.0000
  C   C11       1.0  0.66970  0.89532  0.53590  1.0000
  C   C12       1.0  0.83030  0.10468  0.03590  1.0000
  C   C13       1.0  0.21549  0.28984  0.97167  1.0000
  C   C14       1.0  0.28451  0.71016  0.47167  1.0000
  C   C15       1.0  0.78451  0.78983  0.52833  1.0000
  C   C16       1.0  0.71549  0.21017  0.02832  1.0000
  C   C17       1.0  0.32694  0.52161  0.01400  1.0000
  C   C18       1.0  0.17306  0.47838  0.51400  1.0000
  C   C19       1.0  0.67305  0.02161  0.48600  1.0000
  C   C20       1.0  0.82694  0.97839  0.98600  1.0000
  C   C21       1.0  0.54387  0.58216  0.95875  1.0000
  C   C22       1.0  0.95613  0.41784  0.45875  1.0000
  C   C23       1.0  0.45612  0.08215  0.54125  1.0000
  C   C24       1.0  0.04387  0.91784  0.04125  1.0000
  C   C25       1.0  0.54658  0.45968  0.90641  1.0000
  C   C26       1.0  0.95343  0.54032  0.40641  1.0000
  C   C27       1.0  0.45343  0.95967  0.59359  1.0000
  C   C28       1.0  0.04657  0.04033  0.09359  1.0000
  C   C29       1.0  0.85439  0.08065  0.71428  1.0000
  C   C30       1.0  0.64561  0.91935  0.21429  1.0000
  C   C31       1.0  0.14562  0.58066  0.78572  1.0000
  C   C32       1.0  0.35439  0.41934  0.28572  1.0000
  C   C33       1.0  0.96084  0.96692  0.72330  1.0000
  C   C34       1.0  0.53916  0.03308  0.22330  1.0000
  C   C35       1.0  0.03917  0.46692  0.77670  1.0000
  C   C36       1.0  0.46084  0.53308  0.27670  1.0000
  C   C37       1.0  0.72764  0.07660  0.76362  1.0000
  C   C38       1.0  0.77235  0.92340  0.26362  1.0000
  C   C39       1.0  0.27236  0.57660  0.73638  1.0000
  C   C40       1.0  0.22764  0.42340  0.23638  1.0000
  C   C41       1.0  0.66710  0.29380  0.70866  1.0000
  C   C42       1.0  0.83290  0.70620  0.20866  1.0000
  C   C43       1.0  0.33291  0.79380  0.79134  1.0000
  C   C44       1.0  0.16709  0.20620  0.29134  1.0000
  C   C45       1.0  0.78947  0.29663  0.65628  1.0000
  C   C46       1.0  0.71053  0.70338  0.15628  1.0000
  C   C47       1.0  0.21054  0.79663  0.84372  1.0000
  C   C48       1.0  0.28946  0.20337  0.34372  1.0000
  N   N1        1.0  0.44678  0.03419  0.92357  1.0000
  N   N2        1.0  0.05322  0.96581  0.42356  1.0000
  N   N3        1.0  0.55322  0.53418  0.57644  1.0000
  N   N4        1.0  0.94678  0.46581  0.07643  1.0000
  N   N5        1.0  0.21506  0.19624  0.67384  1.0000
  N   N6        1.0  0.28495  0.80375  0.17384  1.0000
  N   N7        1.0  0.78495  0.69625  0.82616  1.0000
  N   N8        1.0  0.71505  0.30376  0.32616  1.0000
  N   N9        1.0  0.44158  0.36505  0.90848  1.0000
  N   N10       1.0  0.05842  0.63495  0.40848  1.0000
  N   N11       1.0  0.55842  0.86504  0.59152  1.0000
  N   N12       1.0  0.94158  0.13496  0.09152  1.0000
  N   N13       1.0  0.88441  0.19191  0.65859  1.0000
  N   N14       1.0  0.61559  0.80810  0.15859  1.0000
  N   N15       1.0  0.11560  0.69191  0.84141  1.0000
  N   N16       1.0  0.38440  0.30809  0.34141  1.0000
  N   N17       1.0  0.43348  0.61476  0.01320  1.0000
  N   N18       1.0  0.06651  0.38524  0.51320  1.0000
  N   N19       1.0  0.56651  0.11475  0.48680  1.0000
  N   N20       1.0  0.93349  0.88525  0.98680  1.0000
  N   N21       1.0  0.63446  0.18308  0.76287  1.0000
  N   N22       1.0  0.86554  0.81692  0.26287  1.0000
  N   N23       1.0  0.36555  0.68308  0.73713  1.0000
  N   N24       1.0  0.13445  0.31692  0.23714  1.0000
