data_image0
_chemical_formula_structural       Cu2H16C8Br4N4O8
_chemical_formula_sum              "Cu2 H16 C8 Br4 N4 O8"
_cell_length_a       5.59469
_cell_length_b       9.0666
_cell_length_c       10.9821
_cell_angle_alpha    114.467
_cell_angle_beta     89.9912
_cell_angle_gamma    107.957

_space_group_name_H-M_alt    "P 1"
_space_group_IT_number       1

loop_
  _space_group_symop_operation_xyz
  'x, y, z'

loop_
  _atom_site_type_symbol
  _atom_site_label
  _atom_site_symmetry_multiplicity
  _atom_site_fract_x
  _atom_site_fract_y
  _atom_site_fract_z
  _atom_site_occupancy
  Cu  Cu1       1.0  0.50000  0.50000  0.00000  1.0000
  Cu  Cu2       1.0  0.00001  0.50001  0.50001  1.0000
  H   H1        1.0  0.28857  0.46003  0.77192  1.0000
  H   H2        1.0  0.82876  0.54010  0.72821  1.0000
  H   H3        1.0  0.71143  0.53997  0.22809  1.0000
  H   H4        1.0  0.17127  0.45992  0.27181  1.0000
  H   H5        1.0  0.19064  0.59600  0.89237  1.0000
  H   H6        1.0  0.59477  0.40432  0.60784  1.0000
  H   H7        1.0  0.80932  0.40399  0.10764  1.0000
  H   H8        1.0  0.40528  0.59570  0.39216  1.0000
  H   H9        1.0  0.27708  0.89593  0.09151  1.0000
  H   H10       1.0  0.38188  0.10419  0.40898  1.0000
  H   H11       1.0  0.72287  0.10404  0.90849  1.0000
  H   H12       1.0  0.61812  0.89583  0.59102  1.0000
  H   H13       1.0  0.65546  0.78549  0.81742  1.0000
  H   H14       1.0  0.86903  0.21444  0.68222  1.0000
  H   H15       1.0  0.34446  0.21447  0.18258  1.0000
  H   H16       1.0  0.13099  0.78560  0.31780  1.0000
  C   C1        1.0  0.15523  0.94504  0.05227  1.0000
  C   C2        1.0  0.21068  0.05497  0.44802  1.0000
  C   C3        1.0  0.84473  0.05494  0.94772  1.0000
  C   C4        1.0  0.78932  0.94504  0.55197  1.0000
  C   C5        1.0  0.80954  0.88236  0.89758  1.0000
  C   C6        1.0  0.92662  0.11759  0.60215  1.0000
  C   C7        1.0  0.19045  0.11762  0.10243  1.0000
  C   C8        1.0  0.07342  0.88242  0.39783  1.0000
  Br  Br1       1.0  0.45786  0.21991  0.82639  1.0000
  Br  Br2       1.0  0.23893  0.77966  0.67369  1.0000
  Br  Br3       1.0  0.54219  0.78010  0.17361  1.0000
  Br  Br4       1.0  0.76109  0.22035  0.32630  1.0000
  N   N1        1.0  0.96486  0.82660  0.94978  1.0000
  N   N2        1.0  0.13816  0.17343  0.55028  1.0000
  N   N3        1.0  0.03508  0.17339  0.05026  1.0000
  N   N4        1.0  0.86190  0.82660  0.44971  1.0000
  O   O1        1.0  0.33217  0.54836  0.86820  1.0000
  O   O2        1.0  0.78382  0.45175  0.63190  1.0000
  O   O3        1.0  0.66782  0.45162  0.13180  1.0000
  O   O4        1.0  0.21618  0.54825  0.36809  1.0000
  O   O5        1.0  0.93030  0.66161  0.90236  1.0000
  O   O6        1.0  0.26843  0.33841  0.59766  1.0000
  O   O7        1.0  0.06968  0.33836  0.09763  1.0000
  O   O8        1.0  0.73159  0.66161  0.40233  1.0000
