data_image0
_chemical_formula_structural       Cu2H16C8N4Cl4O8
_chemical_formula_sum              "Cu2 H16 C8 N4 Cl4 O8"
_cell_length_a       5.50935
_cell_length_b       8.97909
_cell_length_c       10.5501
_cell_angle_alpha    114.303
_cell_angle_beta     89.9998
_cell_angle_gamma    107.861

_space_group_name_H-M_alt    "P 1"
_space_group_IT_number       1

loop_
  _space_group_symop_operation_xyz
  'x, y, z'

loop_
  _atom_site_type_symbol
  _atom_site_label
  _atom_site_symmetry_multiplicity
  _atom_site_fract_x
  _atom_site_fract_y
  _atom_site_fract_z
  _atom_site_occupancy
  Cu  Cu1       1.0  0.50000  0.50000  0.00000  1.0000
  Cu  Cu2       1.0  0.00000  0.50000  0.50000  1.0000
  H   H1        1.0  0.28368  0.46003  0.76422  1.0000
  H   H2        1.0  0.82362  0.53996  0.73575  1.0000
  H   H3        1.0  0.71633  0.53997  0.23578  1.0000
  H   H4        1.0  0.17638  0.46003  0.26425  1.0000
  H   H5        1.0  0.18548  0.59618  0.89233  1.0000
  H   H6        1.0  0.58937  0.40375  0.60762  1.0000
  H   H7        1.0  0.81452  0.40382  0.10768  1.0000
  H   H8        1.0  0.41063  0.59624  0.39238  1.0000
  H   H9        1.0  0.29185  0.89975  0.09461  1.0000
  H   H10       1.0  0.39198  0.10006  0.40526  1.0000
  H   H11       1.0  0.70814  0.10025  0.90539  1.0000
  H   H12       1.0  0.60803  0.89994  0.59474  1.0000
  H   H13       1.0  0.63697  0.77865  0.82153  1.0000
  H   H14       1.0  0.85853  0.22149  0.67848  1.0000
  H   H15       1.0  0.36303  0.22135  0.17847  1.0000
  H   H16       1.0  0.14147  0.77852  0.32152  1.0000
  C   C1        1.0  0.16424  0.94776  0.05433  1.0000
  C   C2        1.0  0.21638  0.05211  0.44557  1.0000
  C   C3        1.0  0.83572  0.05222  0.94567  1.0000
  C   C4        1.0  0.78362  0.94789  0.55443  1.0000
  C   C5        1.0  0.79907  0.87883  0.89958  1.0000
  C   C6        1.0  0.92041  0.12127  0.60043  1.0000
  C   C7        1.0  0.20092  0.12117  0.10042  1.0000
  C   C8        1.0  0.07960  0.87873  0.39958  1.0000
  N   N1        1.0  0.96297  0.82633  0.95395  1.0000
  N   N2        1.0  0.13674  0.17367  0.54598  1.0000
  N   N3        1.0  0.03703  0.17368  0.04605  1.0000
  N   N4        1.0  0.86326  0.82633  0.45403  1.0000
  Cl  Cl1       1.0  0.47119  0.23550  0.83014  1.0000
  Cl  Cl2       1.0  0.23568  0.76445  0.66988  1.0000
  Cl  Cl3       1.0  0.52880  0.76451  0.16987  1.0000
  Cl  Cl4       1.0  0.76434  0.23555  0.33012  1.0000
  O   O1        1.0  0.32948  0.54886  0.86446  1.0000
  O   O2        1.0  0.78066  0.45103  0.63553  1.0000
  O   O3        1.0  0.67052  0.45114  0.13554  1.0000
  O   O4        1.0  0.21934  0.54897  0.36447  1.0000
  O   O5        1.0  0.92553  0.66035  0.91066  1.0000
  O   O6        1.0  0.26547  0.33962  0.58927  1.0000
  O   O7        1.0  0.07449  0.33968  0.08936  1.0000
  O   O8        1.0  0.73453  0.66039  0.41073  1.0000
