data_image0
_chemical_formula_structural       Cu4H16C16N4O16
_chemical_formula_sum              "Cu4 H16 C16 N4 O16"
_cell_length_a       6.42446
_cell_length_b       8.70858
_cell_length_c       10.702
_cell_angle_alpha    90.0004
_cell_angle_beta     90
_cell_angle_gamma    100.878

_space_group_name_H-M_alt    "P 1"
_space_group_IT_number       1

loop_
  _space_group_symop_operation_xyz
  'x, y, z'

loop_
  _atom_site_type_symbol
  _atom_site_label
  _atom_site_symmetry_multiplicity
  _atom_site_fract_x
  _atom_site_fract_y
  _atom_site_fract_z
  _atom_site_occupancy
  Cu  Cu1       1.0  0.88714  0.85703  0.50707  1.0000
  Cu  Cu2       1.0  0.61287  0.64297  0.00707  1.0000
  Cu  Cu3       1.0  0.11287  0.14297  0.49293  1.0000
  Cu  Cu4       1.0  0.38714  0.35703  0.99293  1.0000
  H   H1        1.0  0.39588  0.84555  0.31789  1.0000
  H   H2        1.0  0.10412  0.65443  0.81787  1.0000
  H   H3        1.0  0.60412  0.15444  0.68212  1.0000
  H   H4        1.0  0.89588  0.34555  0.18212  1.0000
  H   H5        1.0  0.28515  0.92418  0.78153  1.0000
  H   H6        1.0  0.21484  0.57582  0.28153  1.0000
  H   H7        1.0  0.71486  0.07583  0.21847  1.0000
  H   H8        1.0  0.78514  0.42416  0.71846  1.0000
  H   H9        1.0  0.45666  0.71777  0.63333  1.0000
  H   H10       1.0  0.04334  0.78223  0.13333  1.0000
  H   H11       1.0  0.54333  0.28224  0.36667  1.0000
  H   H12       1.0  0.95667  0.21777  0.86667  1.0000
  H   H13       1.0  0.16937  0.47457  0.61533  1.0000
  H   H14       1.0  0.33062  0.02544  0.11533  1.0000
  H   H15       1.0  0.83062  0.52544  0.38467  1.0000
  H   H16       1.0  0.66938  0.97457  0.88467  1.0000
  C   C1        1.0  0.27189  0.88900  0.37188  1.0000
  C   C2        1.0  0.22811  0.61099  0.87187  1.0000
  C   C3        1.0  0.72810  0.11099  0.62813  1.0000
  C   C4        1.0  0.77190  0.38901  0.12812  1.0000
  C   C5        1.0  0.19460  0.94628  0.69747  1.0000
  C   C6        1.0  0.30539  0.55372  0.19746  1.0000
  C   C7        1.0  0.80540  0.05372  0.30254  1.0000
  C   C8        1.0  0.69460  0.44627  0.80253  1.0000
  C   C9        1.0  0.47533  0.61979  0.57399  1.0000
  C   C10       1.0  0.02467  0.88022  0.07399  1.0000
  C   C11       1.0  0.52466  0.38022  0.42600  1.0000
  C   C12       1.0  0.97533  0.11979  0.92601  1.0000
  C   C13       1.0  0.31767  0.48642  0.56370  1.0000
  C   C14       1.0  0.18233  0.01359  0.06370  1.0000
  C   C15       1.0  0.68232  0.51359  0.43629  1.0000
  C   C16       1.0  0.81768  0.98641  0.93630  1.0000
  N   N1        1.0  0.65800  0.63338  0.51029  1.0000
  N   N2        1.0  0.84200  0.86663  0.01028  1.0000
  N   N3        1.0  0.34199  0.36663  0.48971  1.0000
  N   N4        1.0  0.15800  0.13338  0.98972  1.0000
  O   O1        1.0  0.11416  0.78613  0.40552  1.0000
  O   O2        1.0  0.38584  0.71385  0.90551  1.0000
  O   O3        1.0  0.88584  0.21386  0.59448  1.0000
  O   O4        1.0  0.61416  0.28614  0.09448  1.0000
  O   O5        1.0  0.05900  0.83051  0.65940  1.0000
  O   O6        1.0  0.44100  0.66949  0.15939  1.0000
  O   O7        1.0  0.94102  0.16949  0.34061  1.0000
  O   O8        1.0  0.55898  0.33051  0.84061  1.0000
  O   O9        1.0  0.30575  0.03512  0.39194  1.0000
  O   O10       1.0  0.19427  0.46487  0.89193  1.0000
  O   O11       1.0  0.69426  0.96487  0.60807  1.0000
  O   O12       1.0  0.80574  0.53512  0.10807  1.0000
  O   O13       1.0  0.24066  0.08278  0.65228  1.0000
  O   O14       1.0  0.25934  0.41723  0.15228  1.0000
  O   O15       1.0  0.75934  0.91724  0.34772  1.0000
  O   O16       1.0  0.74067  0.58276  0.84772  1.0000
