data_image0
_chemical_formula_structural       Cu4H24C20N4O16
_chemical_formula_sum              "Cu4 H24 C20 N4 O16"
_cell_length_a       7.11881
_cell_length_b       8.45373
_cell_length_c       12.5601
_cell_angle_alpha    92.8181
_cell_angle_beta     89.9988
_cell_angle_gamma    114.873

_space_group_name_H-M_alt    "P 1"
_space_group_IT_number       1

loop_
  _space_group_symop_operation_xyz
  'x, y, z'

loop_
  _atom_site_type_symbol
  _atom_site_label
  _atom_site_symmetry_multiplicity
  _atom_site_fract_x
  _atom_site_fract_y
  _atom_site_fract_z
  _atom_site_occupancy
  Cu  Cu1       1.0  0.48103  0.34905  0.95193  1.0000
  Cu  Cu2       1.0  0.13209  0.65083  0.54814  1.0000
  Cu  Cu3       1.0  0.51899  0.65090  0.04805  1.0000
  Cu  Cu4       1.0  0.86810  0.34932  0.45189  1.0000
  H   H1        1.0  0.23302  0.59151  0.78000  1.0000
  H   H2        1.0  0.64163  0.40860  0.72007  1.0000
  H   H3        1.0  0.76700  0.40852  0.22001  1.0000
  H   H4        1.0  0.35823  0.59129  0.27989  1.0000
  H   H5        1.0  0.98694  0.27583  0.11037  1.0000
  H   H6        1.0  0.71152  0.72481  0.38979  1.0000
  H   H7        1.0  0.01309  0.72421  0.88965  1.0000
  H   H8        1.0  0.28837  0.27505  0.61016  1.0000
  H   H9        1.0  0.11823  0.10480  0.83141  1.0000
  H   H10       1.0  0.01350  0.89525  0.66863  1.0000
  H   H11       1.0  0.88177  0.89522  0.16861  1.0000
  H   H12       1.0  0.98647  0.10475  0.33140  1.0000
  H   H13       1.0  0.76727  0.19462  0.92157  1.0000
  H   H14       1.0  0.57217  0.80492  0.57834  1.0000
  H   H15       1.0  0.23272  0.80538  0.07842  1.0000
  H   H16       1.0  0.42782  0.19509  0.42166  1.0000
  H   H17       1.0  0.87822  0.19133  0.79489  1.0000
  H   H18       1.0  0.68672  0.80815  0.70494  1.0000
  H   H19       1.0  0.12178  0.80867  0.20510  1.0000
  H   H20       1.0  0.31328  0.19186  0.29505  1.0000
  H   H21       1.0  0.78159  0.00010  0.86958  1.0000
  H   H22       1.0  0.78106  0.99934  0.63018  1.0000
  H   H23       1.0  0.21840  0.99990  0.13041  1.0000
  H   H24       1.0  0.21892  0.00068  0.36981  1.0000
  C   C1        1.0  0.31937  0.57225  0.84753  1.0000
  C   C2        1.0  0.74723  0.42791  0.65254  1.0000
  C   C3        1.0  0.68065  0.42775  0.15248  1.0000
  C   C4        1.0  0.25274  0.57208  0.34745  1.0000
  C   C5        1.0  0.14405  0.34155  0.07799  1.0000
  C   C6        1.0  0.80279  0.65890  0.42214  1.0000
  C   C7        1.0  0.85597  0.65844  0.92202  1.0000
  C   C8        1.0  0.19720  0.34108  0.57785  1.0000
  C   C9        1.0  0.54736  0.05672  0.79668  1.0000
  C   C10       1.0  0.49052  0.94303  0.70325  1.0000
  C   C11       1.0  0.45264  0.94328  0.20333  1.0000
  C   C12       1.0  0.50946  0.05697  0.29676  1.0000
  C   C13       1.0  0.22380  0.05683  0.79460  1.0000
  C   C14       1.0  0.16697  0.94312  0.70541  1.0000
  C   C15       1.0  0.77620  0.94318  0.20541  1.0000
  C   C16       1.0  0.83300  0.05688  0.29460  1.0000
  C   C17       1.0  0.75541  0.11429  0.84881  1.0000
  C   C18       1.0  0.64082  0.88525  0.65106  1.0000
  C   C19       1.0  0.24458  0.88571  0.15118  1.0000
  C   C20       1.0  0.35916  0.11476  0.34894  1.0000
  N   N1        1.0  0.41382  0.11410  0.84017  1.0000
  N   N2        1.0  0.29966  0.88576  0.65980  1.0000
  N   N3        1.0  0.58618  0.88591  0.15983  1.0000
  N   N4        1.0  0.70032  0.11425  0.34022  1.0000
  O   O1        1.0  0.34529  0.43271  0.83999  1.0000
  O   O2        1.0  0.91276  0.56729  0.66013  1.0000
  O   O3        1.0  0.65474  0.56729  0.16001  1.0000
  O   O4        1.0  0.08721  0.43274  0.33987  1.0000
  O   O5        1.0  0.20688  0.24351  0.02382  1.0000
  O   O6        1.0  0.96357  0.75676  0.47637  1.0000
  O   O7        1.0  0.79312  0.75648  0.97617  1.0000
  O   O8        1.0  0.03644  0.24326  0.52364  1.0000
  O   O9        1.0  0.37850  0.69208  0.92114  1.0000
  O   O10       1.0  0.68644  0.30826  0.57882  1.0000
  O   O11       1.0  0.62150  0.30791  0.07885  1.0000
  O   O12       1.0  0.31361  0.69174  0.42118  1.0000
  O   O13       1.0  0.23491  0.50445  0.10015  1.0000
  O   O14       1.0  0.73076  0.49605  0.39984  1.0000
  O   O15       1.0  0.76514  0.49554  0.89987  1.0000
  O   O16       1.0  0.26931  0.50396  0.60016  1.0000
