data_image0
_chemical_formula_structural       Er2H18C28N4O20
_chemical_formula_sum              "Er2 H18 C28 N4 O20"
_cell_length_a       9.07378
_cell_length_b       9.20992
_cell_length_c       9.49608
_cell_angle_alpha    86.2342
_cell_angle_beta     86.9303
_cell_angle_gamma    86.3068

_space_group_name_H-M_alt    "P 1"
_space_group_IT_number       1

loop_
  _space_group_symop_operation_xyz
  'x, y, z'

loop_
  _atom_site_type_symbol
  _atom_site_label
  _atom_site_symmetry_multiplicity
  _atom_site_fract_x
  _atom_site_fract_y
  _atom_site_fract_z
  _atom_site_occupancy
  Er  Er1       1.0  0.36472  0.41480  0.14125  1.0000
  Er  Er2       1.0  0.63528  0.58520  0.85875  1.0000
  H   H1        1.0  0.46601  0.53583  0.37750  1.0000
  H   H2        1.0  0.53399  0.46418  0.62250  1.0000
  H   H3        1.0  0.31577  0.47968  0.44185  1.0000
  H   H4        1.0  0.68423  0.52033  0.55815  1.0000
  H   H5        1.0  0.29396  0.19976  0.94687  1.0000
  H   H6        1.0  0.70603  0.80024  0.05313  1.0000
  H   H7        1.0  0.40311  0.13019  0.05487  1.0000
  H   H8        1.0  0.59689  0.86981  0.94513  1.0000
  H   H9        1.0  0.66093  0.87574  0.38670  1.0000
  H   H10       1.0  0.33908  0.12425  0.61331  1.0000
  H   H11       1.0  0.97668  0.06545  0.41820  1.0000
  H   H12       1.0  0.02332  0.93456  0.58180  1.0000
  H   H13       1.0  0.74618  0.20131  0.33292  1.0000
  H   H14       1.0  0.25382  0.79869  0.66708  1.0000
  H   H15       1.0  0.90267  0.95997  0.19465  1.0000
  H   H16       1.0  0.09733  0.04003  0.80536  1.0000
  H   H17       1.0  0.15863  0.98692  0.07801  1.0000
  H   H18       1.0  0.84137  0.01308  0.92198  1.0000
  C   C1        1.0  0.26747  0.16357  0.36986  1.0000
  C   C2        1.0  0.73253  0.83643  0.63015  1.0000
  C   C3        1.0  0.11741  0.23234  0.32857  1.0000
  C   C4        1.0  0.88259  0.76766  0.67143  1.0000
  C   C5        1.0  0.98200  0.17166  0.36184  1.0000
  C   C6        1.0  0.01800  0.82834  0.63816  1.0000
  C   C7        1.0  0.85365  0.24827  0.31720  1.0000
  C   C8        1.0  0.14635  0.75174  0.68280  1.0000
  C   C9        1.0  0.86108  0.38842  0.25138  1.0000
  C   C10       1.0  0.13892  0.61159  0.74862  1.0000
  C   C11       1.0  0.00001  0.44931  0.23752  1.0000
  C   C12       1.0  0.99998  0.55069  0.76248  1.0000
  C   C13       1.0  0.02961  0.60425  0.19814  1.0000
  C   C14       1.0  0.97039  0.39575  0.80185  1.0000
  C   C15       1.0  0.93242  0.72724  0.22367  1.0000
  C   C16       1.0  0.06758  0.27275  0.77633  1.0000
  C   C17       1.0  0.97794  0.86542  0.17675  1.0000
  C   C18       1.0  0.02206  0.13458  0.82325  1.0000
  C   C19       1.0  0.11778  0.88106  0.11281  1.0000
  C   C20       1.0  0.88222  0.11893  0.88718  1.0000
  C   C21       1.0  0.21010  0.75546  0.10033  1.0000
  C   C22       1.0  0.78990  0.24454  0.89967  1.0000
  C   C23       1.0  0.36414  0.76206  0.03400  1.0000
  C   C24       1.0  0.63586  0.23794  0.96600  1.0000
  C   C25       1.0  0.79548  0.72372  0.31809  1.0000
  C   C26       1.0  0.20453  0.27628  0.68191  1.0000
  C   C27       1.0  0.72626  0.45944  0.18429  1.0000
  C   C28       1.0  0.27373  0.54057  0.81570  1.0000
  N   N1        1.0  0.16675  0.62212  0.14209  1.0000
  N   N2        1.0  0.83325  0.37788  0.85790  1.0000
  N   N3        1.0  0.12397  0.36676  0.26554  1.0000
  N   N4        1.0  0.87602  0.63325  0.73446  1.0000
  O   O1        1.0  0.35996  0.54046  0.36332  1.0000
  O   O2        1.0  0.64004  0.45954  0.63667  1.0000
  O   O3        1.0  0.30545  0.18665  0.04857  1.0000
  O   O4        1.0  0.69455  0.81335  0.95143  1.0000
  O   O5        1.0  0.37966  0.22381  0.31112  1.0000
  O   O6        1.0  0.62035  0.77619  0.68890  1.0000
  O   O7        1.0  0.26918  0.06116  0.46468  1.0000
  O   O8        1.0  0.73081  0.93884  0.53533  1.0000
  O   O9        1.0  0.44532  0.64032  0.04207  1.0000
  O   O10       1.0  0.55469  0.35968  0.95794  1.0000
  O   O11       1.0  0.40233  0.87859  0.97317  1.0000
  O   O12       1.0  0.59768  0.12140  0.02683  1.0000
  O   O13       1.0  0.70035  0.83833  0.29286  1.0000
  O   O14       1.0  0.29965  0.16166  0.70714  1.0000
  O   O15       1.0  0.77904  0.63028  0.41559  1.0000
  O   O16       1.0  0.22097  0.36971  0.58441  1.0000
  O   O17       1.0  0.74881  0.54726  0.07759  1.0000
  O   O18       1.0  0.25118  0.45274  0.92241  1.0000
  O   O19       1.0  0.60106  0.42003  0.23313  1.0000
  O   O20       1.0  0.39894  0.57997  0.76688  1.0000
