data_image0
_chemical_formula_structural       Ho2H18C28N4O20
_chemical_formula_sum              "Ho2 H18 C28 N4 O20"
_cell_length_a       9.07407
_cell_length_b       9.1647
_cell_length_c       9.52719
_cell_angle_alpha    86.2073
_cell_angle_beta     85.6913
_cell_angle_gamma    85.6815

_space_group_name_H-M_alt    "P 1"
_space_group_IT_number       1

loop_
  _space_group_symop_operation_xyz
  'x, y, z'

loop_
  _atom_site_type_symbol
  _atom_site_label
  _atom_site_symmetry_multiplicity
  _atom_site_fract_x
  _atom_site_fract_y
  _atom_site_fract_z
  _atom_site_occupancy
  Ho  Ho1       1.0  0.13651  0.08620  0.85720  1.0000
  Ho  Ho2       1.0  0.86349  0.91380  0.14279  1.0000
  H   H1        1.0  0.87415  0.63419  0.62987  1.0000
  H   H2        1.0  0.12586  0.36581  0.37014  1.0000
  H   H3        1.0  0.18386  0.01665  0.55697  1.0000
  H   H4        1.0  0.81614  0.98334  0.44303  1.0000
  H   H5        1.0  0.03270  0.96720  0.62613  1.0000
  H   H6        1.0  0.96730  0.03280  0.37386  1.0000
  H   H7        1.0  0.20508  0.29862  0.05264  1.0000
  H   H8        1.0  0.79492  0.70137  0.94735  1.0000
  H   H9        1.0  0.10148  0.37405  0.94462  1.0000
  H   H10       1.0  0.89852  0.62594  0.05539  1.0000
  H   H11       1.0  0.52773  0.43550  0.58041  1.0000
  H   H12       1.0  0.47226  0.56450  0.41959  1.0000
  H   H13       1.0  0.75613  0.29931  0.66776  1.0000
  H   H14       1.0  0.24387  0.70069  0.33223  1.0000
  H   H15       1.0  0.60476  0.53506  0.80398  1.0000
  H   H16       1.0  0.39524  0.46494  0.19602  1.0000
  H   H17       1.0  0.34579  0.50884  0.91863  1.0000
  H   H18       1.0  0.65421  0.49116  0.08136  1.0000
  C   C1        1.0  0.23624  0.34062  0.62950  1.0000
  C   C2        1.0  0.76375  0.65938  0.37051  1.0000
  C   C3        1.0  0.38588  0.26724  0.66718  1.0000
  C   C4        1.0  0.61412  0.73276  0.33282  1.0000
  C   C5        1.0  0.52157  0.32831  0.63553  1.0000
  C   C6        1.0  0.47842  0.67169  0.36447  1.0000
  C   C7        1.0  0.64905  0.25147  0.68153  1.0000
  C   C8        1.0  0.35095  0.74853  0.31847  1.0000
  C   C9        1.0  0.64108  0.11063  0.74714  1.0000
  C   C10       1.0  0.35892  0.88937  0.25286  1.0000
  C   C11       1.0  0.50293  0.04881  0.75844  1.0000
  C   C12       1.0  0.49707  0.95119  0.24156  1.0000
  C   C13       1.0  0.47407  0.89306  0.79817  1.0000
  C   C14       1.0  0.52593  0.10694  0.20183  1.0000
  C   C15       1.0  0.57332  0.76903  0.77415  1.0000
  C   C16       1.0  0.42668  0.23097  0.22585  1.0000
  C   C17       1.0  0.52803  0.63024  0.82090  1.0000
  C   C18       1.0  0.47197  0.36976  0.17910  1.0000
  C   C19       1.0  0.38659  0.61504  0.88393  1.0000
  C   C20       1.0  0.61341  0.38496  0.11606  1.0000
  C   C21       1.0  0.29279  0.74160  0.89623  1.0000
  C   C22       1.0  0.70721  0.25840  0.10377  1.0000
  C   C23       1.0  0.13734  0.73535  0.96343  1.0000
  C   C24       1.0  0.86266  0.26466  0.03657  1.0000
  C   C25       1.0  0.77397  0.04096  0.81708  1.0000
  C   C26       1.0  0.22602  0.95905  0.18291  1.0000
  C   C27       1.0  0.71464  0.77339  0.68389  1.0000
  C   C28       1.0  0.28536  0.22661  0.31611  1.0000
  N   N1        1.0  0.37903  0.13156  0.72865  1.0000
  N   N2        1.0  0.62097  0.86844  0.27135  1.0000
  N   N3        1.0  0.33578  0.87541  0.85407  1.0000
  N   N4        1.0  0.66422  0.12459  0.14593  1.0000
  O   O1        1.0  0.12307  0.27937  0.68882  1.0000
  O   O2        1.0  0.87693  0.72063  0.31119  1.0000
  O   O3        1.0  0.23537  0.44724  0.54022  1.0000
  O   O4        1.0  0.76462  0.55276  0.45978  1.0000
  O   O5        1.0  0.05547  0.85804  0.95656  1.0000
  O   O6        1.0  0.94454  0.14196  0.04345  1.0000
  O   O7        1.0  0.09897  0.61820  0.02389  1.0000
  O   O8        1.0  0.90104  0.38180  0.97611  1.0000
  O   O9        1.0  0.73647  0.86563  0.58655  1.0000
  O   O10       1.0  0.26352  0.13436  0.41345  1.0000
  O   O11       1.0  0.81110  0.65965  0.71542  1.0000
  O   O12       1.0  0.18891  0.34035  0.28459  1.0000
  O   O13       1.0  0.90006  0.08100  0.76940  1.0000
  O   O14       1.0  0.09994  0.91901  0.23060  1.0000
  O   O15       1.0  0.74909  0.95391  0.92417  1.0000
  O   O16       1.0  0.25091  0.04609  0.07583  1.0000
  O   O17       1.0  0.13951  0.95612  0.63602  1.0000
  O   O18       1.0  0.86049  0.04388  0.36398  1.0000
  O   O19       1.0  0.19705  0.31345  0.95109  1.0000
  O   O20       1.0  0.80295  0.68655  0.04890  1.0000
