data_image0
_chemical_formula_structural       Dy2H18C28N4O20
_chemical_formula_sum              "Dy2 H18 C28 N4 O20"
_cell_length_a       9.11277
_cell_length_b       9.20419
_cell_length_c       9.54632
_cell_angle_alpha    86.1982
_cell_angle_beta     87.4503
_cell_angle_gamma    86.685

_space_group_name_H-M_alt    "P 1"
_space_group_IT_number       1

loop_
  _space_group_symop_operation_xyz
  'x, y, z'

loop_
  _atom_site_type_symbol
  _atom_site_label
  _atom_site_symmetry_multiplicity
  _atom_site_fract_x
  _atom_site_fract_y
  _atom_site_fract_z
  _atom_site_occupancy
  Dy  Dy1       1.0  0.63514  0.08867  0.86059  1.0000
  Dy  Dy2       1.0  0.36486  0.91133  0.13941  1.0000
  H   H1        1.0  0.33140  0.62574  0.61225  1.0000
  H   H2        1.0  0.66861  0.37427  0.38775  1.0000
  H   H3        1.0  0.70450  0.30349  0.05923  1.0000
  H   H4        1.0  0.29549  0.69652  0.94077  1.0000
  H   H5        1.0  0.59976  0.37430  0.94856  1.0000
  H   H6        1.0  0.40025  0.62570  0.05143  1.0000
  H   H7        1.0  0.68344  0.02898  0.55788  1.0000
  H   H8        1.0  0.31655  0.97103  0.44212  1.0000
  H   H9        1.0  0.52691  0.99346  0.62180  1.0000
  H   H10       1.0  0.47309  0.00654  0.37819  1.0000
  H   H11       1.0  0.02488  0.43695  0.58258  1.0000
  H   H12       1.0  0.97512  0.56305  0.41742  1.0000
  H   H13       1.0  0.25352  0.29934  0.66612  1.0000
  H   H14       1.0  0.74648  0.70066  0.33388  1.0000
  H   H15       1.0  0.09314  0.54191  0.80612  1.0000
  H   H16       1.0  0.90687  0.45809  0.19388  1.0000
  H   H17       1.0  0.84044  0.51472  0.92429  1.0000
  H   H18       1.0  0.15956  0.48528  0.07571  1.0000
  C   C1        1.0  0.73446  0.34097  0.63146  1.0000
  C   C2        1.0  0.26554  0.65903  0.36855  1.0000
  C   C3        1.0  0.88346  0.27100  0.67265  1.0000
  C   C4        1.0  0.11654  0.72900  0.32735  1.0000
  C   C5        1.0  0.01873  0.33062  0.63843  1.0000
  C   C6        1.0  0.98127  0.66937  0.36158  1.0000
  C   C7        1.0  0.14612  0.25292  0.68203  1.0000
  C   C8        1.0  0.85388  0.74708  0.31798  1.0000
  C   C9        1.0  0.13783  0.11260  0.74718  1.0000
  C   C10       1.0  0.86217  0.88740  0.25282  1.0000
  C   C11       1.0  0.99879  0.05259  0.76171  1.0000
  C   C12       1.0  0.00121  0.94741  0.23830  1.0000
  C   C13       1.0  0.96803  0.89757  0.80083  1.0000
  C   C14       1.0  0.03197  0.10243  0.19917  1.0000
  C   C15       1.0  0.06363  0.77455  0.77528  1.0000
  C   C16       1.0  0.93637  0.22545  0.22472  1.0000
  C   C17       1.0  0.01882  0.63642  0.82361  1.0000
  C   C18       1.0  0.98118  0.36359  0.17639  1.0000
  C   C19       1.0  0.88056  0.62066  0.88815  1.0000
  C   C20       1.0  0.11945  0.37933  0.11185  1.0000
  C   C21       1.0  0.78894  0.74605  0.89968  1.0000
  C   C22       1.0  0.21106  0.25394  0.10032  1.0000
  C   C23       1.0  0.63593  0.73836  0.96559  1.0000
  C   C24       1.0  0.36407  0.26163  0.03440  1.0000
  C   C25       1.0  0.27225  0.04150  0.81392  1.0000
  C   C26       1.0  0.72775  0.95849  0.18607  1.0000
  C   C27       1.0  0.19782  0.77774  0.67952  1.0000
  C   C28       1.0  0.80217  0.22227  0.32048  1.0000
  N   N1        1.0  0.87604  0.13642  0.73526  1.0000
  N   N2        1.0  0.12396  0.86358  0.26474  1.0000
  N   N3        1.0  0.83209  0.87956  0.85740  1.0000
  N   N4        1.0  0.16791  0.12044  0.14260  1.0000
  O   O1        1.0  0.73355  0.44092  0.53457  1.0000
  O   O2        1.0  0.26645  0.55908  0.46544  1.0000
  O   O3        1.0  0.62232  0.28392  0.69215  1.0000
  O   O4        1.0  0.37768  0.71608  0.30786  1.0000
  O   O5        1.0  0.55499  0.85953  0.95730  1.0000
  O   O6        1.0  0.44501  0.14046  0.04271  1.0000
  O   O7        1.0  0.59829  0.62152  0.02604  1.0000
  O   O8        1.0  0.40172  0.37846  0.97395  1.0000
  O   O9        1.0  0.39675  0.08232  0.76651  1.0000
  O   O10       1.0  0.60325  0.91768  0.23349  1.0000
  O   O11       1.0  0.25049  0.95282  0.91942  1.0000
  O   O12       1.0  0.74951  0.04717  0.08058  1.0000
  O   O13       1.0  0.21142  0.86992  0.58088  1.0000
  O   O14       1.0  0.78858  0.13008  0.41912  1.0000
  O   O15       1.0  0.29304  0.66396  0.70523  1.0000
  O   O16       1.0  0.70696  0.33606  0.29477  1.0000
  O   O17       1.0  0.69535  0.31650  0.95761  1.0000
  O   O18       1.0  0.30465  0.68350  0.04239  1.0000
  O   O19       1.0  0.63216  0.97065  0.63329  1.0000
  O   O20       1.0  0.36784  0.02936  0.36671  1.0000
