data_image0
_chemical_formula_structural       Co2H54C66N10O14
_chemical_formula_sum              "Co2 H54 C66 N10 O14"
_cell_length_a       10.4864
_cell_length_b       12.7803
_cell_length_c       14.6733
_cell_angle_alpha    109.023
_cell_angle_beta     108.073
_cell_angle_gamma    99.6714

_space_group_name_H-M_alt    "P 1"
_space_group_IT_number       1

loop_
  _space_group_symop_operation_xyz
  'x, y, z'

loop_
  _atom_site_type_symbol
  _atom_site_label
  _atom_site_symmetry_multiplicity
  _atom_site_fract_x
  _atom_site_fract_y
  _atom_site_fract_z
  _atom_site_occupancy
  Co  Co1       1.0  0.91424  0.02482  0.72288  1.0000
  Co  Co2       1.0  0.08583  0.97524  0.27713  1.0000
  H   H1        1.0  0.06641  0.31352  0.44610  1.0000
  H   H2        1.0  0.93361  0.68648  0.55391  1.0000
  H   H3        1.0  0.04034  0.32394  0.22652  1.0000
  H   H4        1.0  0.95967  0.67606  0.77349  1.0000
  H   H5        1.0  0.14463  0.24172  0.80122  1.0000
  H   H6        1.0  0.85538  0.75827  0.19878  1.0000
  H   H7        1.0  0.22281  0.38489  0.73343  1.0000
  H   H8        1.0  0.77719  0.61510  0.26657  1.0000
  H   H9        1.0  0.93141  0.14056  0.42378  1.0000
  H   H10       1.0  0.06858  0.85944  0.57622  1.0000
  H   H11       1.0  0.85635  0.01202  0.50633  1.0000
  H   H12       1.0  0.14365  0.98797  0.49367  1.0000
  H   H13       1.0  0.05604  0.39145  0.36127  1.0000
  H   H14       1.0  0.94394  0.60855  0.63874  1.0000
  H   H15       1.0  0.23546  0.70872  0.34465  1.0000
  H   H16       1.0  0.76451  0.29128  0.65536  1.0000
  H   H17       1.0  0.34481  0.80482  0.53999  1.0000
  H   H18       1.0  0.65520  0.19518  0.46002  1.0000
  H   H19       1.0  0.31358  0.69044  0.64536  1.0000
  H   H20       1.0  0.68642  0.30955  0.35464  1.0000
  H   H21       1.0  0.01584  0.02828  0.93331  1.0000
  H   H22       1.0  0.98418  0.97173  0.06669  1.0000
  H   H23       1.0  0.07221  0.15935  0.11848  1.0000
  H   H24       1.0  0.92780  0.84066  0.88152  1.0000
  H   H25       1.0  0.95003  0.41380  0.00214  1.0000
  H   H26       1.0  0.04993  0.58619  0.99786  1.0000
  H   H27       1.0  0.90088  0.27399  0.82491  1.0000
  H   H28       1.0  0.09913  0.72600  0.17509  1.0000
  H   H29       1.0  0.61966  0.68184  0.45842  1.0000
  H   H30       1.0  0.38034  0.31818  0.54157  1.0000
  H   H31       1.0  0.47832  0.49542  0.30437  1.0000
  H   H32       1.0  0.52167  0.50460  0.69563  1.0000
  H   H33       1.0  0.66905  0.71065  0.76789  1.0000
  H   H34       1.0  0.33096  0.28937  0.23210  1.0000
  H   H35       1.0  0.28185  0.08820  0.92781  1.0000
  H   H36       1.0  0.71816  0.91179  0.07218  1.0000
  H   H37       1.0  0.49874  0.23006  0.07992  1.0000
  H   H38       1.0  0.50128  0.76993  0.92008  1.0000
  H   H39       1.0  0.25805  0.72797  0.79445  1.0000
  H   H40       1.0  0.74197  0.27202  0.20555  1.0000
  H   H41       1.0  0.45116  0.00910  0.77828  1.0000
  H   H42       1.0  0.54887  0.99092  0.22172  1.0000
  H   H43       1.0  0.30666  0.97968  0.66053  1.0000
  H   H44       1.0  0.69336  0.02033  0.33947  1.0000
  H   H45       1.0  0.37777  0.12147  0.76230  1.0000
  H   H46       1.0  0.62224  0.87854  0.23770  1.0000
  H   H47       1.0  0.54814  0.15047  0.57990  1.0000
  H   H48       1.0  0.45187  0.84954  0.42009  1.0000
  H   H49       1.0  0.42928  0.20255  0.63518  1.0000
  H   H50       1.0  0.57074  0.79746  0.36481  1.0000
  H   H51       1.0  0.37013  0.06358  0.52967  1.0000
  H   H52       1.0  0.62988  0.93642  0.47033  1.0000
  H   H53       1.0  0.65045  0.02059  0.76443  1.0000
  H   H54       1.0  0.34957  0.97942  0.23556  1.0000
  C   C1        1.0  0.09770  0.22349  0.71804  1.0000
  C   C2        1.0  0.90231  0.77649  0.28196  1.0000
  C   C3        1.0  0.14281  0.30284  0.68046  1.0000
  C   C4        1.0  0.85720  0.69716  0.31955  1.0000
  C   C5        1.0  0.07886  0.27649  0.57273  1.0000
  C   C6        1.0  0.92114  0.72351  0.42726  1.0000
  C   C7        1.0  0.97826  0.16731  0.50831  1.0000
  C   C8        1.0  0.02174  0.83269  0.49169  1.0000
  C   C9        1.0  0.93753  0.09537  0.55356  1.0000
  C   C10       1.0  0.06247  0.90462  0.44643  1.0000
  C   C11       1.0  0.17480  0.46959  0.57784  1.0000
  C   C12       1.0  0.82519  0.53041  0.42217  1.0000
  C   C13       1.0  0.18446  0.53362  0.51011  1.0000
  C   C14       1.0  0.81553  0.46638  0.48991  1.0000
  C   C15       1.0  0.12239  0.48110  0.40077  1.0000
  C   C16       1.0  0.87758  0.51890  0.59923  1.0000
  C   C17       1.0  0.14285  0.54307  0.34099  1.0000
  C   C18       1.0  0.85710  0.45693  0.65902  1.0000
  C   C19       1.0  0.22189  0.66048  0.39174  1.0000
  C   C20       1.0  0.77808  0.33952  0.60826  1.0000
  C   C21       1.0  0.28207  0.71376  0.50084  1.0000
  C   C22       1.0  0.71791  0.28623  0.49915  1.0000
  C   C23       1.0  0.26473  0.65098  0.56016  1.0000
  C   C24       1.0  0.73527  0.34902  0.43985  1.0000
  C   C25       1.0  0.00108  0.11389  0.95245  1.0000
  C   C26       1.0  0.99895  0.88612  0.04756  1.0000
  C   C27       1.0  0.03025  0.18623  0.05462  1.0000
  C   C28       1.0  0.96976  0.81378  0.94538  1.0000
  C   C29       1.0  0.01211  0.29718  0.07579  1.0000
  C   C30       1.0  0.98789  0.70281  0.92422  1.0000
  C   C31       1.0  0.96558  0.32952  0.99127  1.0000
  C   C32       1.0  0.03440  0.67048  0.00873  1.0000
  C   C33       1.0  0.93811  0.25056  0.89131  1.0000
  C   C34       1.0  0.06189  0.74944  0.10870  1.0000
  C   C35       1.0  0.09073  0.48770  0.22414  1.0000
  C   C36       1.0  0.90922  0.51229  0.77587  1.0000
  C   C37       1.0  0.74599  0.82772  0.66084  1.0000
  C   C38       1.0  0.25402  0.17230  0.33916  1.0000
  C   C39       1.0  0.65349  0.70655  0.61627  1.0000
  C   C40       1.0  0.34649  0.29347  0.38372  1.0000
  C   C41       1.0  0.59694  0.64194  0.50914  1.0000
  C   C42       1.0  0.40303  0.35808  0.49086  1.0000
  C   C43       1.0  0.51295  0.52543  0.46546  1.0000
  C   C44       1.0  0.48701  0.47459  0.53453  1.0000
  C   C45       1.0  0.45570  0.45673  0.35599  1.0000
  C   C46       1.0  0.54428  0.54328  0.64400  1.0000
  C   C47       1.0  0.62513  0.65684  0.68411  1.0000
  C   C48       1.0  0.37486  0.34317  0.31588  1.0000
  C   C49       1.0  0.11473  0.88472  0.77208  1.0000
  C   C50       1.0  0.88527  0.11524  0.22791  1.0000
  C   C51       1.0  0.25665  0.90724  0.85384  1.0000
  C   C52       1.0  0.74337  0.09275  0.14617  1.0000
  C   C53       1.0  0.33058  0.01926  0.92810  1.0000
  C   C54       1.0  0.66944  0.98074  0.07190  1.0000
  C   C55       1.0  0.46828  0.04594  0.00180  1.0000
  C   C56       1.0  0.53173  0.95405  0.99819  1.0000
  C   C57       1.0  0.54716  0.16047  0.07769  1.0000
  C   C58       1.0  0.45286  0.83952  0.92231  1.0000
  C   C59       1.0  0.31795  0.81598  0.85239  1.0000
  C   C60       1.0  0.68206  0.18401  0.14761  1.0000
  C   C61       1.0  0.40462  0.04474  0.72190  1.0000
  C   C62       1.0  0.59540  0.95527  0.27810  1.0000
  C   C63       1.0  0.45986  0.12552  0.60088  1.0000
  C   C64       1.0  0.54015  0.87448  0.39911  1.0000
  C   C65       1.0  0.63048  0.05956  0.70632  1.0000
  C   C66       1.0  0.36953  0.94045  0.29367  1.0000
  N   N1        1.0  0.99369  0.12278  0.65754  1.0000
  N   N2        1.0  0.00631  0.87721  0.34245  1.0000
  N   N3        1.0  0.10738  0.35151  0.52647  1.0000
  N   N4        1.0  0.89263  0.64849  0.47354  1.0000
  N   N5        1.0  0.04250  0.36787  0.17933  1.0000
  N   N6        1.0  0.95749  0.63212  0.82067  1.0000
  N   N7        1.0  0.95452  0.14393  0.87069  1.0000
  N   N8        1.0  0.04550  0.85607  0.12932  1.0000
  N   N9        1.0  0.50305  0.07509  0.67682  1.0000
  N   N10       1.0  0.49697  0.92492  0.32317  1.0000
  O   O1        1.0  0.22633  0.52054  0.67463  1.0000
  O   O2        1.0  0.77365  0.47946  0.32538  1.0000
  O   O3        1.0  0.09873  0.54587  0.17210  1.0000
  O   O4        1.0  0.90118  0.45413  0.82791  1.0000
  O   O5        1.0  0.08600  0.97612  0.76456  1.0000
  O   O6        1.0  0.91402  0.02386  0.23545  1.0000
  O   O7        1.0  0.03627  0.78159  0.71496  1.0000
  O   O8        1.0  0.96375  0.21838  0.28505  1.0000
  O   O9        1.0  0.79443  0.88855  0.75911  1.0000
  O   O10       1.0  0.20556  0.11144  0.24089  1.0000
  O   O11       1.0  0.77689  0.87038  0.59949  1.0000
  O   O12       1.0  0.22309  0.12958  0.40047  1.0000
  O   O13       1.0  0.72130  0.08505  0.67191  1.0000
  O   O14       1.0  0.27869  0.91496  0.32807  1.0000
