data_image0
_chemical_formula_structural       Zn2H36C52N8O8
_chemical_formula_sum              "Zn2 H36 C52 N8 O8"
_cell_length_a       9.06915
_cell_length_b       10.0692
_cell_length_c       13.136
_cell_angle_alpha    90
_cell_angle_beta     110.24
_cell_angle_gamma    90

_space_group_name_H-M_alt    "P 1"
_space_group_IT_number       1

loop_
  _space_group_symop_operation_xyz
  'x, y, z'

loop_
  _atom_site_type_symbol
  _atom_site_label
  _atom_site_symmetry_multiplicity
  _atom_site_fract_x
  _atom_site_fract_y
  _atom_site_fract_z
  _atom_site_occupancy
  Zn  Zn1       1.0  0.00000  0.00000  1.00000  1.0000
  Zn  Zn2       1.0  0.50000  0.50000  0.50000  1.0000
  H   H1        1.0  0.83822  0.41487  0.90015  1.0000
  H   H2        1.0  0.66177  0.91487  0.59984  1.0000
  H   H3        1.0  0.16177  0.58513  0.09984  1.0000
  H   H4        1.0  0.33823  0.08513  0.40016  1.0000
  H   H5        1.0  0.67653  0.40481  0.72355  1.0000
  H   H6        1.0  0.82346  0.90481  0.77645  1.0000
  H   H7        1.0  0.32346  0.59519  0.27645  1.0000
  H   H8        1.0  0.17654  0.09518  0.22355  1.0000
  H   H9        1.0  0.79512  0.41592  0.44626  1.0000
  H   H10       1.0  0.70488  0.91592  0.05374  1.0000
  H   H11       1.0  0.20488  0.58409  0.55374  1.0000
  H   H12       1.0  0.29513  0.08409  0.94626  1.0000
  H   H13       1.0  0.03168  0.27564  0.53089  1.0000
  H   H14       1.0  0.46832  0.77564  0.96911  1.0000
  H   H15       1.0  0.96833  0.72437  0.46911  1.0000
  H   H16       1.0  0.53168  0.22437  0.03089  1.0000
  H   H17       1.0  0.08066  0.18352  0.71904  1.0000
  H   H18       1.0  0.41934  0.68352  0.78097  1.0000
  H   H19       1.0  0.91933  0.81648  0.28096  1.0000
  H   H20       1.0  0.58067  0.31649  0.21904  1.0000
  H   H21       1.0  0.97145  0.26264  0.24198  1.0000
  H   H22       1.0  0.52855  0.76263  0.25801  1.0000
  H   H23       1.0  0.02855  0.73736  0.75802  1.0000
  H   H24       1.0  0.47145  0.23736  0.74198  1.0000
  H   H25       1.0  0.72535  0.57867  0.30755  1.0000
  H   H26       1.0  0.77465  0.07867  0.19245  1.0000
  H   H27       1.0  0.27465  0.42133  0.69245  1.0000
  H   H28       1.0  0.22534  0.92133  0.80755  1.0000
  H   H29       1.0  0.62415  0.64611  0.11261  1.0000
  H   H30       1.0  0.87586  0.14612  0.38739  1.0000
  H   H31       1.0  0.37585  0.35389  0.88739  1.0000
  H   H32       1.0  0.12414  0.85388  0.61260  1.0000
  H   H33       1.0  0.68761  0.50579  0.97619  1.0000
  H   H34       1.0  0.81239  0.00578  0.52382  1.0000
  H   H35       1.0  0.31239  0.49421  0.02381  1.0000
  H   H36       1.0  0.18761  0.99421  0.47618  1.0000
  C   C1        1.0  0.87131  0.27087  0.02602  1.0000
  C   C2        1.0  0.62869  0.77086  0.47398  1.0000
  C   C3        1.0  0.12869  0.72913  0.97397  1.0000
  C   C4        1.0  0.37131  0.22913  0.52602  1.0000
  C   C5        1.0  0.86987  0.31202  0.92295  1.0000
  C   C6        1.0  0.63013  0.81202  0.57705  1.0000
  C   C7        1.0  0.13013  0.68797  0.07705  1.0000
  C   C8        1.0  0.36987  0.18797  0.42295  1.0000
  C   C9        1.0  0.91132  0.23361  0.84761  1.0000
  C   C10       1.0  0.58868  0.73361  0.65239  1.0000
  C   C11       1.0  0.08868  0.76639  0.15238  1.0000
  C   C12       1.0  0.41132  0.26639  0.34761  1.0000
  C   C13       1.0  0.88568  0.28955  0.73739  1.0000
  C   C14       1.0  0.61432  0.78955  0.76261  1.0000
  C   C15       1.0  0.11432  0.71046  0.26261  1.0000
  C   C16       1.0  0.38568  0.21045  0.23739  1.0000
  C   C17       1.0  0.75917  0.37284  0.68477  1.0000
  C   C18       1.0  0.74083  0.87284  0.81523  1.0000
  C   C19       1.0  0.24083  0.62715  0.31523  1.0000
  C   C20       1.0  0.25917  0.12715  0.18477  1.0000
  C   C21       1.0  0.82377  0.37974  0.52903  1.0000
  C   C22       1.0  0.67623  0.87974  0.97097  1.0000
  C   C23       1.0  0.17623  0.62027  0.47097  1.0000
  C   C24       1.0  0.32378  0.12026  0.02903  1.0000
  C   C25       1.0  0.95431  0.29887  0.57598  1.0000
  C   C26       1.0  0.54569  0.79886  0.92402  1.0000
  C   C27       1.0  0.04569  0.70114  0.42402  1.0000
  C   C28       1.0  0.45431  0.20114  0.07598  1.0000
  C   C29       1.0  0.98313  0.25022  0.68008  1.0000
  C   C30       1.0  0.51687  0.75022  0.81992  1.0000
  C   C31       1.0  0.01687  0.74978  0.31992  1.0000
  C   C32       1.0  0.48313  0.24978  0.18008  1.0000
  C   C33       1.0  0.83241  0.36945  0.09839  1.0000
  C   C34       1.0  0.66759  0.86945  0.40161  1.0000
  C   C35       1.0  0.16759  0.63055  0.90161  1.0000
  C   C36       1.0  0.33241  0.13055  0.59839  1.0000
  C   C37       1.0  0.89164  0.34617  0.21101  1.0000
  C   C38       1.0  0.60836  0.84616  0.28899  1.0000
  C   C39       1.0  0.10836  0.65384  0.78899  1.0000
  C   C40       1.0  0.39164  0.15383  0.71101  1.0000
  C   C41       1.0  0.75872  0.52337  0.24718  1.0000
  C   C42       1.0  0.74129  0.02337  0.25282  1.0000
  C   C43       1.0  0.24129  0.47664  0.75282  1.0000
  C   C44       1.0  0.25871  0.97663  0.74718  1.0000
  C   C45       1.0  0.69914  0.55900  0.13777  1.0000
  C   C46       1.0  0.80086  0.05900  0.36223  1.0000
  C   C47       1.0  0.30086  0.44100  0.86222  1.0000
  C   C48       1.0  0.19914  0.94099  0.63777  1.0000
  C   C49       1.0  0.73638  0.48126  0.06228  1.0000
  C   C50       1.0  0.76363  0.98125  0.43772  1.0000
  C   C51       1.0  0.26362  0.51875  0.93772  1.0000
  C   C52       1.0  0.23637  0.01874  0.56228  1.0000
  N   N1        1.0  0.72675  0.41396  0.58209  1.0000
  N   N2        1.0  0.77325  0.91396  0.91791  1.0000
  N   N3        1.0  0.27325  0.58604  0.41791  1.0000
  N   N4        1.0  0.22676  0.08604  0.08209  1.0000
  N   N5        1.0  0.85631  0.41978  0.28420  1.0000
  N   N6        1.0  0.64369  0.91977  0.21580  1.0000
  N   N7        1.0  0.14369  0.58023  0.71580  1.0000
  N   N8        1.0  0.35631  0.08022  0.78420  1.0000
  O   O1        1.0  0.90289  0.15406  0.06608  1.0000
  O   O2        1.0  0.59712  0.65406  0.43392  1.0000
  O   O3        1.0  0.09712  0.84594  0.93392  1.0000
  O   O4        1.0  0.40288  0.34594  0.56608  1.0000
  O   O5        1.0  0.97043  0.11709  0.86289  1.0000
  O   O6        1.0  0.52956  0.61709  0.63711  1.0000
  O   O7        1.0  0.02957  0.88291  0.13711  1.0000
  O   O8        1.0  0.47043  0.38291  0.36289  1.0000
