data_image0
_chemical_formula_structural       Co2H36C40S4N16O4
_chemical_formula_sum              "Co2 H36 C40 S4 N16 O4"
_cell_length_a       9.00705
_cell_length_b       10.4778
_cell_length_c       13.525
_cell_angle_alpha    69.9247
_cell_angle_beta     76.8507
_cell_angle_gamma    67.7453

_space_group_name_H-M_alt    "P 1"
_space_group_IT_number       1

loop_
  _space_group_symop_operation_xyz
  'x, y, z'

loop_
  _atom_site_type_symbol
  _atom_site_label
  _atom_site_symmetry_multiplicity
  _atom_site_fract_x
  _atom_site_fract_y
  _atom_site_fract_z
  _atom_site_occupancy
  Co  Co1       1.0  0.50000  1.00000  0.50000  1.0000
  Co  Co2       1.0  0.00000  0.50000  0.50000  1.0000
  H   H1        1.0  0.86738  0.42765  0.04714  1.0000
  H   H2        1.0  0.13261  0.57235  0.95286  1.0000
  H   H3        1.0  0.36622  0.88529  0.03098  1.0000
  H   H4        1.0  0.63378  0.11472  0.96902  1.0000
  H   H5        1.0  0.93086  0.29464  0.91851  1.0000
  H   H6        1.0  0.06914  0.70536  0.08149  1.0000
  H   H7        1.0  0.11988  0.32544  0.88398  1.0000
  H   H8        1.0  0.88011  0.67457  0.11602  1.0000
  H   H9        1.0  0.89845  0.45692  0.20512  1.0000
  H   H10       1.0  0.10155  0.54308  0.79488  1.0000
  H   H11       1.0  0.06782  0.29605  0.22504  1.0000
  H   H12       1.0  0.93218  0.70395  0.77496  1.0000
  H   H13       1.0  0.81001  0.17568  0.15670  1.0000
  H   H14       1.0  0.19000  0.82432  0.84331  1.0000
  H   H15       1.0  0.63521  0.04522  0.27954  1.0000
  H   H16       1.0  0.36479  0.95477  0.72046  1.0000
  H   H17       1.0  0.66516  0.17958  0.52713  1.0000
  H   H18       1.0  0.33485  0.82042  0.47287  1.0000
  H   H19       1.0  0.83827  0.32173  0.41213  1.0000
  H   H20       1.0  0.16173  0.67827  0.58788  1.0000
  H   H21       1.0  0.42663  0.75940  0.91032  1.0000
  H   H22       1.0  0.57337  0.24061  0.08968  1.0000
  H   H23       1.0  0.61656  0.78752  0.87092  1.0000
  H   H24       1.0  0.38343  0.21249  0.12908  1.0000
  H   H25       1.0  0.40513  0.94338  0.17502  1.0000
  H   H26       1.0  0.59487  0.05662  0.82499  1.0000
  H   H27       1.0  0.57546  0.78195  0.20277  1.0000
  H   H28       1.0  0.42453  0.21805  0.79723  1.0000
  H   H29       1.0  0.53088  0.54197  0.29500  1.0000
  H   H30       1.0  0.46912  0.45803  0.70500  1.0000
  H   H31       1.0  0.34573  0.41936  0.42129  1.0000
  H   H32       1.0  0.65427  0.58064  0.57871  1.0000
  H   H33       1.0  0.96075  0.80170  0.38410  1.0000
  H   H34       1.0  0.03925  0.19830  0.61590  1.0000
  H   H35       1.0  0.13111  0.93999  0.25566  1.0000
  H   H36       1.0  0.86888  0.06001  0.74434  1.0000
  C   C1        1.0  0.31968  0.23990  0.60299  1.0000
  C   C2        1.0  0.68032  0.76010  0.39701  1.0000
  C   C3        1.0  0.17922  0.25804  0.40002  1.0000
  C   C4        1.0  0.82079  0.74196  0.59998  1.0000
  C   C5        1.0  0.13882  0.11160  0.92184  1.0000
  C   C6        1.0  0.86118  0.88841  0.07816  1.0000
  C   C7        1.0  0.05607  0.25196  0.93817  1.0000
  C   C8        1.0  0.94392  0.74805  0.06183  1.0000
  C   C9        1.0  0.06654  0.24252  0.05248  1.0000
  C   C10       1.0  0.93345  0.75748  0.94752  1.0000
  C   C11       1.0  0.94607  0.34640  0.19937  1.0000
  C   C12       1.0  0.05393  0.65360  0.80063  1.0000
  C   C13       1.0  0.83901  0.26316  0.27256  1.0000
  C   C14       1.0  0.16099  0.73684  0.72744  1.0000
  C   C15       1.0  0.78013  0.18278  0.23753  1.0000
  C   C16       1.0  0.21988  0.81721  0.76247  1.0000
  C   C17       1.0  0.68195  0.10764  0.30639  1.0000
  C   C18       1.0  0.31806  0.89235  0.69361  1.0000
  C   C19       1.0  0.69867  0.18317  0.44407  1.0000
  C   C20       1.0  0.30134  0.81683  0.55593  1.0000
  C   C21       1.0  0.79623  0.26193  0.37903  1.0000
  C   C22       1.0  0.20378  0.73807  0.62097  1.0000
  C   C23       1.0  0.62894  0.57454  0.90944  1.0000
  C   C24       1.0  0.37106  0.42547  0.09056  1.0000
  C   C25       1.0  0.55285  0.71490  0.92706  1.0000
  C   C26       1.0  0.44715  0.28511  0.07294  1.0000
  C   C27       1.0  0.56721  0.70706  0.04010  1.0000
  C   C28       1.0  0.43279  0.29295  0.95990  1.0000
  C   C29       1.0  0.45187  0.82840  0.18078  1.0000
  C   C30       1.0  0.54813  0.17160  0.81922  1.0000
  C   C31       1.0  0.34538  0.75149  0.26282  1.0000
  C   C32       1.0  0.65462  0.24851  0.73718  1.0000
  C   C33       1.0  0.40494  0.60363  0.31210  1.0000
  C   C34       1.0  0.59506  0.39637  0.68790  1.0000
  C   C35       1.0  0.30231  0.53434  0.38292  1.0000
  C   C36       1.0  0.69769  0.46566  0.61708  1.0000
  C   C37       1.0  0.08721  0.74797  0.36171  1.0000
  C   C38       1.0  0.91279  0.25202  0.63829  1.0000
  C   C39       1.0  0.18315  0.82423  0.29018  1.0000
  C   C40       1.0  0.81684  0.17577  0.70982  1.0000
  S   S1        1.0  0.20258  0.37498  0.64717  1.0000
  S   S2        1.0  0.79742  0.62502  0.35283  1.0000
  S   S3        1.0  0.29221  0.12152  0.35651  1.0000
  S   S4        1.0  0.70780  0.87848  0.64349  1.0000
  N   N1        1.0  0.40000  0.14417  0.56638  1.0000
  N   N2        1.0  0.60000  0.85583  0.43362  1.0000
  N   N3        1.0  0.09787  0.35553  0.43437  1.0000
  N   N4        1.0  0.90214  0.64446  0.56563  1.0000
  N   N5        1.0  0.64035  0.10707  0.40878  1.0000
  N   N6        1.0  0.35966  0.89292  0.59122  1.0000
  N   N7        1.0  0.95831  0.35085  0.08945  1.0000
  N   N8        1.0  0.04168  0.64915  0.91055  1.0000
  N   N9        1.0  0.20973  0.99639  0.91338  1.0000
  N   N10       1.0  0.79027  0.00361  0.08662  1.0000
  N   N11       1.0  0.14446  0.60440  0.40701  1.0000
  N   N12       1.0  0.85554  0.39560  0.59299  1.0000
  N   N13       1.0  0.45754  0.81531  0.07566  1.0000
  N   N14       1.0  0.54246  0.18469  0.92434  1.0000
  N   N15       1.0  0.69308  0.46022  0.89776  1.0000
  N   N16       1.0  0.30692  0.53979  0.10224  1.0000
  O   O1        1.0  0.17095  0.14156  0.10495  1.0000
  O   O2        1.0  0.82904  0.85845  0.89504  1.0000
  O   O3        1.0  0.67730  0.60998  0.09041  1.0000
  O   O4        1.0  0.32270  0.39003  0.90959  1.0000
