data_image0
_chemical_formula_structural       Fe6H12C24O18
_chemical_formula_sum              "Fe6 H12 C24 O18"
_cell_length_a       7.01582
_cell_length_b       15.0206
_cell_length_c       15.0463
_cell_angle_alpha    117.817
_cell_angle_beta     99.2511
_cell_angle_gamma    98.3438

_space_group_name_H-M_alt    "P 1"
_space_group_IT_number       1

loop_
  _space_group_symop_operation_xyz
  'x, y, z'

loop_
  _atom_site_type_symbol
  _atom_site_label
  _atom_site_symmetry_multiplicity
  _atom_site_fract_x
  _atom_site_fract_y
  _atom_site_fract_z
  _atom_site_occupancy
  Fe  Fe1       1.0  0.47674  0.26154  0.58430  1.0000
  Fe  Fe2       1.0  0.21062  0.32294  0.73574  1.0000
  Fe  Fe3       1.0  0.89465  0.41676  0.67843  1.0000
  Fe  Fe4       1.0  0.52272  0.73844  0.41580  1.0000
  Fe  Fe5       1.0  0.78837  0.67666  0.26378  1.0000
  Fe  Fe6       1.0  0.10636  0.58300  0.32155  1.0000
  H   H1        1.0  0.18676  0.55208  0.52771  1.0000
  H   H2        1.0  0.63463  0.97598  0.44556  1.0000
  H   H3        1.0  0.65997  0.47008  0.02277  1.0000
  H   H4        1.0  0.81620  0.44934  0.47361  1.0000
  H   H5        1.0  0.36292  0.02362  0.55442  1.0000
  H   H6        1.0  0.33992  0.52999  0.97687  1.0000
  H   H7        1.0  0.65748  0.77712  0.52295  1.0000
  H   H8        1.0  0.88232  0.74329  0.22346  1.0000
  H   H9        1.0  0.13328  0.47434  0.25985  1.0000
  H   H10       1.0  0.34441  0.22276  0.47652  1.0000
  H   H11       1.0  0.11691  0.25721  0.77695  1.0000
  H   H12       1.0  0.86676  0.52509  0.74046  1.0000
  C   C1        1.0  0.26831  0.43974  0.61459  1.0000
  C   C2        1.0  0.82208  0.17518  0.55812  1.0000
  C   C3        1.0  0.65091  0.38484  0.82353  1.0000
  C   C4        1.0  0.73340  0.56045  0.38552  1.0000
  C   C5        1.0  0.17574  0.82455  0.44126  1.0000
  C   C6        1.0  0.34904  0.61479  0.17609  1.0000
  C   C7        1.0  0.39054  0.46850  0.55589  1.0000
  C   C8        1.0  0.91765  0.08750  0.53233  1.0000
  C   C9        1.0  0.83322  0.44491  0.91167  1.0000
  C   C10       1.0  0.61201  0.53256  0.44510  1.0000
  C   C11       1.0  0.07993  0.91214  0.46755  1.0000
  C   C12       1.0  0.16675  0.55497  0.08800  1.0000
  C   C13       1.0  0.57212  0.43950  0.54065  1.0000
  C   C14       1.0  0.12755  0.10139  0.56413  1.0000
  C   C15       1.0  0.02914  0.46218  0.89871  1.0000
  C   C16       1.0  0.43057  0.56174  0.46049  1.0000
  C   C17       1.0  0.87002  0.89820  0.43599  1.0000
  C   C18       1.0  0.97083  0.53772  0.10100  1.0000
  C   C19       1.0  0.32473  0.52908  0.51547  1.0000
  C   C20       1.0  0.79489  0.98640  0.46985  1.0000
  C   C21       1.0  0.80960  0.48355  0.01261  1.0000
  C   C22       1.0  0.67818  0.47230  0.48583  1.0000
  C   C23       1.0  0.20269  0.01322  0.53018  1.0000
  C   C24       1.0  0.19033  0.51643  0.98705  1.0000
  O   O1        1.0  0.33029  0.38488  0.65339  1.0000
  O   O2        1.0  0.93588  0.26749  0.60389  1.0000
  O   O3        1.0  0.67604  0.33789  0.73120  1.0000
  O   O4        1.0  0.66931  0.61355  0.34508  1.0000
  O   O5        1.0  0.06241  0.73210  0.39508  1.0000
  O   O6        1.0  0.32457  0.66051  0.26864  1.0000
  O   O7        1.0  0.10983  0.47000  0.62637  1.0000
  O   O8        1.0  0.63127  0.15549  0.53149  1.0000
  O   O9        1.0  0.48084  0.38095  0.84294  1.0000
  O   O10       1.0  0.89286  0.53091  0.37474  1.0000
  O   O11       1.0  0.36654  0.84429  0.46770  1.0000
  O   O12       1.0  0.51901  0.61964  0.15658  1.0000
  O   O13       1.0  0.64652  0.38004  0.57592  1.0000
  O   O14       1.0  0.26070  0.19525  0.62688  1.0000
  O   O15       1.0  0.07027  0.43082  0.80469  1.0000
  O   O16       1.0  0.35562  0.62083  0.42479  1.0000
  O   O17       1.0  0.73690  0.80431  0.37328  1.0000
  O   O18       1.0  0.92987  0.56897  0.19498  1.0000
