data_image0
_chemical_formula_structural       CdH18C20S2N8O2
_chemical_formula_sum              "Cd1 H18 C20 S2 N8 O2"
_cell_length_a       5.91933
_cell_length_b       7.97562
_cell_length_c       12.776
_cell_angle_alpha    72.6762
_cell_angle_beta     87.4646
_cell_angle_gamma    82.4122

_space_group_name_H-M_alt    "P 1"
_space_group_IT_number       1

loop_
  _space_group_symop_operation_xyz
  'x, y, z'

loop_
  _atom_site_type_symbol
  _atom_site_label
  _atom_site_symmetry_multiplicity
  _atom_site_fract_x
  _atom_site_fract_y
  _atom_site_fract_z
  _atom_site_occupancy
  Cd  Cd1       1.0  0.50001  1.00000  1.00000  1.0000
  H   H1        1.0  0.48981  0.24054  0.50141  1.0000
  H   H2        1.0  0.51017  0.75946  0.49859  1.0000
  H   H3        1.0  0.72608  0.31828  0.60947  1.0000
  H   H4        1.0  0.27391  0.68171  0.39054  1.0000
  H   H5        1.0  0.86382  0.09770  0.64953  1.0000
  H   H6        1.0  0.13618  0.90231  0.35047  1.0000
  H   H7        1.0  0.38270  0.13540  0.36043  1.0000
  H   H8        1.0  0.61730  0.86459  0.63957  1.0000
  H   H9        1.0  0.67488  0.09411  0.32250  1.0000
  H   H10       1.0  0.32512  0.90589  0.67751  1.0000
  H   H11       1.0  0.86966  0.33684  0.19781  1.0000
  H   H12       1.0  0.13034  0.66314  0.80219  1.0000
  H   H13       1.0  0.82320  0.63803  0.06163  1.0000
  H   H14       1.0  0.17680  0.36196  0.93836  1.0000
  H   H15       1.0  0.15240  0.73758  0.15536  1.0000
  H   H16       1.0  0.84762  0.26242  0.84464  1.0000
  H   H17       1.0  0.16948  0.43814  0.29419  1.0000
  H   H18       1.0  0.83053  0.56187  0.70582  1.0000
  C   C1        1.0  0.97752  0.05424  0.12124  1.0000
  C   C2        1.0  0.02249  0.94575  0.87875  1.0000
  C   C3        1.0  0.08307  0.29022  0.59486  1.0000
  C   C4        1.0  0.91692  0.70979  0.40515  1.0000
  C   C5        1.0  0.86642  0.22891  0.58820  1.0000
  C   C6        1.0  0.13357  0.77110  0.41180  1.0000
  C   C7        1.0  0.83364  0.20901  0.47393  1.0000
  C   C8        1.0  0.16635  0.79102  0.52607  1.0000
  C   C9        1.0  0.54668  0.18818  0.34687  1.0000
  C   C10       1.0  0.45332  0.81182  0.65314  1.0000
  C   C11       1.0  0.52361  0.36485  0.25888  1.0000
  C   C12       1.0  0.47640  0.63514  0.74112  1.0000
  C   C13       1.0  0.70760  0.42159  0.19129  1.0000
  C   C14       1.0  0.29239  0.57841  0.80871  1.0000
  C   C15       1.0  0.68323  0.58927  0.11589  1.0000
  C   C16       1.0  0.31677  0.41073  0.88411  1.0000
  C   C17       1.0  0.30874  0.64493  0.16764  1.0000
  C   C18       1.0  0.69127  0.35507  0.83235  1.0000
  C   C19       1.0  0.31904  0.47911  0.24505  1.0000
  C   C20       1.0  0.68095  0.52089  0.75495  1.0000
  S   S1        1.0  0.21560  0.11639  0.14706  1.0000
  S   S2        1.0  0.78442  0.88360  0.85293  1.0000
  N   N1        1.0  0.80384  0.00695  0.10610  1.0000
  N   N2        1.0  0.19618  0.99304  0.89389  1.0000
  N   N3        1.0  0.48843  0.70054  0.10470  1.0000
  N   N4        1.0  0.51158  0.29945  0.89529  1.0000
  N   N5        1.0  0.61476  0.20588  0.45112  1.0000
  N   N6        1.0  0.38523  0.79412  0.54889  1.0000
  N   N7        1.0  0.26054  0.33691  0.59782  1.0000
  N   N8        1.0  0.73944  0.66310  0.40219  1.0000
  O   O1        1.0  0.99680  0.19065  0.41239  1.0000
  O   O2        1.0  0.00318  0.80936  0.58761  1.0000
