data_image0
_chemical_formula_structural       Cd2H36C40S4N16O4
_chemical_formula_sum              "Cd2 H36 C40 S4 N16 O4"
_cell_length_a       5.4874
_cell_length_b       9.05787
_cell_length_c       23.6447
_cell_angle_alpha    90.0002
_cell_angle_beta     90.0003
_cell_angle_gamma    102.853

_space_group_name_H-M_alt    "P 1"
_space_group_IT_number       1

loop_
  _space_group_symop_operation_xyz
  'x, y, z'

loop_
  _atom_site_type_symbol
  _atom_site_label
  _atom_site_symmetry_multiplicity
  _atom_site_fract_x
  _atom_site_fract_y
  _atom_site_fract_z
  _atom_site_occupancy
  Cd  Cd1       1.0  0.50002  0.50001  0.50000  1.0000
  Cd  Cd2       1.0  0.50001  0.00000  1.00000  1.0000
  H   H1        1.0  0.79089  0.71975  0.59333  1.0000
  H   H2        1.0  0.20912  0.78025  0.09332  1.0000
  H   H3        1.0  0.20913  0.28026  0.40668  1.0000
  H   H4        1.0  0.79088  0.21975  0.90667  1.0000
  H   H5        1.0  0.17182  0.76531  0.50038  1.0000
  H   H6        1.0  0.82819  0.73470  0.00038  1.0000
  H   H7        1.0  0.82821  0.23471  0.49962  1.0000
  H   H8        1.0  0.17180  0.26528  0.99961  1.0000
  H   H9        1.0  0.16511  0.01274  0.54663  1.0000
  H   H10       1.0  0.83489  0.48726  0.04663  1.0000
  H   H11       1.0  0.83490  0.98727  0.45337  1.0000
  H   H12       1.0  0.16509  0.51271  0.95337  1.0000
  H   H13       1.0  0.98438  0.90063  0.66200  1.0000
  H   H14       1.0  0.01562  0.59937  0.16200  1.0000
  H   H15       1.0  0.01562  0.09937  0.33800  1.0000
  H   H16       1.0  0.98438  0.40063  0.83800  1.0000
  H   H17       1.0  0.94224  0.09035  0.65633  1.0000
  H   H18       1.0  0.05775  0.40965  0.15632  1.0000
  H   H19       1.0  0.05777  0.90965  0.34368  1.0000
  H   H20       1.0  0.94223  0.59035  0.84368  1.0000
  H   H21       1.0  0.48373  0.11206  0.62173  1.0000
  H   H22       1.0  0.51625  0.38793  0.12172  1.0000
  H   H23       1.0  0.51627  0.88794  0.37828  1.0000
  H   H24       1.0  0.48371  0.61205  0.87828  1.0000
  H   H25       1.0  0.69382  0.85171  0.73753  1.0000
  H   H26       1.0  0.30618  0.64829  0.23753  1.0000
  H   H27       1.0  0.30618  0.14829  0.26247  1.0000
  H   H28       1.0  0.69382  0.35171  0.76247  1.0000
  H   H29       1.0  0.44669  0.90275  0.80350  1.0000
  H   H30       1.0  0.55332  0.59725  0.30350  1.0000
  H   H31       1.0  0.55330  0.09725  0.19650  1.0000
  H   H32       1.0  0.44668  0.40275  0.69650  1.0000
  H   H33       1.0  0.65971  0.06181  0.83060  1.0000
  H   H34       1.0  0.34029  0.43819  0.33060  1.0000
  H   H35       1.0  0.34028  0.93819  0.16940  1.0000
  H   H36       1.0  0.65972  0.56181  0.66940  1.0000
  C   C1        1.0  0.97501  0.41870  0.57114  1.0000
  C   C2        1.0  0.02500  0.08130  0.07114  1.0000
  C   C3        1.0  0.02501  0.58132  0.42886  1.0000
  C   C4        1.0  0.97502  0.91868  0.92886  1.0000
  C   C5        1.0  0.65414  0.78809  0.58474  1.0000
  C   C6        1.0  0.34586  0.71191  0.08474  1.0000
  C   C7        1.0  0.34587  0.21192  0.41526  1.0000
  C   C8        1.0  0.65413  0.28808  0.91526  1.0000
  C   C9        1.0  0.30951  0.81299  0.53240  1.0000
  C   C10       1.0  0.69049  0.68701  0.03239  1.0000
  C   C11       1.0  0.69050  0.18702  0.46760  1.0000
  C   C12       1.0  0.30950  0.31297  0.96760  1.0000
  C   C13       1.0  0.66037  0.92251  0.61412  1.0000
  C   C14       1.0  0.33963  0.57748  0.11412  1.0000
  C   C15       1.0  0.33964  0.07750  0.38588  1.0000
  C   C16       1.0  0.66035  0.42251  0.88588  1.0000
  C   C17       1.0  0.30535  0.95016  0.55859  1.0000
  C   C18       1.0  0.69464  0.54983  0.05859  1.0000
  C   C19       1.0  0.69466  0.04985  0.44141  1.0000
  C   C20       1.0  0.30533  0.45014  0.94141  1.0000
  C   C21       1.0  0.84562  0.97114  0.66163  1.0000
  C   C22       1.0  0.15438  0.52886  0.16163  1.0000
  C   C23       1.0  0.15439  0.02886  0.33837  1.0000
  C   C24       1.0  0.84561  0.47114  0.83837  1.0000
  C   C25       1.0  0.48245  0.00580  0.59991  1.0000
  C   C26       1.0  0.51754  0.49420  0.09990  1.0000
  C   C27       1.0  0.51755  0.99421  0.40010  1.0000
  C   C28       1.0  0.48244  0.50578  0.90010  1.0000
  C   C29       1.0  0.63258  0.06575  0.74014  1.0000
  C   C30       1.0  0.36743  0.43425  0.24014  1.0000
  C   C31       1.0  0.36741  0.93426  0.25986  1.0000
  C   C32       1.0  0.63258  0.56574  0.75986  1.0000
  C   C33       1.0  0.51305  0.02577  0.79839  1.0000
  C   C34       1.0  0.48694  0.47424  0.29839  1.0000
  C   C35       1.0  0.48693  0.97424  0.20161  1.0000
  C   C36       1.0  0.51306  0.52576  0.70161  1.0000
  C   C37       1.0  0.30861  0.10022  0.80854  1.0000
  C   C38       1.0  0.69140  0.39978  0.30854  1.0000
  C   C39       1.0  0.69138  0.89980  0.19147  1.0000
  C   C40       1.0  0.30861  0.60021  0.69146  1.0000
  S   S1        1.0  0.80266  0.66966  0.41721  1.0000
  S   S2        1.0  0.19735  0.83034  0.91721  1.0000
  S   S3        1.0  0.19735  0.33035  0.58279  1.0000
  S   S4        1.0  0.80266  0.16965  0.08279  1.0000
  N   N1        1.0  0.81567  0.48472  0.56172  1.0000
  N   N2        1.0  0.18434  0.01528  0.06172  1.0000
  N   N3        1.0  0.18435  0.51529  0.43828  1.0000
  N   N4        1.0  0.81567  0.98471  0.93828  1.0000
  N   N5        1.0  0.48237  0.73377  0.54492  1.0000
  N   N6        1.0  0.51764  0.76624  0.04492  1.0000
  N   N7        1.0  0.51765  0.26625  0.45508  1.0000
  N   N8        1.0  0.48235  0.23375  0.95508  1.0000
  N   N9        1.0  0.72056  0.95450  0.71642  1.0000
  N   N10       1.0  0.27944  0.54550  0.21642  1.0000
  N   N11       1.0  0.27945  0.04551  0.28358  1.0000
  N   N12       1.0  0.72056  0.45450  0.78358  1.0000
  N   N13       1.0  0.14569  0.16143  0.81586  1.0000
  N   N14       1.0  0.85432  0.33857  0.31585  1.0000
  N   N15       1.0  0.85432  0.83857  0.18415  1.0000
  N   N16       1.0  0.14568  0.66143  0.68415  1.0000
  O   O1        1.0  0.64851  0.19339  0.71835  1.0000
  O   O2        1.0  0.35148  0.30660  0.21835  1.0000
  O   O3        1.0  0.35147  0.80660  0.28165  1.0000
  O   O4        1.0  0.64853  0.69341  0.78165  1.0000
