data_image0
_chemical_formula_structural       Cu4H24C24N24O12
_chemical_formula_sum              "Cu4 H24 C24 N24 O12"
_cell_length_a       6.82264
_cell_length_b       9.3571
_cell_length_c       14.4121
_cell_angle_alpha    94.1715
_cell_angle_beta     90.0005
_cell_angle_gamma    89.9969

_space_group_name_H-M_alt    "P 1"
_space_group_IT_number       1

loop_
  _space_group_symop_operation_xyz
  'x, y, z'

loop_
  _atom_site_type_symbol
  _atom_site_label
  _atom_site_symmetry_multiplicity
  _atom_site_fract_x
  _atom_site_fract_y
  _atom_site_fract_z
  _atom_site_occupancy
  Cu  Cu1       1.0  0.48689  0.52927  0.64009  1.0000
  Cu  Cu2       1.0  0.98690  0.97073  0.85991  1.0000
  Cu  Cu3       1.0  0.51312  0.47073  0.35991  1.0000
  Cu  Cu4       1.0  0.01311  0.02927  0.14009  1.0000
  H   H1        1.0  0.24488  0.72950  0.78074  1.0000
  H   H2        1.0  0.74487  0.77049  0.71925  1.0000
  H   H3        1.0  0.75512  0.27050  0.21926  1.0000
  H   H4        1.0  0.25513  0.22951  0.28075  1.0000
  H   H5        1.0  0.02980  0.10529  0.68259  1.0000
  H   H6        1.0  0.52980  0.39472  0.81741  1.0000
  H   H7        1.0  0.97020  0.89471  0.31741  1.0000
  H   H8        1.0  0.47020  0.60528  0.18259  1.0000
  H   H9        1.0  0.20337  0.04793  0.52940  1.0000
  H   H10       1.0  0.70337  0.45208  0.97059  1.0000
  H   H11       1.0  0.79662  0.95207  0.47060  1.0000
  H   H12       1.0  0.29663  0.54792  0.02940  1.0000
  H   H13       1.0  0.39842  0.81631  0.51169  1.0000
  H   H14       1.0  0.89842  0.68368  0.98830  1.0000
  H   H15       1.0  0.60156  0.18369  0.48831  1.0000
  H   H16       1.0  0.10159  0.31632  0.01169  1.0000
  H   H17       1.0  0.55346  0.22124  0.68103  1.0000
  H   H18       1.0  0.05346  0.27876  0.81898  1.0000
  H   H19       1.0  0.44654  0.77876  0.31898  1.0000
  H   H20       1.0  0.94654  0.72123  0.18102  1.0000
  H   H21       1.0  0.74794  0.29165  0.64979  1.0000
  H   H22       1.0  0.24794  0.20835  0.85021  1.0000
  H   H23       1.0  0.25206  0.70835  0.35021  1.0000
  H   H24       1.0  0.75206  0.79165  0.14979  1.0000
  C   C1        1.0  0.85062  0.61170  0.42693  1.0000
  C   C2        1.0  0.35062  0.88829  0.07307  1.0000
  C   C3        1.0  0.14939  0.38830  0.57308  1.0000
  C   C4        1.0  0.64939  0.11171  0.92693  1.0000
  C   C5        1.0  0.87961  0.59919  0.32477  1.0000
  C   C6        1.0  0.37964  0.90080  0.17524  1.0000
  C   C7        1.0  0.12039  0.40081  0.67524  1.0000
  C   C8        1.0  0.62036  0.09920  0.82476  1.0000
  C   C9        1.0  0.23809  0.80126  0.72481  1.0000
  C   C10       1.0  0.73809  0.69874  0.77519  1.0000
  C   C11       1.0  0.76191  0.19874  0.27520  1.0000
  C   C12       1.0  0.26191  0.30127  0.22481  1.0000
  C   C13       1.0  0.11967  0.00970  0.66978  1.0000
  C   C14       1.0  0.61968  0.49031  0.83022  1.0000
  C   C15       1.0  0.88032  0.99031  0.33022  1.0000
  C   C16       1.0  0.38032  0.50970  0.16978  1.0000
  C   C17       1.0  0.21610  0.97762  0.58606  1.0000
  C   C18       1.0  0.71611  0.52238  0.91394  1.0000
  C   C19       1.0  0.78389  0.02238  0.41394  1.0000
  C   C20       1.0  0.28389  0.47762  0.08606  1.0000
  C   C21       1.0  0.32471  0.85130  0.57687  1.0000
  C   C22       1.0  0.82471  0.64870  0.92313  1.0000
  C   C23       1.0  0.67527  0.14871  0.42314  1.0000
  C   C24       1.0  0.17529  0.35130  0.07687  1.0000
  N   N1        1.0  0.95520  0.68145  0.49476  1.0000
  N   N2        1.0  0.45522  0.81854  0.00524  1.0000
  N   N3        1.0  0.04480  0.31855  0.50524  1.0000
  N   N4        1.0  0.54478  0.18146  0.99476  1.0000
  N   N5        1.0  0.85746  0.66211  0.57331  1.0000
  N   N6        1.0  0.35748  0.83788  0.92669  1.0000
  N   N7        1.0  0.14253  0.33788  0.42669  1.0000
  N   N8        1.0  0.64252  0.16212  0.07331  1.0000
  N   N9        1.0  0.69802  0.58347  0.55288  1.0000
  N   N10       1.0  0.19802  0.91653  0.94712  1.0000
  N   N11       1.0  0.30198  0.41653  0.44713  1.0000
  N   N12       1.0  0.80198  0.08347  0.05287  1.0000
  N   N13       1.0  0.69110  0.55077  0.46151  1.0000
  N   N14       1.0  0.19110  0.94923  0.03849  1.0000
  N   N15       1.0  0.30890  0.44923  0.53849  1.0000
  N   N16       1.0  0.80891  0.05077  0.96151  1.0000
  N   N17       1.0  0.33616  0.76413  0.64675  1.0000
  N   N18       1.0  0.83616  0.73586  0.85324  1.0000
  N   N19       1.0  0.66383  0.23587  0.35325  1.0000
  N   N20       1.0  0.16385  0.26414  0.14675  1.0000
  N   N21       1.0  0.13149  0.92119  0.73938  1.0000
  N   N22       1.0  0.63148  0.57881  0.76062  1.0000
  N   N23       1.0  0.86852  0.07880  0.26062  1.0000
  N   N24       1.0  0.36852  0.42119  0.23938  1.0000
  O   O1        1.0  0.74058  0.53330  0.27915  1.0000
  O   O2        1.0  0.24056  0.96670  0.22085  1.0000
  O   O3        1.0  0.25943  0.46671  0.72085  1.0000
  O   O4        1.0  0.75944  0.03329  0.77914  1.0000
  O   O5        1.0  0.02693  0.65356  0.28839  1.0000
  O   O6        1.0  0.52691  0.84645  0.21162  1.0000
  O   O7        1.0  0.97310  0.34646  0.71162  1.0000
  O   O8        1.0  0.47310  0.15354  0.78838  1.0000
  O   O9        1.0  0.60945  0.27668  0.63148  1.0000
  O   O10       1.0  0.10944  0.22332  0.86852  1.0000
  O   O11       1.0  0.39054  0.72333  0.36853  1.0000
  O   O12       1.0  0.89055  0.77666  0.13148  1.0000
