data_image0
_chemical_formula_structural       Cu2H8C12N12O4
_chemical_formula_sum              "Cu2 H8 C12 N12 O4"
_cell_length_a       5.94206
_cell_length_b       6.85813
_cell_length_c       10.4249
_cell_angle_alpha    89.9984
_cell_angle_beta     88.2645
_cell_angle_gamma    89.9982

_space_group_name_H-M_alt    "P 1"
_space_group_IT_number       1

loop_
  _space_group_symop_operation_xyz
  'x, y, z'

loop_
  _atom_site_type_symbol
  _atom_site_label
  _atom_site_symmetry_multiplicity
  _atom_site_fract_x
  _atom_site_fract_y
  _atom_site_fract_z
  _atom_site_occupancy
  Cu  Cu1       1.0  0.59351  0.24998  0.75261  1.0000
  Cu  Cu2       1.0  0.40649  0.75002  0.24739  1.0000
  H   H1        1.0  0.35953  0.56924  0.61205  1.0000
  H   H2        1.0  0.64049  0.06926  0.38796  1.0000
  H   H3        1.0  0.64047  0.43076  0.38795  1.0000
  H   H4        1.0  0.35952  0.93074  0.61204  1.0000
  H   H5        1.0  0.82940  0.56692  0.90139  1.0000
  H   H6        1.0  0.17061  0.06697  0.09861  1.0000
  H   H7        1.0  0.17060  0.43308  0.09861  1.0000
  H   H8        1.0  0.82940  0.93303  0.90139  1.0000
  C   C1        1.0  0.12660  0.24998  0.84004  1.0000
  C   C2        1.0  0.87340  0.75002  0.15996  1.0000
  C   C3        1.0  0.08477  0.24999  0.69995  1.0000
  C   C4        1.0  0.91522  0.75002  0.30005  1.0000
  C   C5        1.0  0.46406  0.64879  0.67780  1.0000
  C   C6        1.0  0.53594  0.14880  0.32221  1.0000
  C   C7        1.0  0.53595  0.35121  0.32220  1.0000
  C   C8        1.0  0.46407  0.85120  0.67779  1.0000
  C   C9        1.0  0.72473  0.64829  0.83630  1.0000
  C   C10       1.0  0.27527  0.14833  0.16369  1.0000
  C   C11       1.0  0.27528  0.35172  0.16370  1.0000
  C   C12       1.0  0.72473  0.85167  0.83630  1.0000
  N   N1        1.0  0.24106  0.24999  0.60454  1.0000
  N   N2        1.0  0.75893  0.75001  0.39546  1.0000
  N   N3        1.0  0.12532  0.24999  0.49483  1.0000
  N   N4        1.0  0.87467  0.75001  0.50517  1.0000
  N   N5        1.0  0.90678  0.24999  0.52279  1.0000
  N   N6        1.0  0.09322  0.75002  0.47721  1.0000
  N   N7        1.0  0.87807  0.24998  0.65069  1.0000
  N   N8        1.0  0.12192  0.75003  0.34931  1.0000
  N   N9        1.0  0.59354  0.54779  0.75720  1.0000
  N   N10       1.0  0.40645  0.04781  0.24280  1.0000
  N   N11       1.0  0.40646  0.45221  0.24280  1.0000
  N   N12       1.0  0.59356  0.95218  0.75720  1.0000
  O   O1        1.0  0.33341  0.24997  0.87457  1.0000
  O   O2        1.0  0.66658  0.75001  0.12544  1.0000
  O   O3        1.0  0.95996  0.24998  0.91686  1.0000
  O   O4        1.0  0.04005  0.75002  0.08315  1.0000
