data_image0
_chemical_formula_structural       Cu4H28C32N20O12
_chemical_formula_sum              "Cu4 H28 C32 N20 O12"
_cell_length_a       7.50378
_cell_length_b       10.0924
_cell_length_c       12.8878
_cell_angle_alpha    90
_cell_angle_beta     90
_cell_angle_gamma    97.8629

_space_group_name_H-M_alt    "P 1"
_space_group_IT_number       1

loop_
  _space_group_symop_operation_xyz
  'x, y, z'

loop_
  _atom_site_type_symbol
  _atom_site_label
  _atom_site_symmetry_multiplicity
  _atom_site_fract_x
  _atom_site_fract_y
  _atom_site_fract_z
  _atom_site_occupancy
  Cu  Cu1       1.0  0.79855  0.36702  0.44751  1.0000
  Cu  Cu2       1.0  0.20145  0.13298  0.94751  1.0000
  Cu  Cu3       1.0  0.20145  0.63298  0.55249  1.0000
  Cu  Cu4       1.0  0.79855  0.86702  0.05249  1.0000
  H   H1        1.0  0.05947  0.95830  0.60866  1.0000
  H   H2        1.0  0.94053  0.54170  0.10866  1.0000
  H   H3        1.0  0.94053  0.04170  0.39134  1.0000
  H   H4        1.0  0.05947  0.45830  0.89134  1.0000
  H   H5        1.0  0.64575  0.19453  0.63076  1.0000
  H   H6        1.0  0.35425  0.30547  0.13076  1.0000
  H   H7        1.0  0.35425  0.80547  0.36924  1.0000
  H   H8        1.0  0.64575  0.69454  0.86924  1.0000
  H   H9        1.0  0.35440  0.05239  0.66563  1.0000
  H   H10       1.0  0.64560  0.44761  0.16563  1.0000
  H   H11       1.0  0.64560  0.94761  0.33437  1.0000
  H   H12       1.0  0.35440  0.55239  0.83437  1.0000
  H   H13       1.0  0.19194  0.14395  0.35403  1.0000
  H   H14       1.0  0.80806  0.35604  0.85403  1.0000
  H   H15       1.0  0.80806  0.85605  0.64597  1.0000
  H   H16       1.0  0.19194  0.64395  0.14597  1.0000
  H   H17       1.0  0.48647  0.28351  0.33315  1.0000
  H   H18       1.0  0.51353  0.21649  0.83315  1.0000
  H   H19       1.0  0.51353  0.71649  0.66685  1.0000
  H   H20       1.0  0.48647  0.78351  0.16685  1.0000
  H   H21       1.0  0.56894  0.54988  0.35364  1.0000
  H   H22       1.0  0.43106  0.95012  0.85364  1.0000
  H   H23       1.0  0.43106  0.45012  0.64636  1.0000
  H   H24       1.0  0.56894  0.04988  0.14636  1.0000
  H   H25       1.0  0.77981  0.60433  0.34105  1.0000
  H   H26       1.0  0.22019  0.89567  0.84105  1.0000
  H   H27       1.0  0.22019  0.39566  0.65895  1.0000
  H   H28       1.0  0.77981  0.10434  0.15895  1.0000
  C   C1        1.0  0.94942  0.28083  0.26144  1.0000
  C   C2        1.0  0.05058  0.21916  0.76143  1.0000
  C   C3        1.0  0.05058  0.71917  0.73857  1.0000
  C   C4        1.0  0.94942  0.78084  0.23857  1.0000
  C   C5        1.0  0.08402  0.38792  0.30571  1.0000
  C   C6        1.0  0.91599  0.11208  0.80571  1.0000
  C   C7        1.0  0.91599  0.61208  0.69429  1.0000
  C   C8        1.0  0.08401  0.88792  0.19429  1.0000
  C   C9        1.0  0.07027  0.00817  0.53335  1.0000
  C   C10       1.0  0.92974  0.49182  0.03335  1.0000
  C   C11       1.0  0.92973  0.99183  0.46665  1.0000
  C   C12       1.0  0.07027  0.50817  0.96665  1.0000
  C   C13       1.0  0.53957  0.18320  0.57256  1.0000
  C   C14       1.0  0.46043  0.31680  0.07256  1.0000
  C   C15       1.0  0.46043  0.81680  0.42744  1.0000
  C   C16       1.0  0.53957  0.68320  0.92744  1.0000
  C   C17       1.0  0.37664  0.10324  0.59100  1.0000
  C   C18       1.0  0.62336  0.39676  0.09100  1.0000
  C   C19       1.0  0.62336  0.89676  0.40900  1.0000
  C   C20       1.0  0.37664  0.60324  0.90900  1.0000
  C   C21       1.0  0.24271  0.08897  0.51374  1.0000
  C   C22       1.0  0.75729  0.41103  0.01374  1.0000
  C   C23       1.0  0.75729  0.91103  0.48626  1.0000
  C   C24       1.0  0.24271  0.58897  0.98626  1.0000
  C   C25       1.0  0.28502  0.15468  0.41890  1.0000
  C   C26       1.0  0.71498  0.34532  0.91890  1.0000
  C   C27       1.0  0.71498  0.84533  0.58110  1.0000
  C   C28       1.0  0.28502  0.65468  0.08110  1.0000
  C   C29       1.0  0.44976  0.23232  0.40586  1.0000
  C   C30       1.0  0.55024  0.26768  0.90586  1.0000
  C   C31       1.0  0.55024  0.76768  0.59414  1.0000
  C   C32       1.0  0.44976  0.73232  0.09414  1.0000
  N   N1        1.0  0.04579  0.43863  0.39821  1.0000
  N   N2        1.0  0.95421  0.06137  0.89821  1.0000
  N   N3        1.0  0.95421  0.56137  0.60179  1.0000
  N   N4        1.0  0.04579  0.93863  0.10180  1.0000
  N   N5        1.0  0.18792  0.52664  0.42245  1.0000
  N   N6        1.0  0.81208  0.97336  0.92245  1.0000
  N   N7        1.0  0.81209  0.47336  0.57755  1.0000
  N   N8        1.0  0.18792  0.02664  0.07755  1.0000
  N   N9        1.0  0.31013  0.52872  0.34755  1.0000
  N   N10       1.0  0.68987  0.97128  0.84755  1.0000
  N   N11       1.0  0.68986  0.47128  0.65245  1.0000
  N   N12       1.0  0.31013  0.02872  0.15245  1.0000
  N   N13       1.0  0.24725  0.44230  0.27305  1.0000
  N   N14       1.0  0.75276  0.05770  0.77305  1.0000
  N   N15       1.0  0.75276  0.55770  0.72695  1.0000
  N   N16       1.0  0.24724  0.94230  0.22695  1.0000
  N   N17       1.0  0.57440  0.24830  0.48200  1.0000
  N   N18       1.0  0.42560  0.25170  0.98200  1.0000
  N   N19       1.0  0.42560  0.75170  0.51800  1.0000
  N   N20       1.0  0.57439  0.74830  0.01800  1.0000
  O   O1        1.0  0.81104  0.25022  0.32088  1.0000
  O   O2        1.0  0.18896  0.24978  0.82088  1.0000
  O   O3        1.0  0.18896  0.74978  0.67912  1.0000
  O   O4        1.0  0.81104  0.75022  0.17912  1.0000
  O   O5        1.0  0.97349  0.22550  0.17688  1.0000
  O   O6        1.0  0.02651  0.27450  0.67688  1.0000
  O   O7        1.0  0.02651  0.77450  0.82312  1.0000
  O   O8        1.0  0.97349  0.72550  0.32312  1.0000
  O   O9        1.0  0.69006  0.52289  0.34929  1.0000
  O   O10       1.0  0.30994  0.97712  0.84929  1.0000
  O   O11       1.0  0.30994  0.47711  0.65071  1.0000
  O   O12       1.0  0.69006  0.02289  0.15071  1.0000
