data_image0
_chemical_formula_structural       Cu4H24C28N24O12
_chemical_formula_sum              "Cu4 H24 C28 N24 O12"
_cell_length_a       7.58501
_cell_length_b       10.0517
_cell_length_c       12.7133
_cell_angle_alpha    90.0071
_cell_angle_beta     89.9903
_cell_angle_gamma    100.852

_space_group_name_H-M_alt    "P 1"
_space_group_IT_number       1

loop_
  _space_group_symop_operation_xyz
  'x, y, z'

loop_
  _atom_site_type_symbol
  _atom_site_label
  _atom_site_symmetry_multiplicity
  _atom_site_fract_x
  _atom_site_fract_y
  _atom_site_fract_z
  _atom_site_occupancy
  Cu  Cu1       1.0  0.79108  0.36565  0.44474  1.0000
  Cu  Cu2       1.0  0.20896  0.13439  0.94467  1.0000
  Cu  Cu3       1.0  0.20893  0.63433  0.55526  1.0000
  Cu  Cu4       1.0  0.79102  0.86562  0.05532  1.0000
  H   H1        1.0  0.63490  0.18064  0.62831  1.0000
  H   H2        1.0  0.36502  0.31930  0.12831  1.0000
  H   H3        1.0  0.36513  0.81936  0.37169  1.0000
  H   H4        1.0  0.63493  0.68065  0.87169  1.0000
  H   H5        1.0  0.33514  0.03337  0.66351  1.0000
  H   H6        1.0  0.66477  0.46656  0.16352  1.0000
  H   H7        1.0  0.66489  0.96663  0.33649  1.0000
  H   H8        1.0  0.33518  0.53342  0.83649  1.0000
  H   H9        1.0  0.16661  0.14271  0.35599  1.0000
  H   H10       1.0  0.83341  0.35735  0.85595  1.0000
  H   H11       1.0  0.83341  0.85730  0.64401  1.0000
  H   H12       1.0  0.16655  0.64264  0.14404  1.0000
  H   H13       1.0  0.47363  0.28558  0.33222  1.0000
  H   H14       1.0  0.52639  0.21450  0.83214  1.0000
  H   H15       1.0  0.52639  0.71443  0.66778  1.0000
  H   H16       1.0  0.47356  0.78546  0.16786  1.0000
  H   H17       1.0  0.56099  0.54802  0.35893  1.0000
  H   H18       1.0  0.43902  0.95201  0.85890  1.0000
  H   H19       1.0  0.43903  0.45199  0.64106  1.0000
  H   H20       1.0  0.56098  0.04798  0.14109  1.0000
  H   H21       1.0  0.77345  0.60593  0.34789  1.0000
  H   H22       1.0  0.22654  0.89413  0.84780  1.0000
  H   H23       1.0  0.22656  0.39410  0.65213  1.0000
  H   H24       1.0  0.77345  0.10586  0.15221  1.0000
  C   C1        1.0  0.93723  0.28362  0.25559  1.0000
  C   C2        1.0  0.06276  0.21635  0.75558  1.0000
  C   C3        1.0  0.06275  0.71636  0.74442  1.0000
  C   C4        1.0  0.93729  0.78370  0.24444  1.0000
  C   C5        1.0  0.07761  0.39006  0.30268  1.0000
  C   C6        1.0  0.92236  0.10991  0.80268  1.0000
  C   C7        1.0  0.92237  0.60993  0.69731  1.0000
  C   C8        1.0  0.07769  0.89014  0.19731  1.0000
  C   C9        1.0  0.52699  0.17167  0.57070  1.0000
  C   C10       1.0  0.47294  0.32829  0.07068  1.0000
  C   C11       1.0  0.47303  0.82833  0.42930  1.0000
  C   C12       1.0  0.52701  0.67168  0.92932  1.0000
  C   C13       1.0  0.36072  0.08932  0.58977  1.0000
  C   C14       1.0  0.63922  0.41062  0.08977  1.0000
  C   C15       1.0  0.63930  0.91068  0.41023  1.0000
  C   C16       1.0  0.36074  0.58935  0.91023  1.0000
  C   C17       1.0  0.22739  0.08062  0.51258  1.0000
  C   C18       1.0  0.77259  0.41937  0.01257  1.0000
  C   C19       1.0  0.77262  0.91938  0.48743  1.0000
  C   C20       1.0  0.22739  0.58061  0.98743  1.0000
  C   C21       1.0  0.26670  0.15135  0.41787  1.0000
  C   C22       1.0  0.73330  0.34869  0.91783  1.0000
  C   C23       1.0  0.73332  0.84866  0.58213  1.0000
  C   C24       1.0  0.26666  0.65129  0.08217  1.0000
  C   C25       1.0  0.43537  0.22978  0.40454  1.0000
  C   C26       1.0  0.56464  0.27027  0.90447  1.0000
  C   C27       1.0  0.56465  0.77023  0.59546  1.0000
  C   C28       1.0  0.43532  0.72971  0.09552  1.0000
  N   N1        1.0  0.03998  0.44188  0.39559  1.0000
  N   N2        1.0  0.96004  0.05813  0.89560  1.0000
  N   N3        1.0  0.96002  0.55811  0.60441  1.0000
  N   N4        1.0  0.03999  0.94190  0.10439  1.0000
  N   N5        1.0  0.18559  0.53118  0.42149  1.0000
  N   N6        1.0  0.81437  0.96880  0.92152  1.0000
  N   N7        1.0  0.81442  0.46881  0.57850  1.0000
  N   N8        1.0  0.18562  0.03122  0.07846  1.0000
  N   N9        1.0  0.30948  0.53287  0.34720  1.0000
  N   N10       1.0  0.69052  0.96709  0.84725  1.0000
  N   N11       1.0  0.69051  0.46711  0.65278  1.0000
  N   N12       1.0  0.30951  0.03294  0.15272  1.0000
  N   N13       1.0  0.24420  0.44476  0.27149  1.0000
  N   N14       1.0  0.75582  0.05521  0.77151  1.0000
  N   N15       1.0  0.75578  0.55522  0.72849  1.0000
  N   N16       1.0  0.24424  0.94484  0.22846  1.0000
  N   N17       1.0  0.56232  0.24132  0.48024  1.0000
  N   N18       1.0  0.43767  0.25868  0.98019  1.0000
  N   N19       1.0  0.43770  0.75868  0.51977  1.0000
  N   N20       1.0  0.56230  0.74129  0.01981  1.0000
  N   N21       1.0  0.05897  0.99704  0.53465  1.0000
  N   N22       1.0  0.94101  0.50292  0.03466  1.0000
  N   N23       1.0  0.94105  0.00297  0.46536  1.0000
  N   N24       1.0  0.05894  0.49705  0.96534  1.0000
  O   O1        1.0  0.79426  0.25463  0.31263  1.0000
  O   O2        1.0  0.20573  0.24535  0.81262  1.0000
  O   O3        1.0  0.20573  0.74534  0.68739  1.0000
  O   O4        1.0  0.79432  0.75473  0.18743  1.0000
  O   O5        1.0  0.96116  0.22888  0.16979  1.0000
  O   O6        1.0  0.03892  0.27109  0.66977  1.0000
  O   O7        1.0  0.03879  0.77109  0.83022  1.0000
  O   O8        1.0  0.96117  0.72897  0.33024  1.0000
  O   O9        1.0  0.68006  0.52228  0.35608  1.0000
  O   O10       1.0  0.31997  0.97777  0.85596  1.0000
  O   O11       1.0  0.31996  0.47774  0.64392  1.0000
  O   O12       1.0  0.68003  0.02222  0.14404  1.0000
