data_image0
_chemical_formula_structural       Cd2H24C30N8O8
_chemical_formula_sum              "Cd2 H24 C30 N8 O8"
_cell_length_a       7.91568
_cell_length_b       9.55632
_cell_length_c       10.9138
_cell_angle_alpha    101.532
_cell_angle_beta     104.635
_cell_angle_gamma    104.327

_space_group_name_H-M_alt    "P 1"
_space_group_IT_number       1

loop_
  _space_group_symop_operation_xyz
  'x, y, z'

loop_
  _atom_site_type_symbol
  _atom_site_label
  _atom_site_symmetry_multiplicity
  _atom_site_fract_x
  _atom_site_fract_y
  _atom_site_fract_z
  _atom_site_occupancy
  Cd  Cd1       1.0  0.22149  0.34174  0.35121  1.0000
  Cd  Cd2       1.0  0.77851  0.65826  0.64879  1.0000
  H   H1        1.0  0.16469  0.50834  0.62536  1.0000
  H   H2        1.0  0.83531  0.49166  0.37464  1.0000
  H   H3        1.0  0.19422  0.06529  0.53620  1.0000
  H   H4        1.0  0.80579  0.93471  0.46380  1.0000
  H   H5        1.0  0.09820  0.11932  0.76424  1.0000
  H   H6        1.0  0.90180  0.88068  0.23576  1.0000
  H   H7        1.0  0.06854  0.52732  0.81247  1.0000
  H   H8        1.0  0.93146  0.47268  0.18753  1.0000
  H   H9        1.0  0.92210  0.35551  0.81779  1.0000
  H   H10       1.0  0.07790  0.64449  0.18222  1.0000
  H   H11       1.0  0.38728  0.64852  0.99877  1.0000
  H   H12       1.0  0.61273  0.35148  0.00123  1.0000
  H   H13       1.0  0.49442  0.60326  0.24793  1.0000
  H   H14       1.0  0.50559  0.39674  0.75208  1.0000
  H   H15       1.0  0.02637  0.24105  0.00375  1.0000
  H   H16       1.0  0.97364  0.75895  0.99626  1.0000
  H   H17       1.0  0.76597  0.91707  0.97416  1.0000
  H   H18       1.0  0.23403  0.08293  0.02584  1.0000
  H   H19       1.0  0.54870  0.22015  0.18653  1.0000
  H   H20       1.0  0.45130  0.77985  0.81346  1.0000
  H   H21       1.0  0.28564  0.80102  0.30034  1.0000
  H   H22       1.0  0.71436  0.19899  0.69966  1.0000
  H   H23       1.0  0.62041  0.93270  0.70606  1.0000
  H   H24       1.0  0.37958  0.06730  0.29394  1.0000
  C   C1        1.0  0.16157  0.39522  0.62918  1.0000
  C   C2        1.0  0.83843  0.60478  0.37082  1.0000
  C   C3        1.0  0.17463  0.16595  0.58847  1.0000
  C   C4        1.0  0.82536  0.83405  0.41153  1.0000
  C   C5        1.0  0.12873  0.19184  0.70226  1.0000
  C   C6        1.0  0.87127  0.80816  0.29774  1.0000
  C   C7        1.0  0.06384  0.41689  0.82829  1.0000
  C   C8        1.0  0.93616  0.58311  0.17171  1.0000
  C   C9        1.0  0.33104  0.55849  0.03800  1.0000
  C   C10       1.0  0.66896  0.44151  0.96201  1.0000
  C   C11       1.0  0.38223  0.53397  0.15990  1.0000
  C   C12       1.0  0.61777  0.46603  0.84010  1.0000
  C   C13       1.0  0.14094  0.34471  0.03858  1.0000
  C   C14       1.0  0.85907  0.65530  0.96142  1.0000
  C   C15       1.0  0.86653  0.15880  0.18590  1.0000
  C   C16       1.0  0.13347  0.84120  0.81410  1.0000
  C   C17       1.0  0.67677  0.07610  0.09061  1.0000
  C   C18       1.0  0.32322  0.92390  0.90939  1.0000
  C   C19       1.0  0.64831  0.95175  0.98557  1.0000
  C   C20       1.0  0.35169  0.04824  0.01443  1.0000
  C   C21       1.0  0.52695  0.12428  0.10419  1.0000
  C   C22       1.0  0.47305  0.87572  0.89581  1.0000
  C   C23       1.0  0.38705  0.68791  0.50557  1.0000
  C   C24       1.0  0.61295  0.31209  0.49443  1.0000
  C   C25       1.0  0.44394  0.84956  0.50360  1.0000
  C   C26       1.0  0.55606  0.15044  0.49640  1.0000
  C   C27       1.0  0.37798  0.88925  0.38805  1.0000
  C   C28       1.0  0.62202  0.11075  0.61195  1.0000
  C   C29       1.0  0.56747  0.96224  0.61595  1.0000
  C   C30       1.0  0.43253  0.03776  0.38405  1.0000
  N   N1        1.0  0.19446  0.29335  0.54397  1.0000
  N   N2        1.0  0.80554  0.70665  0.45603  1.0000
  N   N3        1.0  0.12228  0.33823  0.72690  1.0000
  N   N4        1.0  0.87772  0.66177  0.27310  1.0000
  N   N5        1.0  0.17726  0.43712  0.96182  1.0000
  N   N6        1.0  0.82274  0.56288  0.03818  1.0000
  N   N7        1.0  0.26253  0.40040  0.15878  1.0000
  N   N8        1.0  0.73747  0.59960  0.84122  1.0000
  O   O1        1.0  0.99358  0.09817  0.18923  1.0000
  O   O2        1.0  0.00642  0.90183  0.81077  1.0000
  O   O3        1.0  0.89429  0.29072  0.25835  1.0000
  O   O4        1.0  0.10571  0.70928  0.74164  1.0000
  O   O5        1.0  0.24940  0.59656  0.41051  1.0000
  O   O6        1.0  0.75060  0.40344  0.58949  1.0000
  O   O7        1.0  0.47778  0.65076  0.60109  1.0000
  O   O8        1.0  0.52221  0.34924  0.39891  1.0000
