data_image0
_chemical_formula_structural       Cd4H48C60N16O16
_chemical_formula_sum              "Cd4 H48 C60 N16 O16"
_cell_length_a       9.09159
_cell_length_b       10.1363
_cell_length_c       16.895
_cell_angle_alpha    103.926
_cell_angle_beta     90
_cell_angle_gamma    90

_space_group_name_H-M_alt    "P 1"
_space_group_IT_number       1

loop_
  _space_group_symop_operation_xyz
  'x, y, z'

loop_
  _atom_site_type_symbol
  _atom_site_label
  _atom_site_symmetry_multiplicity
  _atom_site_fract_x
  _atom_site_fract_y
  _atom_site_fract_z
  _atom_site_occupancy
  Cd  Cd1       1.0  0.11332  0.84000  0.93465  1.0000
  Cd  Cd2       1.0  0.61331  0.16000  0.56535  1.0000
  Cd  Cd3       1.0  0.88668  0.16000  0.06535  1.0000
  Cd  Cd4       1.0  0.38668  0.84000  0.43465  1.0000
  H   H1        1.0  0.46028  0.19602  0.07789  1.0000
  H   H2        1.0  0.96029  0.80397  0.42211  1.0000
  H   H3        1.0  0.53971  0.80397  0.92210  1.0000
  H   H4        1.0  0.03971  0.19602  0.57789  1.0000
  H   H5        1.0  0.53931  0.43737  0.13112  1.0000
  H   H6        1.0  0.03932  0.56262  0.36888  1.0000
  H   H7        1.0  0.46070  0.56262  0.86887  1.0000
  H   H8        1.0  0.96069  0.43737  0.63112  1.0000
  H   H9        1.0  0.40326  0.62283  0.08737  1.0000
  H   H10       1.0  0.90325  0.37717  0.41263  1.0000
  H   H11       1.0  0.59675  0.37717  0.91263  1.0000
  H   H12       1.0  0.09675  0.62283  0.58737  1.0000
  H   H13       1.0  0.10677  0.32730  0.94734  1.0000
  H   H14       1.0  0.60676  0.67270  0.55265  1.0000
  H   H15       1.0  0.89323  0.67271  0.05266  1.0000
  H   H16       1.0  0.39324  0.32729  0.44734  1.0000
  H   H17       1.0  0.81875  0.99224  0.85282  1.0000
  H   H18       1.0  0.31875  0.00776  0.64719  1.0000
  H   H19       1.0  0.18125  0.00776  0.14719  1.0000
  H   H20       1.0  0.68125  0.99224  0.35281  1.0000
  H   H21       1.0  0.73169  0.61249  0.68663  1.0000
  H   H22       1.0  0.23168  0.38751  0.81337  1.0000
  H   H23       1.0  0.26832  0.38751  0.31337  1.0000
  H   H24       1.0  0.76831  0.61248  0.18663  1.0000
  H   H25       1.0  0.96413  0.58546  0.79012  1.0000
  H   H26       1.0  0.46413  0.41454  0.70988  1.0000
  H   H27       1.0  0.03587  0.41453  0.20987  1.0000
  H   H28       1.0  0.53587  0.58546  0.29013  1.0000
  H   H29       1.0  0.20960  0.61730  0.74824  1.0000
  H   H30       1.0  0.70960  0.38271  0.75177  1.0000
  H   H31       1.0  0.79040  0.38271  0.25177  1.0000
  H   H32       1.0  0.29040  0.61730  0.24824  1.0000
  H   H33       1.0  0.45357  0.64571  0.65521  1.0000
  H   H34       1.0  0.95357  0.35428  0.84479  1.0000
  H   H35       1.0  0.54644  0.35429  0.34479  1.0000
  H   H36       1.0  0.04644  0.64571  0.15521  1.0000
  H   H37       1.0  0.43132  0.97802  0.86356  1.0000
  H   H38       1.0  0.93132  0.02198  0.63643  1.0000
  H   H39       1.0  0.56868  0.02198  0.13644  1.0000
  H   H40       1.0  0.06867  0.97802  0.36356  1.0000
  H   H41       1.0  0.62160  0.99181  0.75189  1.0000
  H   H42       1.0  0.12160  0.00819  0.74811  1.0000
  H   H43       1.0  0.37840  0.00819  0.24811  1.0000
  H   H44       1.0  0.87840  0.99181  0.25189  1.0000
  H   H45       1.0  0.62129  0.86117  0.66038  1.0000
  H   H46       1.0  0.12129  0.13883  0.83961  1.0000
  H   H47       1.0  0.37871  0.13883  0.33962  1.0000
  H   H48       1.0  0.87871  0.86116  0.16038  1.0000
  C   C1        1.0  0.22100  0.10508  0.98819  1.0000
  C   C2        1.0  0.72102  0.89492  0.51181  1.0000
  C   C3        1.0  0.77898  0.89493  0.01181  1.0000
  C   C4        1.0  0.27899  0.10507  0.48819  1.0000
  C   C5        1.0  0.27571  0.24780  0.01234  1.0000
  C   C6        1.0  0.77572  0.75220  0.48766  1.0000
  C   C7        1.0  0.72428  0.75220  0.98765  1.0000
  C   C8        1.0  0.22428  0.24780  0.51234  1.0000
  C   C9        1.0  0.39994  0.27899  0.06248  1.0000
  C   C10       1.0  0.89994  0.72100  0.43752  1.0000
  C   C11       1.0  0.60006  0.72100  0.93751  1.0000
  C   C12       1.0  0.10005  0.27900  0.56248  1.0000
  C   C13       1.0  0.44382  0.41364  0.09126  1.0000
  C   C14       1.0  0.94382  0.58635  0.40875  1.0000
  C   C15       1.0  0.55618  0.58635  0.90874  1.0000
  C   C16       1.0  0.05618  0.41365  0.59125  1.0000
  C   C17       1.0  0.36848  0.51722  0.06686  1.0000
  C   C18       1.0  0.86848  0.48278  0.43315  1.0000
  C   C19       1.0  0.63152  0.48278  0.93314  1.0000
  C   C20       1.0  0.13153  0.51722  0.56686  1.0000
  C   C21       1.0  0.25093  0.48565  0.01185  1.0000
  C   C22       1.0  0.75092  0.51435  0.48815  1.0000
  C   C23       1.0  0.74907  0.51435  0.98815  1.0000
  C   C24       1.0  0.24907  0.48565  0.51184  1.0000
  C   C25       1.0  0.20287  0.35126  0.98654  1.0000
  C   C26       1.0  0.70286  0.64873  0.51346  1.0000
  C   C27       1.0  0.79712  0.64873  0.01346  1.0000
  C   C28       1.0  0.29713  0.35126  0.48654  1.0000
  C   C29       1.0  0.18314  0.59270  0.97598  1.0000
  C   C30       1.0  0.68313  0.40730  0.52402  1.0000
  C   C31       1.0  0.81686  0.40730  0.02402  1.0000
  C   C32       1.0  0.31687  0.59270  0.47598  1.0000
  C   C33       1.0  0.83140  0.88609  0.82126  1.0000
  C   C34       1.0  0.33140  0.11391  0.67874  1.0000
  C   C35       1.0  0.16861  0.11390  0.17874  1.0000
  C   C36       1.0  0.66861  0.88609  0.32126  1.0000
  C   C37       1.0  0.78624  0.68616  0.73548  1.0000
  C   C38       1.0  0.28624  0.31384  0.76452  1.0000
  C   C39       1.0  0.21376  0.31384  0.26452  1.0000
  C   C40       1.0  0.71376  0.68616  0.23548  1.0000
  C   C41       1.0  0.90096  0.67427  0.78614  1.0000
  C   C42       1.0  0.40096  0.32573  0.71386  1.0000
  C   C43       1.0  0.09904  0.32572  0.21386  1.0000
  C   C44       1.0  0.59904  0.67427  0.28615  1.0000
  C   C45       1.0  0.29120  0.69741  0.75830  1.0000
  C   C46       1.0  0.79119  0.30259  0.74170  1.0000
  C   C47       1.0  0.70880  0.30260  0.24171  1.0000
  C   C48       1.0  0.20881  0.69741  0.25830  1.0000
  C   C49       1.0  0.41119  0.70999  0.71140  1.0000
  C   C50       1.0  0.91118  0.29001  0.78860  1.0000
  C   C51       1.0  0.58881  0.29002  0.28860  1.0000
  C   C52       1.0  0.08882  0.70998  0.21140  1.0000
  C   C53       1.0  0.39976  0.88562  0.81941  1.0000
  C   C54       1.0  0.89976  0.11438  0.68059  1.0000
  C   C55       1.0  0.60023  0.11439  0.18059  1.0000
  C   C56       1.0  0.10024  0.88562  0.31941  1.0000
  C   C57       1.0  0.61737  0.88153  0.72721  1.0000
  C   C58       1.0  0.11737  0.11847  0.77279  1.0000
  C   C59       1.0  0.38263  0.11847  0.27279  1.0000
  C   C60       1.0  0.88263  0.88153  0.22721  1.0000
  N   N1        1.0  0.92847  0.79933  0.83871  1.0000
  N   N2        1.0  0.42847  0.20067  0.66129  1.0000
  N   N3        1.0  0.07153  0.20066  0.16129  1.0000
  N   N4        1.0  0.57153  0.79933  0.33871  1.0000
  N   N5        1.0  0.74317  0.82139  0.75867  1.0000
  N   N6        1.0  0.24316  0.17862  0.74133  1.0000
  N   N7        1.0  0.25684  0.17861  0.24133  1.0000
  N   N8        1.0  0.75684  0.82138  0.25867  1.0000
  N   N9        1.0  0.28500  0.80742  0.82514  1.0000
  N   N10       1.0  0.78500  0.19258  0.67486  1.0000
  N   N11       1.0  0.71500  0.19259  0.17487  1.0000
  N   N12       1.0  0.21500  0.80742  0.32514  1.0000
  N   N13       1.0  0.47903  0.83031  0.75081  1.0000
  N   N14       1.0  0.97903  0.16970  0.74919  1.0000
  N   N15       1.0  0.52097  0.16970  0.24919  1.0000
  N   N16       1.0  0.02098  0.83030  0.25081  1.0000
  O   O1        1.0  0.09227  0.08380  0.95424  1.0000
  O   O2        1.0  0.59228  0.91620  0.54576  1.0000
  O   O3        1.0  0.90771  0.91620  0.04576  1.0000
  O   O4        1.0  0.40772  0.08379  0.45423  1.0000
  O   O5        1.0  0.29885  0.00940  0.00153  1.0000
  O   O6        1.0  0.79887  0.99060  0.49847  1.0000
  O   O7        1.0  0.70113  0.99060  0.99847  1.0000
  O   O8        1.0  0.20114  0.00940  0.50153  1.0000
  O   O9        1.0  0.12513  0.55842  0.90579  1.0000
  O   O10       1.0  0.62513  0.44158  0.59422  1.0000
  O   O11       1.0  0.87487  0.44158  0.09422  1.0000
  O   O12       1.0  0.37487  0.55842  0.40578  1.0000
  O   O13       1.0  0.19213  0.71607  0.01852  1.0000
  O   O14       1.0  0.69213  0.28394  0.48148  1.0000
  O   O15       1.0  0.80787  0.28394  0.98148  1.0000
  O   O16       1.0  0.30787  0.71606  0.51852  1.0000
