data_image0
_chemical_formula_structural       Cu6H24C24N36
_chemical_formula_sum              "Cu6 H24 C24 N36"
_cell_length_a       11.7742
_cell_length_b       11.7742
_cell_length_c       12.6502
_cell_angle_alpha    117.883
_cell_angle_beta     117.884
_cell_angle_gamma    89.7139

_space_group_name_H-M_alt    "P 1"
_space_group_IT_number       1

loop_
  _space_group_symop_operation_xyz
  'x, y, z'

loop_
  _atom_site_type_symbol
  _atom_site_label
  _atom_site_symmetry_multiplicity
  _atom_site_fract_x
  _atom_site_fract_y
  _atom_site_fract_z
  _atom_site_occupancy
  Cu  Cu1       1.0  0.87493  0.62503  0.75000  1.0000
  Cu  Cu2       1.0  0.12503  0.37492  0.25000  1.0000
  Cu  Cu3       1.0  0.00003  0.49995  0.49988  1.0000
  Cu  Cu4       1.0  0.50015  0.50007  0.50012  1.0000
  Cu  Cu5       1.0  0.00007  0.00015  0.00012  1.0000
  Cu  Cu6       1.0  0.99994  0.50004  0.99988  1.0000
  H   H1        1.0  0.71862  0.34904  0.19754  1.0000
  H   H2        1.0  0.47886  0.34817  0.19765  1.0000
  H   H3        1.0  0.84817  0.97885  0.69765  1.0000
  H   H4        1.0  0.84903  0.21861  0.69753  1.0000
  H   H5        1.0  0.28124  0.65099  0.80236  1.0000
  H   H6        1.0  0.52111  0.65197  0.80247  1.0000
  H   H7        1.0  0.15099  0.78124  0.30237  1.0000
  H   H8        1.0  0.15197  0.02111  0.30247  1.0000
  H   H9        1.0  0.15682  0.80823  0.62849  1.0000
  H   H10       1.0  0.47159  0.32060  0.62867  1.0000
  H   H11       1.0  0.30976  0.97054  0.12828  1.0000
  H   H12       1.0  0.81873  0.65784  0.12846  1.0000
  H   H13       1.0  0.84232  0.68138  0.37172  1.0000
  H   H14       1.0  0.52944  0.19015  0.37155  1.0000
  H   H15       1.0  0.69187  0.34326  0.87156  1.0000
  H   H16       1.0  0.17943  0.02846  0.87130  1.0000
  H   H17       1.0  0.84326  0.19185  0.37155  1.0000
  H   H18       1.0  0.52844  0.67942  0.37127  1.0000
  H   H19       1.0  0.69015  0.02943  0.87155  1.0000
  H   H20       1.0  0.18136  0.34230  0.87169  1.0000
  H   H21       1.0  0.15783  0.31872  0.62845  1.0000
  H   H22       1.0  0.47053  0.80976  0.62827  1.0000
  H   H23       1.0  0.30821  0.65681  0.12847  1.0000
  H   H24       1.0  0.82061  0.97158  0.12867  1.0000
  C   C1        1.0  0.69997  0.39135  0.28262  1.0000
  C   C2        1.0  0.58261  0.39090  0.28265  1.0000
  C   C3        1.0  0.89090  0.08261  0.78265  1.0000
  C   C4        1.0  0.89135  0.19996  0.78261  1.0000
  C   C5        1.0  0.29998  0.60864  0.71736  1.0000
  C   C6        1.0  0.41737  0.60912  0.71740  1.0000
  C   C7        1.0  0.10864  0.79998  0.21736  1.0000
  C   C8        1.0  0.10913  0.91737  0.21740  1.0000
  C   C9        1.0  0.11390  0.81615  0.69020  1.0000
  C   C10       1.0  0.57622  0.37441  0.69040  1.0000
  C   C11       1.0  0.31732  0.07527  0.19011  1.0000
  C   C12       1.0  0.87293  0.61482  0.19020  1.0000
  C   C13       1.0  0.88523  0.62711  0.30989  1.0000
  C   C14       1.0  0.42469  0.18263  0.30981  1.0000
  C   C15       1.0  0.68391  0.38614  0.80980  1.0000
  C   C16       1.0  0.12563  0.92383  0.80959  1.0000
  C   C17       1.0  0.88614  0.18390  0.30980  1.0000
  C   C18       1.0  0.42381  0.62562  0.30957  1.0000
  C   C19       1.0  0.68263  0.92469  0.80981  1.0000
  C   C20       1.0  0.12710  0.38521  0.80987  1.0000
  C   C21       1.0  0.11481  0.37293  0.69019  1.0000
  C   C22       1.0  0.57526  0.81732  0.69010  1.0000
  C   C23       1.0  0.31613  0.61389  0.19018  1.0000
  C   C24       1.0  0.87442  0.07621  0.19040  1.0000
  N   N1        1.0  0.75053  0.50046  0.50108  1.0000
  N   N2        1.0  0.00045  0.25052  0.00108  1.0000
  N   N3        1.0  0.24947  0.49939  0.49893  1.0000
  N   N4        1.0  0.99939  0.74947  0.99893  1.0000
  N   N5        1.0  0.99712  0.74723  0.75000  1.0000
  N   N6        1.0  0.75275  0.50285  0.75001  1.0000
  N   N7        1.0  0.24770  0.25215  0.25001  1.0000
  N   N8        1.0  0.00221  0.49759  0.24998  1.0000
  N   N9        1.0  0.00285  0.25274  0.25000  1.0000
  N   N10       1.0  0.24721  0.49712  0.25000  1.0000
  N   N11       1.0  0.75214  0.74770  0.75001  1.0000
  N   N12       1.0  0.99760  0.50222  0.74998  1.0000
  N   N13       1.0  0.80162  0.46006  0.41967  1.0000
  N   N14       1.0  0.61816  0.45942  0.41976  1.0000
  N   N15       1.0  0.95941  0.11816  0.91976  1.0000
  N   N16       1.0  0.96006  0.30161  0.91967  1.0000
  N   N17       1.0  0.19842  0.53981  0.58026  1.0000
  N   N18       1.0  0.38196  0.54053  0.58033  1.0000
  N   N19       1.0  0.03981  0.69843  0.08026  1.0000
  N   N20       1.0  0.04054  0.88196  0.08034  1.0000
  N   N21       1.0  0.03307  0.70748  0.65569  1.0000
  N   N22       1.0  0.62263  0.44844  0.65583  1.0000
  N   N23       1.0  0.20842  0.12211  0.15550  1.0000
  N   N24       1.0  0.94711  0.53329  0.15544  1.0000
  N   N25       1.0  0.96663  0.55277  0.34446  1.0000
  N   N26       1.0  0.37792  0.29157  0.34460  1.0000
  N   N27       1.0  0.79254  0.46699  0.84425  1.0000
  N   N28       1.0  0.05162  0.87750  0.84424  1.0000
  N   N29       1.0  0.96700  0.29253  0.34425  1.0000
  N   N30       1.0  0.37748  0.55161  0.34422  1.0000
  N   N31       1.0  0.79157  0.87791  0.84460  1.0000
  N   N32       1.0  0.05277  0.46662  0.84445  1.0000
  N   N33       1.0  0.03329  0.44711  0.65544  1.0000
  N   N34       1.0  0.62211  0.70841  0.65550  1.0000
  N   N35       1.0  0.20746  0.53306  0.15568  1.0000
  N   N36       1.0  0.94845  0.12262  0.15582  1.0000
