data_image0
_chemical_formula_structural       Cu4H32C24N32O4
_chemical_formula_sum              "Cu4 H32 C24 N32 O4"
_cell_length_a       7.85094
_cell_length_b       12.3845
_cell_length_c       12.3822
_cell_angle_alpha    90.0011
_cell_angle_beta     89.9992
_cell_angle_gamma    90.0001

_space_group_name_H-M_alt    "P 1"
_space_group_IT_number       1

loop_
  _space_group_symop_operation_xyz
  'x, y, z'

loop_
  _atom_site_type_symbol
  _atom_site_label
  _atom_site_symmetry_multiplicity
  _atom_site_fract_x
  _atom_site_fract_y
  _atom_site_fract_z
  _atom_site_occupancy
  Cu  Cu1       1.0  0.03022  0.67676  0.99017  1.0000
  Cu  Cu2       1.0  0.78015  0.01010  0.67685  1.0000
  Cu  Cu3       1.0  0.53023  0.32324  0.00983  1.0000
  Cu  Cu4       1.0  0.28014  0.98989  0.32315  1.0000
  H   H1        1.0  0.18839  0.90705  0.90112  1.0000
  H   H2        1.0  0.93692  0.09873  0.90703  1.0000
  H   H3        1.0  0.68840  0.09296  0.09889  1.0000
  H   H4        1.0  0.43693  0.90127  0.09298  1.0000
  H   H5        1.0  0.14355  0.95308  0.76935  1.0000
  H   H6        1.0  0.89193  0.23046  0.95309  1.0000
  H   H7        1.0  0.64355  0.04692  0.23066  1.0000
  H   H8        1.0  0.39193  0.76954  0.04690  1.0000
  H   H9        1.0  0.19131  0.76505  0.69755  1.0000
  H   H10       1.0  0.94028  0.30239  0.76520  1.0000
  H   H11       1.0  0.69134  0.23495  0.30246  1.0000
  H   H12       1.0  0.44027  0.69761  0.23480  1.0000
  H   H13       1.0  0.37451  0.82178  0.76495  1.0000
  H   H14       1.0  0.12326  0.23480  0.82198  1.0000
  H   H15       1.0  0.87452  0.17823  0.23504  1.0000
  H   H16       1.0  0.62326  0.76520  0.17802  1.0000
  H   H17       1.0  0.48788  0.63728  0.83723  1.0000
  H   H18       1.0  0.23716  0.16266  0.63779  1.0000
  H   H19       1.0  0.98788  0.36272  0.16276  1.0000
  H   H20       1.0  0.73715  0.83733  0.36221  1.0000
  H   H21       1.0  0.34800  0.60812  0.72683  1.0000
  H   H22       1.0  0.09754  0.27308  0.60822  1.0000
  H   H23       1.0  0.84802  0.39189  0.27317  1.0000
  H   H24       1.0  0.59753  0.72691  0.39178  1.0000
  H   H25       1.0  0.17113  0.49046  0.83765  1.0000
  H   H26       1.0  0.92122  0.16215  0.49025  1.0000
  H   H27       1.0  0.67113  0.50954  0.16235  1.0000
  H   H28       1.0  0.42121  0.83785  0.50975  1.0000
  H   H29       1.0  0.38671  0.44665  0.83895  1.0000
  H   H30       1.0  0.13704  0.16081  0.44690  1.0000
  H   H31       1.0  0.88671  0.55335  0.16105  1.0000
  H   H32       1.0  0.63703  0.83919  0.55310  1.0000
  C   C1        1.0  0.95205  0.85322  0.83749  1.0000
  C   C2        1.0  0.70064  0.16234  0.85303  1.0000
  C   C3        1.0  0.45205  0.14678  0.16252  1.0000
  C   C4        1.0  0.20064  0.83766  0.14697  1.0000
  C   C5        1.0  0.13456  0.88253  0.82271  1.0000
  C   C6        1.0  0.88312  0.17712  0.88251  1.0000
  C   C7        1.0  0.63457  0.11747  0.17729  1.0000
  C   C8        1.0  0.38312  0.82288  0.11749  1.0000
  C   C9        1.0  0.24340  0.79193  0.77579  1.0000
  C   C10       1.0  0.99219  0.22410  0.79203  1.0000
  C   C11       1.0  0.74341  0.20808  0.22421  1.0000
  C   C12       1.0  0.49218  0.77589  0.20797  1.0000
  C   C13       1.0  0.35577  0.61676  0.81534  1.0000
  C   C14       1.0  0.10518  0.18459  0.61694  1.0000
  C   C15       1.0  0.85577  0.38324  0.18466  1.0000
  C   C16       1.0  0.60517  0.81541  0.38306  1.0000
  C   C17       1.0  0.29981  0.51039  0.86679  1.0000
  C   C18       1.0  0.04980  0.13303  0.51048  1.0000
  C   C19       1.0  0.79982  0.48961  0.13321  1.0000
  C   C20       1.0  0.54979  0.86697  0.48951  1.0000
  C   C21       1.0  0.29839  0.51221  0.98704  1.0000
  C   C22       1.0  0.04836  0.01279  0.51244  1.0000
  C   C23       1.0  0.79840  0.48780  0.01296  1.0000
  C   C24       1.0  0.54836  0.98720  0.48756  1.0000
  N   N1        1.0  0.89329  0.77478  0.90232  1.0000
  N   N2        1.0  0.64197  0.09710  0.77485  1.0000
  N   N3        1.0  0.39330  0.22523  0.09770  1.0000
  N   N4        1.0  0.14197  0.90290  0.22515  1.0000
  N   N5        1.0  0.72155  0.77390  0.89549  1.0000
  N   N6        1.0  0.47057  0.10431  0.77358  1.0000
  N   N7        1.0  0.22155  0.22610  0.10452  1.0000
  N   N8        1.0  0.97056  0.89568  0.22642  1.0000
  N   N9        1.0  0.67504  0.84972  0.82867  1.0000
  N   N10       1.0  0.42394  0.17176  0.84901  1.0000
  N   N11       1.0  0.17504  0.15027  0.17133  1.0000
  N   N12       1.0  0.92394  0.82824  0.15098  1.0000
  N   N13       1.0  0.81686  0.90013  0.79082  1.0000
  N   N14       1.0  0.56541  0.20957  0.89943  1.0000
  N   N15       1.0  0.31686  0.09987  0.20918  1.0000
  N   N16       1.0  0.06541  0.79043  0.10056  1.0000
  N   N17       1.0  0.20342  0.57822  0.04840  1.0000
  N   N18       1.0  0.95317  0.95155  0.57845  1.0000
  N   N19       1.0  0.70343  0.42179  0.95159  1.0000
  N   N20       1.0  0.45315  0.04845  0.42156  1.0000
  N   N21       1.0  0.23622  0.55474  0.15334  1.0000
  N   N22       1.0  0.98585  0.84660  0.55507  1.0000
  N   N23       1.0  0.73624  0.44527  0.84666  1.0000
  N   N24       1.0  0.48584  0.15339  0.44494  1.0000
  N   N25       1.0  0.34763  0.47650  0.15650  1.0000
  N   N26       1.0  0.09742  0.84333  0.47690  1.0000
  N   N27       1.0  0.84764  0.52351  0.84349  1.0000
  N   N28       1.0  0.59743  0.15666  0.52309  1.0000
  N   N29       1.0  0.38856  0.44889  0.05368  1.0000
  N   N30       1.0  0.13859  0.94610  0.44924  1.0000
  N   N31       1.0  0.88856  0.55112  0.94631  1.0000
  N   N32       1.0  0.63860  0.05390  0.55075  1.0000
  O   O1        1.0  0.24407  0.70218  0.84972  1.0000
  O   O2        1.0  0.99295  0.15031  0.70215  1.0000
  O   O3        1.0  0.74407  0.29782  0.15028  1.0000
  O   O4        1.0  0.49295  0.84968  0.29785  1.0000
