data_image0
_chemical_formula_structural       KH24C14S2N4O6
_chemical_formula_sum              "K1 H24 C14 S2 N4 O6"
_cell_length_a       8.16997
_cell_length_b       8.51087
_cell_length_c       9.05041
_cell_angle_alpha    70.9778
_cell_angle_beta     63.3277
_cell_angle_gamma    64.6059

_space_group_name_H-M_alt    "P 1"
_space_group_IT_number       1

loop_
  _space_group_symop_operation_xyz
  'x, y, z'

loop_
  _atom_site_type_symbol
  _atom_site_label
  _atom_site_symmetry_multiplicity
  _atom_site_fract_x
  _atom_site_fract_y
  _atom_site_fract_z
  _atom_site_occupancy
  K   K1        1.0  0.50000  0.99999  0.50001  1.0000
  H   H1        1.0  0.17359  0.60570  0.64801  1.0000
  H   H2        1.0  0.82641  0.39430  0.35199  1.0000
  H   H3        1.0  0.06968  0.84020  0.63057  1.0000
  H   H4        1.0  0.93032  0.15980  0.36943  1.0000
  H   H5        1.0  0.23698  0.84863  0.32595  1.0000
  H   H6        1.0  0.76302  0.15137  0.67405  1.0000
  H   H7        1.0  0.35260  0.61448  0.35251  1.0000
  H   H8        1.0  0.64740  0.38551  0.64749  1.0000
  H   H9        1.0  0.67633  0.66149  0.24344  1.0000
  H   H10       1.0  0.32366  0.33851  0.75656  1.0000
  H   H11       1.0  0.56142  0.73476  0.09367  1.0000
  H   H12       1.0  0.43858  0.26523  0.90633  1.0000
  H   H13       1.0  0.73507  0.94511  0.93695  1.0000
  H   H14       1.0  0.26493  0.05489  0.06305  1.0000
  H   H15       1.0  0.85384  0.84575  0.08692  1.0000
  H   H16       1.0  0.14616  0.15425  0.91308  1.0000
  H   H17       1.0  0.85760  0.15634  0.93303  1.0000
  H   H18       1.0  0.14240  0.84365  0.06697  1.0000
  H   H19       1.0  0.60240  0.23518  0.04809  1.0000
  H   H20       1.0  0.39760  0.76482  0.95191  1.0000
  H   H21       1.0  0.36283  0.60779  0.80510  1.0000
  H   H22       1.0  0.63717  0.39221  0.19490  1.0000
  H   H23       1.0  0.10473  0.67480  0.91091  1.0000
  H   H24       1.0  0.89527  0.32520  0.08909  1.0000
  C   C1        1.0  0.19822  0.72543  0.64290  1.0000
  C   C2        1.0  0.80178  0.27457  0.35710  1.0000
  C   C3        1.0  0.36444  0.74038  0.34908  1.0000
  C   C4        1.0  0.63556  0.25962  0.65092  1.0000
  C   C5        1.0  0.55013  0.75954  0.21098  1.0000
  C   C6        1.0  0.44987  0.24045  0.78902  1.0000
  C   C7        1.0  0.72957  0.95307  0.05864  1.0000
  C   C8        1.0  0.27043  0.04693  0.94136  1.0000
  C   C9        1.0  0.74008  0.12817  0.04984  1.0000
  C   C10       1.0  0.25992  0.87182  0.95016  1.0000
  C   C11       1.0  0.22405  0.71190  0.80174  1.0000
  C   C12       1.0  0.77596  0.28810  0.19826  1.0000
  C   C13       1.0  0.05222  0.41537  0.53996  1.0000
  C   C14       1.0  0.94778  0.58465  0.46003  1.0000
  S   S1        1.0  0.19928  0.42084  0.24305  1.0000
  S   S2        1.0  0.80071  0.57917  0.75694  1.0000
  N   N1        1.0  0.19854  0.30833  0.43205  1.0000
  N   N2        1.0  0.80146  0.69168  0.56794  1.0000
  N   N3        1.0  0.01450  0.60610  0.29165  1.0000
  N   N4        1.0  0.98549  0.39392  0.70835  1.0000
  O   O1        1.0  0.36948  0.74202  0.50394  1.0000
  O   O2        1.0  0.63052  0.25798  0.49606  1.0000
  O   O3        1.0  0.55241  0.93291  0.18821  1.0000
  O   O4        1.0  0.44759  0.06709  0.81179  1.0000
  O   O5        1.0  0.77546  0.12246  0.19322  1.0000
  O   O6        1.0  0.22454  0.87754  0.80678  1.0000
