data_image0
_chemical_formula_structural       Cu3H16C12N16O2
_chemical_formula_sum              "Cu3 H16 C12 N16 O2"
_cell_length_a       7.57654
_cell_length_b       7.89555
_cell_length_c       9.33684
_cell_angle_alpha    81.8908
_cell_angle_beta     66.0461
_cell_angle_gamma    69.6583

_space_group_name_H-M_alt    "P 1"
_space_group_IT_number       1

loop_
  _space_group_symop_operation_xyz
  'x, y, z'

loop_
  _atom_site_type_symbol
  _atom_site_label
  _atom_site_symmetry_multiplicity
  _atom_site_fract_x
  _atom_site_fract_y
  _atom_site_fract_z
  _atom_site_occupancy
  Cu  Cu1       1.0  1.00000  1.00000  0.00000  1.0000
  Cu  Cu2       1.0  0.26917  0.50017  0.46173  1.0000
  Cu  Cu3       1.0  0.73084  0.49983  0.53827  1.0000
  H   H1        1.0  0.57115  0.98298  0.28301  1.0000
  H   H2        1.0  0.14588  0.01698  0.28278  1.0000
  H   H3        1.0  0.42885  0.01702  0.71699  1.0000
  H   H4        1.0  0.85412  0.98302  0.71722  1.0000
  H   H5        1.0  0.52805  0.78444  0.38578  1.0000
  H   H6        1.0  0.08621  0.21563  0.38543  1.0000
  H   H7        1.0  0.47195  0.21556  0.61422  1.0000
  H   H8        1.0  0.91379  0.78437  0.61457  1.0000
  H   H9        1.0  0.68542  0.62176  0.12741  1.0000
  H   H10       1.0  0.18714  0.37821  0.12714  1.0000
  H   H11       1.0  0.31458  0.37824  0.87259  1.0000
  H   H12       1.0  0.81285  0.62179  0.87286  1.0000
  H   H13       1.0  0.45977  0.80590  0.14910  1.0000
  H   H14       1.0  0.39116  0.19413  0.14877  1.0000
  H   H15       1.0  0.54023  0.19410  0.85091  1.0000
  H   H16       1.0  0.60884  0.80587  0.85123  1.0000
  C   C1        1.0  0.83767  0.76909  0.27917  1.0000
  C   C2        1.0  0.88314  0.23090  0.27898  1.0000
  C   C3        1.0  0.16234  0.23091  0.72083  1.0000
  C   C4        1.0  0.11686  0.76910  0.72102  1.0000
  C   C5        1.0  0.62839  0.83445  0.27955  1.0000
  C   C6        1.0  0.09210  0.16550  0.27927  1.0000
  C   C7        1.0  0.37162  0.16555  0.72045  1.0000
  C   C8        1.0  0.90790  0.83451  0.72073  1.0000
  C   C9        1.0  0.61884  0.77034  0.13763  1.0000
  C   C10       1.0  0.24356  0.22965  0.13730  1.0000
  C   C11       1.0  0.38116  0.22966  0.86237  1.0000
  C   C12       1.0  0.75643  0.77035  0.86270  1.0000
  N   N1        1.0  0.99944  0.81381  0.17366  1.0000
  N   N2        1.0  0.82671  0.18615  0.17367  1.0000
  N   N3        1.0  0.00056  0.18618  0.82635  1.0000
  N   N4        1.0  0.17328  0.81386  0.82633  1.0000
  N   N5        1.0  0.15943  0.72692  0.21407  1.0000
  N   N6        1.0  0.62627  0.27324  0.21411  1.0000
  N   N7        1.0  0.84058  0.27308  0.78593  1.0000
  N   N8        1.0  0.37373  0.72675  0.78589  1.0000
  N   N9        1.0  0.09711  0.63150  0.34093  1.0000
  N   N10       1.0  0.56191  0.36883  0.34083  1.0000
  N   N11       1.0  0.90290  0.36850  0.65907  1.0000
  N   N12       1.0  0.43809  0.63117  0.65917  1.0000
  N   N13       1.0  0.89547  0.65368  0.38418  1.0000
  N   N14       1.0  0.72043  0.34656  0.38393  1.0000
  N   N15       1.0  0.10453  0.34632  0.61582  1.0000
  N   N16       1.0  0.27957  0.65344  0.61607  1.0000
  O   O1        1.0  0.73201  0.85094  0.00018  1.0000
  O   O2        1.0  0.26799  0.14906  0.99982  1.0000
