data_image0
_chemical_formula_structural       FeH18C20N8O6
_chemical_formula_sum              "Fe1 H18 C20 N8 O6"
_cell_length_a       7.23051
_cell_length_b       8.99889
_cell_length_c       9.678
_cell_angle_alpha    115.778
_cell_angle_beta     92.3979
_cell_angle_gamma    92.1213

_space_group_name_H-M_alt    "P 1"
_space_group_IT_number       1

loop_
  _space_group_symop_operation_xyz
  'x, y, z'

loop_
  _atom_site_type_symbol
  _atom_site_label
  _atom_site_symmetry_multiplicity
  _atom_site_fract_x
  _atom_site_fract_y
  _atom_site_fract_z
  _atom_site_occupancy
  Fe  Fe1       1.0  0.50000  0.50000  0.00000  1.0000
  H   H1        1.0  0.47650  0.29877  0.13148  1.0000
  H   H2        1.0  0.52350  0.70124  0.86852  1.0000
  H   H3        1.0  0.39656  0.19573  0.95346  1.0000
  H   H4        1.0  0.60344  0.80427  0.04654  1.0000
  H   H5        1.0  0.81785  0.50328  0.86595  1.0000
  H   H6        1.0  0.18215  0.49672  0.13405  1.0000
  H   H7        1.0  0.73821  0.29051  0.59735  1.0000
  H   H8        1.0  0.26179  0.70949  0.40265  1.0000
  H   H9        1.0  0.72623  0.06988  0.49144  1.0000
  H   H10       1.0  0.27378  0.93012  0.50856  1.0000
  H   H11       1.0  0.81111  0.03839  0.72708  1.0000
  H   H12       1.0  0.18889  0.96161  0.27291  1.0000
  H   H13       1.0  0.60617  0.14275  0.74555  1.0000
  H   H14       1.0  0.39383  0.85725  0.25444  1.0000
  H   H15       1.0  0.99385  0.31107  0.87837  1.0000
  H   H16       1.0  0.00615  0.68893  0.12163  1.0000
  H   H17       1.0  0.82447  0.25988  0.98152  1.0000
  H   H18       1.0  0.17553  0.74012  0.01848  1.0000
  C   C1        1.0  0.32802  0.35111  0.67510  1.0000
  C   C2        1.0  0.67198  0.64889  0.32490  1.0000
  C   C3        1.0  0.01633  0.32759  0.28450  1.0000
  C   C4        1.0  0.98367  0.67241  0.71550  1.0000
  C   C5        1.0  0.36470  0.30711  0.41371  1.0000
  C   C6        1.0  0.63530  0.69289  0.58630  1.0000
  C   C7        1.0  0.83542  0.08796  0.26067  1.0000
  C   C8        1.0  0.16459  0.91204  0.73933  1.0000
  C   C9        1.0  0.06432  0.23363  0.48427  1.0000
  C   C10       1.0  0.93568  0.76637  0.51573  1.0000
  C   C11       1.0  0.25032  0.29890  0.52493  1.0000
  C   C12       1.0  0.74967  0.70111  0.47507  1.0000
  C   C13       1.0  0.96586  0.21917  0.34747  1.0000
  C   C14       1.0  0.03414  0.78083  0.65253  1.0000
  C   C15       1.0  0.78997  0.17552  0.59364  1.0000
  C   C16       1.0  0.21003  0.82448  0.40636  1.0000
  C   C17       1.0  0.75662  0.15519  0.73801  1.0000
  C   C18       1.0  0.24338  0.84481  0.26199  1.0000
  C   C19       1.0  0.84440  0.29244  0.88648  1.0000
  C   C20       1.0  0.15560  0.70756  0.11352  1.0000
  N   N1        1.0  0.39767  0.39664  0.79937  1.0000
  N   N2        1.0  0.60233  0.60336  0.20062  1.0000
  N   N3        1.0  0.05855  0.42188  0.23612  1.0000
  N   N4        1.0  0.94144  0.57812  0.76388  1.0000
  N   N5        1.0  0.45789  0.31062  0.31895  1.0000
  N   N6        1.0  0.54211  0.68938  0.68105  1.0000
  N   N7        1.0  0.73319  0.97533  0.18381  1.0000
  N   N8        1.0  0.26682  0.02467  0.81619  1.0000
  O   O1        1.0  0.99074  0.18272  0.58182  1.0000
  O   O2        1.0  0.00926  0.81728  0.41818  1.0000
  O   O3        1.0  0.76632  0.45055  0.92970  1.0000
  O   O4        1.0  0.23368  0.54945  0.07030  1.0000
  O   O5        1.0  0.48526  0.28716  0.02496  1.0000
  O   O6        1.0  0.51475  0.71284  0.97504  1.0000
