data_image0
_chemical_formula_structural       NiH18C20N8O6
_chemical_formula_sum              "Ni1 H18 C20 N8 O6"
_cell_length_a       8.21528
_cell_length_b       8.45747
_cell_length_c       9.68887
_cell_angle_alpha    85.6612
_cell_angle_beta     76.2271
_cell_angle_gamma    61.9026

_space_group_name_H-M_alt    "P 1"
_space_group_IT_number       1

loop_
  _space_group_symop_operation_xyz
  'x, y, z'

loop_
  _atom_site_type_symbol
  _atom_site_label
  _atom_site_symmetry_multiplicity
  _atom_site_fract_x
  _atom_site_fract_y
  _atom_site_fract_z
  _atom_site_occupancy
  Ni  Ni1       1.0  1.00000  1.00000  0.00000  1.0000
  H   H1        1.0  0.07938  0.57805  0.81528  1.0000
  H   H2        1.0  0.92062  0.42195  0.18472  1.0000
  H   H3        1.0  0.10088  0.36483  0.77275  1.0000
  H   H4        1.0  0.89912  0.63517  0.22725  1.0000
  H   H5        1.0  0.23953  0.37780  0.52296  1.0000
  H   H6        1.0  0.76048  0.62220  0.47704  1.0000
  H   H7        1.0  0.33378  0.60916  0.43292  1.0000
  H   H8        1.0  0.66623  0.39084  0.56708  1.0000
  H   H9        1.0  0.37202  0.40168  0.63191  1.0000
  H   H10       1.0  0.62798  0.59832  0.36809  1.0000
  H   H11       1.0  0.08260  0.70401  0.48658  1.0000
  H   H12       1.0  0.91740  0.29599  0.51342  1.0000
  H   H13       1.0  0.98018  0.11886  0.25337  1.0000
  H   H14       1.0  0.01982  0.88114  0.74663  1.0000
  H   H15       1.0  0.19799  0.96438  0.18590  1.0000
  H   H16       1.0  0.80201  0.03562  0.81410  1.0000
  H   H17       1.0  0.24305  0.85319  0.56773  1.0000
  H   H18       1.0  0.75695  0.14681  0.43227  1.0000
  C   C1        1.0  0.40738  0.90652  0.81243  1.0000
  C   C2        1.0  0.59263  0.09348  0.18757  1.0000
  C   C3        1.0  0.65508  0.91982  0.62611  1.0000
  C   C4        1.0  0.34491  0.08018  0.37389  1.0000
  C   C5        1.0  0.73735  0.67365  0.78856  1.0000
  C   C6        1.0  0.26265  0.32635  0.21144  1.0000
  C   C7        1.0  0.59965  0.83342  0.74376  1.0000
  C   C8        1.0  0.40036  0.16658  0.25624  1.0000
  C   C9        1.0  0.08254  0.49531  0.73173  1.0000
  C   C10       1.0  0.91746  0.50469  0.26827  1.0000
  C   C11       1.0  0.23613  0.46939  0.59930  1.0000
  C   C12       1.0  0.76386  0.53061  0.40070  1.0000
  C   C13       1.0  0.21401  0.64131  0.52565  1.0000
  C   C14       1.0  0.78599  0.35869  0.47435  1.0000
  C   C15       1.0  0.70620  0.59882  0.92265  1.0000
  C   C16       1.0  0.29380  0.40118  0.07736  1.0000
  C   C17       1.0  0.80339  0.41395  0.94041  1.0000
  C   C18       1.0  0.19661  0.58605  0.05959  1.0000
  C   C19       1.0  0.56751  0.70126  0.04207  1.0000
  C   C20       1.0  0.43249  0.29874  0.95793  1.0000
  N   N1        1.0  0.24833  0.96122  0.87116  1.0000
  N   N2        1.0  0.75167  0.03878  0.12883  1.0000
  N   N3        1.0  0.70267  0.98985  0.52779  1.0000
  N   N4        1.0  0.29734  0.01016  0.47221  1.0000
  N   N5        1.0  0.87892  0.26011  0.95797  1.0000
  N   N6        1.0  0.12107  0.73989  0.04203  1.0000
  N   N7        1.0  0.45626  0.78123  0.14503  1.0000
  N   N8        1.0  0.54373  0.21877  0.85497  1.0000
  O   O1        1.0  0.08443  0.06770  0.16443  1.0000
  O   O2        1.0  0.91557  0.93230  0.83557  1.0000
  O   O3        1.0  0.90014  0.59180  0.69051  1.0000
  O   O4        1.0  0.09986  0.40820  0.30949  1.0000
  O   O5        1.0  0.21146  0.76310  0.62303  1.0000
  O   O6        1.0  0.78854  0.23690  0.37697  1.0000
