data_image0
_chemical_formula_structural       Nd2H30C24S4O30
_chemical_formula_sum              "Nd2 H30 C24 S4 O30"
_cell_length_a       6.97278
_cell_length_b       10.8208
_cell_length_c       12.2397
_cell_angle_alpha    83.9748
_cell_angle_beta     77.112
_cell_angle_gamma    89.4078

_space_group_name_H-M_alt    "P 1"
_space_group_IT_number       1

loop_
  _space_group_symop_operation_xyz
  'x, y, z'

loop_
  _atom_site_type_symbol
  _atom_site_label
  _atom_site_symmetry_multiplicity
  _atom_site_fract_x
  _atom_site_fract_y
  _atom_site_fract_z
  _atom_site_occupancy
  Nd  Nd1       1.0  0.21103  0.59797  0.21343  1.0000
  Nd  Nd2       1.0  0.78897  0.40203  0.78657  1.0000
  H   H1        1.0  0.96436  0.22228  0.26611  1.0000
  H   H2        1.0  0.03564  0.77771  0.73389  1.0000
  H   H3        1.0  0.77580  0.58659  0.16570  1.0000
  H   H4        1.0  0.22420  0.41341  0.83431  1.0000
  H   H5        1.0  0.86573  0.44896  0.16901  1.0000
  H   H6        1.0  0.13427  0.55105  0.83099  1.0000
  H   H7        1.0  0.35405  0.35369  0.09596  1.0000
  H   H8        1.0  0.64595  0.64631  0.90404  1.0000
  H   H9        1.0  0.26136  0.43994  0.01082  1.0000
  H   H10       1.0  0.73864  0.56006  0.98918  1.0000
  H   H11       1.0  0.86794  0.44327  0.39319  1.0000
  H   H12       1.0  0.13206  0.55673  0.60681  1.0000
  H   H13       1.0  0.06602  0.43772  0.43575  1.0000
  H   H14       1.0  0.93398  0.56229  0.56425  1.0000
  H   H15       1.0  0.43454  0.35133  0.24527  1.0000
  H   H16       1.0  0.56547  0.64867  0.75473  1.0000
  H   H17       1.0  0.48911  0.42220  0.33932  1.0000
  H   H18       1.0  0.51090  0.57780  0.66068  1.0000
  H   H19       1.0  0.83738  0.72871  0.32859  1.0000
  H   H20       1.0  0.16262  0.27129  0.67141  1.0000
  H   H21       1.0  0.97706  0.84552  0.27231  1.0000
  H   H22       1.0  0.02294  0.15448  0.72769  1.0000
  H   H23       1.0  0.09704  0.25179  0.98464  1.0000
  H   H24       1.0  0.90296  0.74821  0.01536  1.0000
  H   H25       1.0  0.50426  0.97791  0.84832  1.0000
  H   H26       1.0  0.49574  0.02209  0.15169  1.0000
  H   H27       1.0  0.31587  0.21195  0.42228  1.0000
  H   H28       1.0  0.68412  0.78805  0.57772  1.0000
  H   H29       1.0  0.17267  0.84097  0.37077  1.0000
  H   H30       1.0  0.82733  0.15903  0.62923  1.0000
  C   C1        1.0  0.12785  0.15552  0.97012  1.0000
  C   C2        1.0  0.87214  0.84448  0.02987  1.0000
  C   C3        1.0  0.31241  0.12507  0.91173  1.0000
  C   C4        1.0  0.68758  0.87493  0.08827  1.0000
  C   C5        1.0  0.35719  0.00037  0.89284  1.0000
  C   C6        1.0  0.64280  0.99963  0.10716  1.0000
  C   C7        1.0  0.21521  0.90916  0.93072  1.0000
  C   C8        1.0  0.78479  0.09084  0.06928  1.0000
  C   C9        1.0  0.02109  0.93641  0.98988  1.0000
  C   C10       1.0  0.97890  0.06359  0.01011  1.0000
  C   C11       1.0  0.46843  0.22197  0.86714  1.0000
  C   C12       1.0  0.53157  0.77803  0.13286  1.0000
  C   C13       1.0  0.33964  0.11249  0.43416  1.0000
  C   C14       1.0  0.66036  0.88750  0.56584  1.0000
  C   C15       1.0  0.22902  0.03232  0.39113  1.0000
  C   C16       1.0  0.77098  0.96768  0.60886  1.0000
  C   C17       1.0  0.25940  0.90303  0.40517  1.0000
  C   C18       1.0  0.74060  0.09697  0.59483  1.0000
  C   C19       1.0  0.40099  0.85517  0.45896  1.0000
  C   C20       1.0  0.59901  0.14483  0.54104  1.0000
  C   C21       1.0  0.51711  0.93389  0.50659  1.0000
  C   C22       1.0  0.48289  0.06611  0.49341  1.0000
  C   C23       1.0  0.07963  0.07644  0.32617  1.0000
  C   C24       1.0  0.92035  0.92354  0.67383  1.0000
  S   S1        1.0  0.28225  0.75476  0.90318  1.0000
  S   S2        1.0  0.71775  0.24525  0.09682  1.0000
  S   S3        1.0  0.43284  0.69043  0.46314  1.0000
  S   S4        1.0  0.56716  0.30957  0.53686  1.0000
  O   O1        1.0  0.64316  0.18774  0.82967  1.0000
  O   O2        1.0  0.35684  0.81226  0.17034  1.0000
  O   O3        1.0  0.42665  0.33845  0.86744  1.0000
  O   O4        1.0  0.57335  0.66155  0.13256  1.0000
  O   O5        1.0  0.23091  0.67418  0.00995  1.0000
  O   O6        1.0  0.76909  0.32582  0.99005  1.0000
  O   O7        1.0  0.16960  0.71678  0.82324  1.0000
  O   O8        1.0  0.83041  0.28322  0.17676  1.0000
  O   O9        1.0  0.49608  0.75978  0.85462  1.0000
  O   O10       1.0  0.50392  0.24022  0.14538  1.0000
  O   O11       1.0  0.06089  0.19938  0.31463  1.0000
  O   O12       1.0  0.93911  0.80062  0.68537  1.0000
  O   O13       1.0  0.98217  0.00560  0.28597  1.0000
  O   O14       1.0  0.01783  0.99441  0.71404  1.0000
  O   O15       1.0  0.31759  0.64897  0.38674  1.0000
  O   O16       1.0  0.68242  0.35103  0.61326  1.0000
  O   O17       1.0  0.35036  0.63823  0.58078  1.0000
  O   O18       1.0  0.64964  0.36177  0.41922  1.0000
  O   O19       1.0  0.64386  0.66808  0.42920  1.0000
  O   O20       1.0  0.35615  0.33192  0.57080  1.0000
  O   O21       1.0  0.89730  0.53803  0.16651  1.0000
  O   O22       1.0  0.10270  0.46197  0.83349  1.0000
  O   O23       1.0  0.26661  0.42541  0.09001  1.0000
  O   O24       1.0  0.73339  0.57459  0.91000  1.0000
  O   O25       1.0  0.99863  0.48407  0.38311  1.0000
  O   O26       1.0  0.00137  0.51593  0.61688  1.0000
  O   O27       1.0  0.40310  0.42631  0.28473  1.0000
  O   O28       1.0  0.59691  0.57369  0.71527  1.0000
  O   O29       1.0  0.96168  0.75426  0.27396  1.0000
  O   O30       1.0  0.03832  0.24573  0.72604  1.0000
