data_image0
_chemical_formula_structural       La2H30C24S4O30
_chemical_formula_sum              "La2 H30 C24 S4 O30"
_cell_length_a       7.00273
_cell_length_b       10.8721
_cell_length_c       12.355
_cell_angle_alpha    83.8504
_cell_angle_beta     77.1225
_cell_angle_gamma    89.1528

_space_group_name_H-M_alt    "P 1"
_space_group_IT_number       1

loop_
  _space_group_symop_operation_xyz
  'x, y, z'

loop_
  _atom_site_type_symbol
  _atom_site_label
  _atom_site_symmetry_multiplicity
  _atom_site_fract_x
  _atom_site_fract_y
  _atom_site_fract_z
  _atom_site_occupancy
  La  La1       1.0  0.21014  0.59828  0.21343  1.0000
  La  La2       1.0  0.78985  0.40172  0.78657  1.0000
  H   H1        1.0  0.97158  0.22322  0.26450  1.0000
  H   H2        1.0  0.02842  0.77677  0.73550  1.0000
  H   H3        1.0  0.77134  0.58632  0.16601  1.0000
  H   H4        1.0  0.22866  0.41368  0.83399  1.0000
  H   H5        1.0  0.86047  0.44868  0.17047  1.0000
  H   H6        1.0  0.13953  0.55132  0.82954  1.0000
  H   H7        1.0  0.35688  0.35031  0.09828  1.0000
  H   H8        1.0  0.64311  0.64970  0.90173  1.0000
  H   H9        1.0  0.27496  0.43373  0.00840  1.0000
  H   H10       1.0  0.72504  0.56627  0.99160  1.0000
  H   H11       1.0  0.86771  0.44034  0.39576  1.0000
  H   H12       1.0  0.13229  0.55966  0.60424  1.0000
  H   H13       1.0  0.06338  0.43606  0.43960  1.0000
  H   H14       1.0  0.93663  0.56393  0.56040  1.0000
  H   H15       1.0  0.44098  0.35017  0.24535  1.0000
  H   H16       1.0  0.55901  0.64983  0.75465  1.0000
  H   H17       1.0  0.49334  0.41978  0.33940  1.0000
  H   H18       1.0  0.50666  0.58022  0.66060  1.0000
  H   H19       1.0  0.83485  0.73274  0.32995  1.0000
  H   H20       1.0  0.16515  0.26726  0.67005  1.0000
  H   H21       1.0  0.97271  0.84950  0.27437  1.0000
  H   H22       1.0  0.02730  0.15050  0.72563  1.0000
  H   H23       1.0  0.09822  0.24997  0.98698  1.0000
  H   H24       1.0  0.90177  0.75003  0.01301  1.0000
  H   H25       1.0  0.49928  0.97790  0.84536  1.0000
  H   H26       1.0  0.50072  0.02210  0.15464  1.0000
  H   H27       1.0  0.31905  0.21170  0.42116  1.0000
  H   H28       1.0  0.68096  0.78830  0.57884  1.0000
  H   H29       1.0  0.17790  0.84322  0.36887  1.0000
  H   H30       1.0  0.82211  0.15678  0.63113  1.0000
  C   C1        1.0  0.12778  0.15436  0.97112  1.0000
  C   C2        1.0  0.87221  0.84565  0.02888  1.0000
  C   C3        1.0  0.31023  0.12387  0.91147  1.0000
  C   C4        1.0  0.68976  0.87613  0.08853  1.0000
  C   C5        1.0  0.35371  0.00008  0.89100  1.0000
  C   C6        1.0  0.64629  0.99992  0.10900  1.0000
  C   C7        1.0  0.21274  0.90957  0.92909  1.0000
  C   C8        1.0  0.78725  0.09043  0.07091  1.0000
  C   C9        1.0  0.02057  0.93682  0.98928  1.0000
  C   C10       1.0  0.97943  0.06318  0.01071  1.0000
  C   C11       1.0  0.46629  0.21967  0.86776  1.0000
  C   C12       1.0  0.53371  0.78034  0.13224  1.0000
  C   C13       1.0  0.34220  0.11258  0.43322  1.0000
  C   C14       1.0  0.65780  0.88742  0.56678  1.0000
  C   C15       1.0  0.23270  0.03329  0.39011  1.0000
  C   C16       1.0  0.76731  0.96671  0.60989  1.0000
  C   C17       1.0  0.26288  0.90444  0.40406  1.0000
  C   C18       1.0  0.73713  0.09556  0.59594  1.0000
  C   C19       1.0  0.40220  0.85629  0.45876  1.0000
  C   C20       1.0  0.59781  0.14371  0.54123  1.0000
  C   C21       1.0  0.51677  0.93416  0.50680  1.0000
  C   C22       1.0  0.48324  0.06584  0.49320  1.0000
  C   C23       1.0  0.08473  0.07802  0.32523  1.0000
  C   C24       1.0  0.91526  0.92197  0.67478  1.0000
  S   S1        1.0  0.27946  0.75583  0.90152  1.0000
  S   S2        1.0  0.72053  0.24417  0.09848  1.0000
  S   S3        1.0  0.43411  0.69211  0.46362  1.0000
  S   S4        1.0  0.56589  0.30789  0.53638  1.0000
  O   O1        1.0  0.64002  0.18494  0.83078  1.0000
  O   O2        1.0  0.35998  0.81507  0.16922  1.0000
  O   O3        1.0  0.42438  0.33573  0.86849  1.0000
  O   O4        1.0  0.57562  0.66427  0.13151  1.0000
  O   O5        1.0  0.23193  0.67615  0.00787  1.0000
  O   O6        1.0  0.76807  0.32386  0.99214  1.0000
  O   O7        1.0  0.16484  0.71730  0.82396  1.0000
  O   O8        1.0  0.83516  0.28269  0.17604  1.0000
  O   O9        1.0  0.49182  0.76112  0.85179  1.0000
  O   O10       1.0  0.50818  0.23888  0.14821  1.0000
  O   O11       1.0  0.06770  0.20058  0.31269  1.0000
  O   O12       1.0  0.93229  0.79941  0.68732  1.0000
  O   O13       1.0  0.98637  0.00803  0.28610  1.0000
  O   O14       1.0  0.01365  0.99196  0.71390  1.0000
  O   O15       1.0  0.32069  0.65068  0.38740  1.0000
  O   O16       1.0  0.67931  0.34932  0.61259  1.0000
  O   O17       1.0  0.34985  0.64080  0.58013  1.0000
  O   O18       1.0  0.65015  0.35921  0.41987  1.0000
  O   O19       1.0  0.64437  0.66933  0.43115  1.0000
  O   O20       1.0  0.35563  0.33067  0.56885  1.0000
  O   O21       1.0  0.89082  0.53705  0.17008  1.0000
  O   O22       1.0  0.10918  0.46295  0.82992  1.0000
  O   O23       1.0  0.27193  0.42216  0.08814  1.0000
  O   O24       1.0  0.72807  0.57785  0.91186  1.0000
  O   O25       1.0  0.99740  0.48111  0.38611  1.0000
  O   O26       1.0  0.00261  0.51889  0.61389  1.0000
  O   O27       1.0  0.40993  0.42518  0.28402  1.0000
  O   O28       1.0  0.59006  0.57482  0.71599  1.0000
  O   O29       1.0  0.95757  0.75877  0.27524  1.0000
  O   O30       1.0  0.04243  0.24122  0.72476  1.0000
