data_image0
_chemical_formula_structural       Sm2H30C24S4O30
_chemical_formula_sum              "Sm2 H30 C24 S4 O30"
_cell_length_a       6.96799
_cell_length_b       10.7922
_cell_length_c       12.1765
_cell_angle_alpha    96.0345
_cell_angle_beta     103.019
_cell_angle_gamma    89.6449

_space_group_name_H-M_alt    "P 1"
_space_group_IT_number       1

loop_
  _space_group_symop_operation_xyz
  'x, y, z'

loop_
  _atom_site_type_symbol
  _atom_site_label
  _atom_site_symmetry_multiplicity
  _atom_site_fract_x
  _atom_site_fract_y
  _atom_site_fract_z
  _atom_site_occupancy
  Sm  Sm1       1.0  0.28707  0.40291  0.21358  1.0000
  Sm  Sm2       1.0  0.71294  0.59709  0.78642  1.0000
  H   H1        1.0  0.53474  0.77848  0.26464  1.0000
  H   H2        1.0  0.46527  0.22152  0.73537  1.0000
  H   H3        1.0  0.51756  0.15730  0.26973  1.0000
  H   H4        1.0  0.48244  0.84271  0.73027  1.0000
  H   H5        1.0  0.65889  0.27387  0.32712  1.0000
  H   H6        1.0  0.34112  0.72613  0.67288  1.0000
  H   H7        1.0  0.71918  0.41399  0.16641  1.0000
  H   H8        1.0  0.28083  0.58601  0.83360  1.0000
  H   H9        1.0  0.62887  0.55145  0.16807  1.0000
  H   H10       1.0  0.37113  0.44855  0.83193  1.0000
  H   H11       1.0  0.01213  0.57557  0.33968  1.0000
  H   H12       1.0  0.98787  0.42443  0.66032  1.0000
  H   H13       1.0  0.06646  0.64820  0.24611  1.0000
  H   H14       1.0  0.93354  0.35180  0.75390  1.0000
  H   H15       1.0  0.14448  0.64512  0.09751  1.0000
  H   H16       1.0  0.85552  0.35488  0.90249  1.0000
  H   H17       1.0  0.23223  0.55795  0.01059  1.0000
  H   H18       1.0  0.76777  0.44205  0.98941  1.0000
  H   H19       1.0  0.62979  0.55597  0.39156  1.0000
  H   H20       1.0  0.37021  0.44403  0.60844  1.0000
  H   H21       1.0  0.43139  0.56205  0.43428  1.0000
  H   H22       1.0  0.56860  0.43795  0.56572  1.0000
  H   H23       1.0  0.40402  0.74696  0.98332  1.0000
  H   H24       1.0  0.59598  0.25304  0.01668  1.0000
  H   H25       1.0  0.99432  0.02047  0.84775  1.0000
  H   H26       1.0  0.00567  0.97953  0.15225  1.0000
  H   H27       1.0  0.18340  0.78782  0.42165  1.0000
  H   H28       1.0  0.81660  0.21218  0.57834  1.0000
  H   H29       1.0  0.32716  0.16023  0.37019  1.0000
  H   H30       1.0  0.67284  0.83977  0.62981  1.0000
  C   C1        1.0  0.37281  0.84351  0.96926  1.0000
  C   C2        1.0  0.62719  0.15649  0.03074  1.0000
  C   C3        1.0  0.18762  0.87347  0.91082  1.0000
  C   C4        1.0  0.81238  0.12653  0.08918  1.0000
  C   C5        1.0  0.14184  0.99847  0.89250  1.0000
  C   C6        1.0  0.85816  0.00154  0.10750  1.0000
  C   C7        1.0  0.28366  0.09049  0.93115  1.0000
  C   C8        1.0  0.71633  0.90951  0.06885  1.0000
  C   C9        1.0  0.47840  0.06373  0.99026  1.0000
  C   C10       1.0  0.52160  0.93627  0.00974  1.0000
  C   C11       1.0  0.03165  0.77564  0.86622  1.0000
  C   C12       1.0  0.96835  0.22436  0.13378  1.0000
  C   C13       1.0  0.16006  0.88754  0.43367  1.0000
  C   C14       1.0  0.83993  0.11246  0.56633  1.0000
  C   C15       1.0  0.27069  0.96822  0.39049  1.0000
  C   C16       1.0  0.72931  0.03178  0.60951  1.0000
  C   C17       1.0  0.24053  0.09775  0.40469  1.0000
  C   C18       1.0  0.75947  0.90225  0.59531  1.0000
  C   C19       1.0  0.09917  0.14540  0.45880  1.0000
  C   C20       1.0  0.90083  0.85460  0.54120  1.0000
  C   C21       1.0  0.98289  0.06625  0.50661  1.0000
  C   C22       1.0  0.01710  0.93375  0.49338  1.0000
  C   C23       1.0  0.41900  0.92444  0.32462  1.0000
  C   C24       1.0  0.58100  0.07555  0.67538  1.0000
  S   S1        1.0  0.21708  0.24529  0.90394  1.0000
  S   S2        1.0  0.78292  0.75471  0.09606  1.0000
  S   S3        1.0  0.06726  0.31036  0.46257  1.0000
  S   S4        1.0  0.93275  0.68964  0.53743  1.0000
  O   O1        1.0  0.07341  0.65897  0.86630  1.0000
  O   O2        1.0  0.92659  0.34103  0.13370  1.0000
  O   O3        1.0  0.85634  0.80920  0.82887  1.0000
  O   O4        1.0  0.14366  0.19080  0.17113  1.0000
  O   O5        1.0  0.26788  0.32604  0.01145  1.0000
  O   O6        1.0  0.73212  0.67396  0.98855  1.0000
  O   O7        1.0  0.33126  0.28357  0.82435  1.0000
  O   O8        1.0  0.66875  0.71644  0.17565  1.0000
  O   O9        1.0  0.00312  0.23997  0.85429  1.0000
  O   O10       1.0  0.99688  0.76003  0.14571  1.0000
  O   O11       1.0  0.43881  0.80129  0.31368  1.0000
  O   O12       1.0  0.56120  0.19871  0.68632  1.0000
  O   O13       1.0  0.51454  0.99584  0.28319  1.0000
  O   O14       1.0  0.48548  0.00416  0.71681  1.0000
  O   O15       1.0  0.18281  0.35205  0.38597  1.0000
  O   O16       1.0  0.81719  0.64794  0.61403  1.0000
  O   O17       1.0  0.14994  0.36325  0.58082  1.0000
  O   O18       1.0  0.85006  0.63675  0.41918  1.0000
  O   O19       1.0  0.85599  0.33215  0.42806  1.0000
  O   O20       1.0  0.14401  0.66786  0.57194  1.0000
  O   O21       1.0  0.53339  0.24890  0.27260  1.0000
  O   O22       1.0  0.46661  0.75110  0.72740  1.0000
  O   O23       1.0  0.59754  0.46220  0.16694  1.0000
  O   O24       1.0  0.40246  0.53780  0.83306  1.0000
  O   O25       1.0  0.09913  0.57306  0.28552  1.0000
  O   O26       1.0  0.90088  0.42694  0.71448  1.0000
  O   O27       1.0  0.23026  0.57271  0.09066  1.0000
  O   O28       1.0  0.76974  0.42729  0.90934  1.0000
  O   O29       1.0  0.49852  0.51535  0.38155  1.0000
  O   O30       1.0  0.50148  0.48465  0.61845  1.0000
