data_image0
_chemical_formula_structural       Dy2H30C24S4O30
_chemical_formula_sum              "Dy2 H30 C24 S4 O30"
_cell_length_a       6.94129
_cell_length_b       10.7336
_cell_length_c       12.0617
_cell_angle_alpha    95.9849
_cell_angle_beta     103.238
_cell_angle_gamma    89.846

_space_group_name_H-M_alt    "P 1"
_space_group_IT_number       1

loop_
  _space_group_symop_operation_xyz
  'x, y, z'

loop_
  _atom_site_type_symbol
  _atom_site_label
  _atom_site_symmetry_multiplicity
  _atom_site_fract_x
  _atom_site_fract_y
  _atom_site_fract_z
  _atom_site_occupancy
  Dy  Dy1       1.0  0.28656  0.40317  0.21389  1.0000
  Dy  Dy2       1.0  0.71344  0.59683  0.78611  1.0000
  H   H1        1.0  0.54127  0.77862  0.26662  1.0000
  H   H2        1.0  0.45872  0.22138  0.73338  1.0000
  H   H3        1.0  0.51197  0.16076  0.26733  1.0000
  H   H4        1.0  0.48803  0.83924  0.73267  1.0000
  H   H5        1.0  0.65559  0.27747  0.32545  1.0000
  H   H6        1.0  0.34441  0.72253  0.67454  1.0000
  H   H7        1.0  0.71431  0.41432  0.16704  1.0000
  H   H8        1.0  0.28569  0.58568  0.83295  1.0000
  H   H9        1.0  0.62256  0.55155  0.16745  1.0000
  H   H10       1.0  0.37744  0.44845  0.83255  1.0000
  H   H11       1.0  0.01583  0.57219  0.33972  1.0000
  H   H12       1.0  0.98418  0.42781  0.66028  1.0000
  H   H13       1.0  0.07304  0.64736  0.24744  1.0000
  H   H14       1.0  0.92696  0.35264  0.75255  1.0000
  H   H15       1.0  0.14778  0.64317  0.09915  1.0000
  H   H16       1.0  0.85222  0.35683  0.90085  1.0000
  H   H17       1.0  0.23475  0.55300  0.01282  1.0000
  H   H18       1.0  0.76526  0.44699  0.98718  1.0000
  H   H19       1.0  0.62862  0.55250  0.38930  1.0000
  H   H20       1.0  0.37138  0.44749  0.61070  1.0000
  H   H21       1.0  0.42786  0.56090  0.43053  1.0000
  H   H22       1.0  0.57214  0.43910  0.56946  1.0000
  H   H23       1.0  0.40581  0.74488  0.98204  1.0000
  H   H24       1.0  0.59419  0.25511  0.01796  1.0000
  H   H25       1.0  0.98972  0.01894  0.84906  1.0000
  H   H26       1.0  0.01029  0.98105  0.15094  1.0000
  H   H27       1.0  0.18600  0.78704  0.42347  1.0000
  H   H28       1.0  0.81401  0.21295  0.57653  1.0000
  H   H29       1.0  0.33095  0.16155  0.37116  1.0000
  H   H30       1.0  0.66906  0.83845  0.62884  1.0000
  C   C1        1.0  0.37317  0.84199  0.96869  1.0000
  C   C2        1.0  0.62683  0.15801  0.03131  1.0000
  C   C3        1.0  0.18586  0.87155  0.91102  1.0000
  C   C4        1.0  0.81414  0.12845  0.08898  1.0000
  C   C5        1.0  0.13854  0.99724  0.89349  1.0000
  C   C6        1.0  0.86146  0.00276  0.10651  1.0000
  C   C7        1.0  0.28081  0.09030  0.93219  1.0000
  C   C8        1.0  0.71919  0.90969  0.06781  1.0000
  C   C9        1.0  0.47759  0.06407  0.99064  1.0000
  C   C10       1.0  0.52242  0.93593  0.00936  1.0000
  C   C11       1.0  0.02983  0.77252  0.86585  1.0000
  C   C12       1.0  0.97016  0.22748  0.13415  1.0000
  C   C13       1.0  0.16186  0.88720  0.43458  1.0000
  C   C14       1.0  0.83813  0.11280  0.56542  1.0000
  C   C15       1.0  0.27314  0.96846  0.39118  1.0000
  C   C16       1.0  0.72686  0.03154  0.60883  1.0000
  C   C17       1.0  0.24296  0.09857  0.40522  1.0000
  C   C18       1.0  0.75703  0.90143  0.59479  1.0000
  C   C19       1.0  0.10003  0.14612  0.45867  1.0000
  C   C20       1.0  0.89996  0.85389  0.54133  1.0000
  C   C21       1.0  0.98267  0.06652  0.50640  1.0000
  C   C22       1.0  0.01732  0.93348  0.49360  1.0000
  C   C23       1.0  0.42259  0.92511  0.32531  1.0000
  C   C24       1.0  0.57741  0.07490  0.67469  1.0000
  S   S1        1.0  0.21322  0.24570  0.90460  1.0000
  S   S2        1.0  0.78678  0.75430  0.09540  1.0000
  S   S3        1.0  0.06810  0.31178  0.46157  1.0000
  S   S4        1.0  0.93190  0.68823  0.53843  1.0000
  O   O1        1.0  0.07105  0.65526  0.86582  1.0000
  O   O2        1.0  0.92895  0.34474  0.13418  1.0000
  O   O3        1.0  0.85351  0.80555  0.82780  1.0000
  O   O4        1.0  0.14649  0.19444  0.17221  1.0000
  O   O5        1.0  0.26537  0.32750  0.01284  1.0000
  O   O6        1.0  0.73462  0.67250  0.98716  1.0000
  O   O7        1.0  0.32678  0.28404  0.82380  1.0000
  O   O8        1.0  0.67322  0.71597  0.17621  1.0000
  O   O9        1.0  0.99806  0.23963  0.85451  1.0000
  O   O10       1.0  0.00194  0.76037  0.14548  1.0000
  O   O11       1.0  0.44486  0.80154  0.31582  1.0000
  O   O12       1.0  0.55515  0.19845  0.68419  1.0000
  O   O13       1.0  0.51638  0.99730  0.28252  1.0000
  O   O14       1.0  0.48360  0.00270  0.71748  1.0000
  O   O15       1.0  0.18466  0.35316  0.38441  1.0000
  O   O16       1.0  0.81535  0.64685  0.61560  1.0000
  O   O17       1.0  0.15001  0.36566  0.58104  1.0000
  O   O18       1.0  0.84999  0.63434  0.41896  1.0000
  O   O19       1.0  0.85590  0.33315  0.42568  1.0000
  O   O20       1.0  0.14410  0.66688  0.57432  1.0000
  O   O21       1.0  0.52799  0.25291  0.27115  1.0000
  O   O22       1.0  0.47200  0.74709  0.72886  1.0000
  O   O23       1.0  0.59144  0.46176  0.16670  1.0000
  O   O24       1.0  0.40856  0.53824  0.83331  1.0000
  O   O25       1.0  0.10532  0.57139  0.28659  1.0000
  O   O26       1.0  0.89470  0.42862  0.71341  1.0000
  O   O27       1.0  0.23337  0.57008  0.09354  1.0000
  O   O28       1.0  0.76664  0.42992  0.90646  1.0000
  O   O29       1.0  0.49592  0.51246  0.37880  1.0000
  O   O30       1.0  0.50409  0.48754  0.62119  1.0000
