data_image0
_chemical_formula_structural       Gd2H30C24S4O30
_chemical_formula_sum              "Gd2 H30 C24 S4 O30"
_cell_length_a       6.94868
_cell_length_b       10.7598
_cell_length_c       12.084
_cell_angle_alpha    95.956
_cell_angle_beta     103.192
_cell_angle_gamma    89.6522

_space_group_name_H-M_alt    "P 1"
_space_group_IT_number       1

loop_
  _space_group_symop_operation_xyz
  'x, y, z'

loop_
  _atom_site_type_symbol
  _atom_site_label
  _atom_site_symmetry_multiplicity
  _atom_site_fract_x
  _atom_site_fract_y
  _atom_site_fract_z
  _atom_site_occupancy
  Gd  Gd1       1.0  0.78895  0.40111  0.21355  1.0000
  Gd  Gd2       1.0  0.21105  0.59889  0.78645  1.0000
  H   H1        1.0  0.03818  0.77613  0.26614  1.0000
  H   H2        1.0  0.96182  0.22387  0.73386  1.0000
  H   H3        1.0  0.21938  0.41236  0.16620  1.0000
  H   H4        1.0  0.78062  0.58764  0.83380  1.0000
  H   H5        1.0  0.12796  0.54971  0.16797  1.0000
  H   H6        1.0  0.87204  0.45029  0.83203  1.0000
  H   H7        1.0  0.64685  0.64225  0.09663  1.0000
  H   H8        1.0  0.35315  0.35775  0.90337  1.0000
  H   H9        1.0  0.74197  0.55376  0.01271  1.0000
  H   H10       1.0  0.25803  0.44624  0.98729  1.0000
  H   H11       1.0  0.13239  0.55231  0.38969  1.0000
  H   H12       1.0  0.86760  0.44769  0.61031  1.0000
  H   H13       1.0  0.93237  0.56021  0.43100  1.0000
  H   H14       1.0  0.06763  0.43979  0.56900  1.0000
  H   H15       1.0  0.57228  0.64624  0.24707  1.0000
  H   H16       1.0  0.42772  0.35376  0.75294  1.0000
  H   H17       1.0  0.51677  0.57260  0.34029  1.0000
  H   H18       1.0  0.48323  0.42740  0.65971  1.0000
  H   H19       1.0  0.15936  0.27336  0.32462  1.0000
  H   H20       1.0  0.84064  0.72664  0.67539  1.0000
  H   H21       1.0  0.01610  0.15664  0.26745  1.0000
  H   H22       1.0  0.98390  0.84336  0.73255  1.0000
  H   H23       1.0  0.90344  0.74637  0.98409  1.0000
  H   H24       1.0  0.09656  0.25364  0.01591  1.0000
  H   H25       1.0  0.49176  0.02078  0.84724  1.0000
  H   H26       1.0  0.50824  0.97922  0.15276  1.0000
  H   H27       1.0  0.68402  0.78650  0.42296  1.0000
  H   H28       1.0  0.31598  0.21350  0.57704  1.0000
  H   H29       1.0  0.83170  0.15934  0.37103  1.0000
  H   H30       1.0  0.16830  0.84066  0.62897  1.0000
  C   C1        1.0  0.87199  0.84313  0.96953  1.0000
  C   C2        1.0  0.12802  0.15687  0.03047  1.0000
  C   C3        1.0  0.68579  0.87328  0.91084  1.0000
  C   C4        1.0  0.31421  0.12672  0.08916  1.0000
  C   C5        1.0  0.63999  0.99867  0.89218  1.0000
  C   C6        1.0  0.36001  0.00133  0.10782  1.0000
  C   C7        1.0  0.78253  0.09084  0.93089  1.0000
  C   C8        1.0  0.21747  0.90916  0.06911  1.0000
  C   C9        1.0  0.97835  0.06392  0.99014  1.0000
  C   C10       1.0  0.02166  0.93608  0.00986  1.0000
  C   C11       1.0  0.52902  0.77538  0.86591  1.0000
  C   C12       1.0  0.47098  0.22462  0.13410  1.0000
  C   C13       1.0  0.66124  0.88658  0.43480  1.0000
  C   C14       1.0  0.33876  0.11342  0.56520  1.0000
  C   C15       1.0  0.77302  0.96705  0.39142  1.0000
  C   C16       1.0  0.22698  0.03295  0.60858  1.0000
  C   C17       1.0  0.74361  0.09702  0.40529  1.0000
  C   C18       1.0  0.25639  0.90297  0.59471  1.0000
  C   C19       1.0  0.60110  0.14523  0.45873  1.0000
  C   C20       1.0  0.39890  0.85477  0.54127  1.0000
  C   C21       1.0  0.48296  0.06644  0.50624  1.0000
  C   C22       1.0  0.51704  0.93356  0.49376  1.0000
  C   C23       1.0  0.92196  0.92280  0.32557  1.0000
  C   C24       1.0  0.07805  0.07720  0.67442  1.0000
  S   S1        1.0  0.71517  0.24622  0.90393  1.0000
  S   S2        1.0  0.28483  0.75379  0.09607  1.0000
  S   S3        1.0  0.56977  0.31059  0.46146  1.0000
  S   S4        1.0  0.43023  0.68941  0.53854  1.0000
  O   O1        1.0  0.35298  0.80932  0.82875  1.0000
  O   O2        1.0  0.64702  0.19068  0.17125  1.0000
  O   O3        1.0  0.56986  0.65820  0.86519  1.0000
  O   O4        1.0  0.43014  0.34180  0.13482  1.0000
  O   O5        1.0  0.76805  0.32669  0.01246  1.0000
  O   O6        1.0  0.23196  0.67331  0.98754  1.0000
  O   O7        1.0  0.82799  0.28516  0.82328  1.0000
  O   O8        1.0  0.17201  0.71484  0.17672  1.0000
  O   O9        1.0  0.50016  0.24130  0.85458  1.0000
  O   O10       1.0  0.49984  0.75870  0.14542  1.0000
  O   O11       1.0  0.94215  0.79930  0.31548  1.0000
  O   O12       1.0  0.05785  0.20070  0.68452  1.0000
  O   O13       1.0  0.01750  0.99408  0.28335  1.0000
  O   O14       1.0  0.98249  0.00592  0.71664  1.0000
  O   O15       1.0  0.68937  0.35151  0.38587  1.0000
  O   O16       1.0  0.31063  0.64849  0.61413  1.0000
  O   O17       1.0  0.64846  0.36434  0.58093  1.0000
  O   O18       1.0  0.35154  0.63566  0.41907  1.0000
  O   O19       1.0  0.35826  0.33247  0.42359  1.0000
  O   O20       1.0  0.64174  0.66753  0.57641  1.0000
  O   O21       1.0  0.09617  0.45998  0.16499  1.0000
  O   O22       1.0  0.90383  0.54002  0.83501  1.0000
  O   O23       1.0  0.73479  0.57021  0.09245  1.0000
  O   O24       1.0  0.26521  0.42979  0.90755  1.0000
  O   O25       1.0  0.00068  0.51167  0.37954  1.0000
  O   O26       1.0  0.99932  0.48833  0.62046  1.0000
  O   O27       1.0  0.60548  0.57084  0.28679  1.0000
  O   O28       1.0  0.39451  0.42915  0.71321  1.0000
  O   O29       1.0  0.03231  0.24847  0.27044  1.0000
  O   O30       1.0  0.96769  0.75153  0.72957  1.0000
