data_image0
_chemical_formula_structural       Er2H26C24S4O28
_chemical_formula_sum              "Er2 H26 C24 S4 O28"
_cell_length_a       6.72286
_cell_length_b       10.7154
_cell_length_c       11.8333
_cell_angle_alpha    97.7583
_cell_angle_beta     89.9999
_cell_angle_gamma    89.9965

_space_group_name_H-M_alt    "P 1"
_space_group_IT_number       1

loop_
  _space_group_symop_operation_xyz
  'x, y, z'

loop_
  _atom_site_type_symbol
  _atom_site_label
  _atom_site_symmetry_multiplicity
  _atom_site_fract_x
  _atom_site_fract_y
  _atom_site_fract_z
  _atom_site_occupancy
  Er  Er1       1.0  0.25000  0.68814  0.77340  1.0000
  Er  Er2       1.0  0.75001  0.31185  0.22659  1.0000
  H   H1        1.0  0.75001  0.93764  0.17357  1.0000
  H   H2        1.0  0.24998  0.06234  0.82644  1.0000
  H   H3        1.0  0.93722  0.54950  0.88791  1.0000
  H   H4        1.0  0.43718  0.45052  0.11209  1.0000
  H   H5        1.0  0.06280  0.45050  0.11208  1.0000
  H   H6        1.0  0.56282  0.54949  0.88791  1.0000
  H   H7        1.0  0.95432  0.68398  0.96049  1.0000
  H   H8        1.0  0.45431  0.31605  0.03949  1.0000
  H   H9        1.0  0.04570  0.31602  0.03950  1.0000
  H   H10       1.0  0.54569  0.68396  0.96050  1.0000
  H   H11       1.0  0.13260  0.42973  0.70970  1.0000
  H   H12       1.0  0.63261  0.57027  0.29030  1.0000
  H   H13       1.0  0.86742  0.57027  0.29031  1.0000
  H   H14       1.0  0.36741  0.42974  0.70971  1.0000
  H   H15       1.0  0.13519  0.60117  0.52664  1.0000
  H   H16       1.0  0.63518  0.39882  0.47335  1.0000
  H   H17       1.0  0.86478  0.39884  0.47336  1.0000
  H   H18       1.0  0.36480  0.60117  0.52664  1.0000
  H   H19       1.0  0.75001  0.86707  0.83792  1.0000
  H   H20       1.0  0.25000  0.13293  0.16208  1.0000
  H   H21       1.0  0.75000  0.26911  0.92039  1.0000
  H   H22       1.0  0.25000  0.73090  0.07961  1.0000
  H   H23       1.0  0.75001  0.19511  0.50794  1.0000
  H   H24       1.0  0.24998  0.80489  0.49206  1.0000
  H   H25       1.0  0.75000  0.79195  0.42651  1.0000
  H   H26       1.0  0.24999  0.20805  0.57348  1.0000
  C   C1        1.0  0.75001  0.95917  0.80939  1.0000
  C   C2        1.0  0.25000  0.04083  0.19061  1.0000
  C   C3        1.0  0.75001  0.06440  0.89043  1.0000
  C   C4        1.0  0.25002  0.93560  0.10957  1.0000
  C   C5        1.0  0.75001  0.18604  0.85638  1.0000
  C   C6        1.0  0.25000  0.81396  0.14362  1.0000
  C   C7        1.0  0.75003  0.20030  0.74283  1.0000
  C   C8        1.0  0.24996  0.79970  0.25717  1.0000
  C   C9        1.0  0.75002  0.10329  0.53756  1.0000
  C   C10       1.0  0.24998  0.89670  0.46244  1.0000
  C   C11       1.0  0.75001  0.99718  0.45625  1.0000
  C   C12       1.0  0.24998  0.00281  0.54375  1.0000
  C   C13       1.0  0.75000  0.87545  0.49000  1.0000
  C   C14       1.0  0.25000  0.12455  0.51000  1.0000
  C   C15       1.0  0.75001  0.86372  0.60459  1.0000
  C   C16       1.0  0.25000  0.13628  0.39541  1.0000
  C   C17       1.0  0.75003  0.09363  0.65559  1.0000
  C   C18       1.0  0.24997  0.90637  0.34441  1.0000
  C   C19       1.0  0.75002  0.97040  0.69137  1.0000
  C   C20       1.0  0.24999  0.02960  0.30863  1.0000
  C   C21       1.0  0.75001  0.05337  0.01563  1.0000
  C   C22       1.0  0.25002  0.94661  0.98438  1.0000
  C   C23       1.0  0.75001  0.01752  0.33408  1.0000
  C   C24       1.0  0.24995  0.98246  0.66592  1.0000
  S   S1        1.0  0.75003  0.35784  0.70921  1.0000
  S   S2        1.0  0.24996  0.64216  0.29080  1.0000
  S   S3        1.0  0.75000  0.70937  0.64372  1.0000
  S   S4        1.0  0.25001  0.29062  0.35627  1.0000
  O   O1        1.0  0.75000  0.15786  0.08162  1.0000
  O   O2        1.0  0.25006  0.84212  0.91838  1.0000
  O   O3        1.0  0.75002  0.94526  0.04813  1.0000
  O   O4        1.0  0.24998  0.05473  0.95186  1.0000
  O   O5        1.0  0.75003  0.12663  0.30925  1.0000
  O   O6        1.0  0.24990  0.87336  0.69074  1.0000
  O   O7        1.0  0.75000  0.91585  0.25838  1.0000
  O   O8        1.0  0.24997  0.08413  0.74163  1.0000
  O   O9        1.0  0.75004  0.44117  0.81926  1.0000
  O   O10       1.0  0.24993  0.55883  0.18075  1.0000
  O   O11       1.0  0.56873  0.37026  0.64188  1.0000
  O   O12       1.0  0.06867  0.62979  0.35815  1.0000
  O   O13       1.0  0.43127  0.62977  0.35812  1.0000
  O   O14       1.0  0.93132  0.37022  0.64186  1.0000
  O   O15       1.0  0.92838  0.70219  0.71561  1.0000
  O   O16       1.0  0.42839  0.29778  0.28438  1.0000
  O   O17       1.0  0.07163  0.29784  0.28439  1.0000
  O   O18       1.0  0.57162  0.70220  0.71561  1.0000
  O   O19       1.0  0.75000  0.62058  0.54048  1.0000
  O   O20       1.0  0.25002  0.37942  0.45951  1.0000
  O   O21       1.0  0.03147  0.61738  0.91681  1.0000
  O   O22       1.0  0.53145  0.38263  0.08320  1.0000
  O   O23       1.0  0.96855  0.38261  0.08319  1.0000
  O   O24       1.0  0.46855  0.61738  0.91681  1.0000
  O   O25       1.0  0.24999  0.46931  0.75199  1.0000
  O   O26       1.0  0.75002  0.53069  0.24802  1.0000
  O   O27       1.0  0.24999  0.62545  0.57549  1.0000
  O   O28       1.0  0.75000  0.37455  0.42451  1.0000
