data_image0
_chemical_formula_structural       Zn4H32C48N24
_chemical_formula_sum              "Zn4 H32 C48 N24"
_cell_length_a       10.0873
_cell_length_b       10.2258
_cell_length_c       12.1549
_cell_angle_alpha    109.542
_cell_angle_beta     90
_cell_angle_gamma    90

_space_group_name_H-M_alt    "P 1"
_space_group_IT_number       1

loop_
  _space_group_symop_operation_xyz
  'x, y, z'

loop_
  _atom_site_type_symbol
  _atom_site_label
  _atom_site_symmetry_multiplicity
  _atom_site_fract_x
  _atom_site_fract_y
  _atom_site_fract_z
  _atom_site_occupancy
  Zn  Zn1       1.0  0.06623  0.00221  0.86052  1.0000
  Zn  Zn2       1.0  0.56623  0.99779  0.63948  1.0000
  Zn  Zn3       1.0  0.93377  0.99779  0.13948  1.0000
  Zn  Zn4       1.0  0.43377  0.00221  0.36053  1.0000
  H   H1        1.0  0.11187  0.56639  0.29238  1.0000
  H   H2        1.0  0.61187  0.43361  0.20762  1.0000
  H   H3        1.0  0.88813  0.43361  0.70762  1.0000
  H   H4        1.0  0.38814  0.56639  0.79239  1.0000
  H   H5        1.0  0.20809  0.68255  0.16016  1.0000
  H   H6        1.0  0.70809  0.31745  0.33984  1.0000
  H   H7        1.0  0.79191  0.31745  0.83984  1.0000
  H   H8        1.0  0.29191  0.68255  0.66016  1.0000
  H   H9        1.0  0.22991  0.55926  0.94820  1.0000
  H   H10       1.0  0.72991  0.44074  0.55180  1.0000
  H   H11       1.0  0.77009  0.44074  0.05180  1.0000
  H   H12       1.0  0.27009  0.55926  0.44820  1.0000
  H   H13       1.0  0.16085  0.31364  0.85816  1.0000
  H   H14       1.0  0.66085  0.68636  0.64184  1.0000
  H   H15       1.0  0.83915  0.68636  0.14184  1.0000
  H   H16       1.0  0.33915  0.31364  0.35816  1.0000
  H   H17       1.0  0.67628  0.83636  0.84005  1.0000
  H   H18       1.0  0.17628  0.16364  0.65995  1.0000
  H   H19       1.0  0.32372  0.16363  0.15995  1.0000
  H   H20       1.0  0.82372  0.83637  0.34004  1.0000
  H   H21       1.0  0.63606  0.72501  0.99196  1.0000
  H   H22       1.0  0.13606  0.27499  0.50804  1.0000
  H   H23       1.0  0.36394  0.27499  0.00804  1.0000
  H   H24       1.0  0.86394  0.72502  0.49195  1.0000
  H   H25       1.0  0.41679  0.72574  0.07806  1.0000
  H   H26       1.0  0.91679  0.27425  0.42194  1.0000
  H   H27       1.0  0.58321  0.27425  0.92194  1.0000
  H   H28       1.0  0.08320  0.72575  0.57806  1.0000
  H   H29       1.0  0.22022  0.83106  0.01234  1.0000
  H   H30       1.0  0.72022  0.16894  0.48766  1.0000
  H   H31       1.0  0.77978  0.16894  0.98766  1.0000
  H   H32       1.0  0.27977  0.83106  0.51234  1.0000
  C   C1        1.0  0.08462  0.37166  0.14879  1.0000
  C   C2        1.0  0.58463  0.62834  0.35121  1.0000
  C   C3        1.0  0.91538  0.62834  0.85121  1.0000
  C   C4        1.0  0.41538  0.37166  0.64879  1.0000
  C   C5        1.0  0.12357  0.51133  0.19921  1.0000
  C   C6        1.0  0.62357  0.48867  0.30078  1.0000
  C   C7        1.0  0.87643  0.48867  0.80079  1.0000
  C   C8        1.0  0.37644  0.51133  0.69922  1.0000
  C   C9        1.0  0.17586  0.57484  0.12461  1.0000
  C   C10       1.0  0.67586  0.42516  0.37539  1.0000
  C   C11       1.0  0.82414  0.42516  0.87539  1.0000
  C   C12       1.0  0.32414  0.57484  0.62461  1.0000
  C   C13       1.0  0.18867  0.50390  0.00282  1.0000
  C   C14       1.0  0.68867  0.49610  0.49718  1.0000
  C   C15       1.0  0.81133  0.49610  0.99718  1.0000
  C   C16       1.0  0.31133  0.50390  0.50282  1.0000
  C   C17       1.0  0.15054  0.36685  0.95170  1.0000
  C   C18       1.0  0.65054  0.63315  0.54830  1.0000
  C   C19       1.0  0.84946  0.63315  0.04830  1.0000
  C   C20       1.0  0.34946  0.36685  0.45170  1.0000
  C   C21       1.0  0.09863  0.30077  0.02688  1.0000
  C   C22       1.0  0.59863  0.69923  0.47311  1.0000
  C   C23       1.0  0.90137  0.69923  0.97311  1.0000
  C   C24       1.0  0.40137  0.30077  0.52689  1.0000
  C   C25       1.0  0.46734  0.89070  0.83823  1.0000
  C   C26       1.0  0.96734  0.10930  0.66177  1.0000
  C   C27       1.0  0.53265  0.10929  0.16178  1.0000
  C   C28       1.0  0.03265  0.89071  0.33822  1.0000
  C   C29       1.0  0.57746  0.83202  0.87511  1.0000
  C   C30       1.0  0.07746  0.16798  0.62489  1.0000
  C   C31       1.0  0.42254  0.16797  0.12489  1.0000
  C   C32       1.0  0.92254  0.83203  0.37511  1.0000
  C   C33       1.0  0.55429  0.77210  0.96022  1.0000
  C   C34       1.0  0.05429  0.22790  0.53978  1.0000
  C   C35       1.0  0.44571  0.22789  0.03978  1.0000
  C   C36       1.0  0.94571  0.77211  0.46022  1.0000
  C   C37       1.0  0.42695  0.77164  0.00936  1.0000
  C   C38       1.0  0.92695  0.22836  0.49064  1.0000
  C   C39       1.0  0.57305  0.22836  0.99065  1.0000
  C   C40       1.0  0.07305  0.77164  0.50935  1.0000
  C   C41       1.0  0.31775  0.82952  0.97353  1.0000
  C   C42       1.0  0.81775  0.17048  0.52647  1.0000
  C   C43       1.0  0.68225  0.17047  0.02647  1.0000
  C   C44       1.0  0.18225  0.82953  0.47353  1.0000
  C   C45       1.0  0.33982  0.88883  0.88622  1.0000
  C   C46       1.0  0.83982  0.11117  0.61378  1.0000
  C   C47       1.0  0.66018  0.11117  0.11378  1.0000
  C   C48       1.0  0.16018  0.88883  0.38621  1.0000
  N   N1        1.0  0.05509  0.16860  0.00693  1.0000
  N   N2        1.0  0.55509  0.83140  0.49307  1.0000
  N   N3        1.0  0.94491  0.83140  0.99307  1.0000
  N   N4        1.0  0.44491  0.16860  0.50693  1.0000
  N   N5        1.0  0.01677  0.16254  0.11186  1.0000
  N   N6        1.0  0.51677  0.83745  0.38814  1.0000
  N   N7        1.0  0.98323  0.83745  0.88814  1.0000
  N   N8        1.0  0.48323  0.16255  0.61186  1.0000
  N   N9        1.0  0.03219  0.28087  0.19817  1.0000
  N   N10       1.0  0.53219  0.71913  0.30183  1.0000
  N   N11       1.0  0.96781  0.71913  0.80183  1.0000
  N   N12       1.0  0.46781  0.28087  0.69817  1.0000
  N   N13       1.0  0.25699  0.95475  0.83165  1.0000
  N   N14       1.0  0.75699  0.04525  0.66835  1.0000
  N   N15       1.0  0.74302  0.04525  0.16835  1.0000
  N   N16       1.0  0.24302  0.95475  0.33165  1.0000
  N   N17       1.0  0.32673  0.99496  0.75565  1.0000
  N   N18       1.0  0.82673  0.00504  0.74435  1.0000
  N   N19       1.0  0.67328  0.00503  0.24435  1.0000
  N   N20       1.0  0.17328  0.99497  0.25565  1.0000
  N   N21       1.0  0.45320  0.95776  0.75809  1.0000
  N   N22       1.0  0.95320  0.04224  0.74191  1.0000
  N   N23       1.0  0.54680  0.04224  0.24191  1.0000
  N   N24       1.0  0.04680  0.95777  0.25809  1.0000
