data_image0
_chemical_formula_structural       Ag2P2H10C4O6
_chemical_formula_sum              "Ag2 P2 H10 C4 O6"
_cell_length_a       4.57186
_cell_length_b       5.62792
_cell_length_c       10.1598
_cell_angle_alpha    74.7528
_cell_angle_beta     76.5821
_cell_angle_gamma    73.7656

_space_group_name_H-M_alt    "P 1"
_space_group_IT_number       1

loop_
  _space_group_symop_operation_xyz
  'x, y, z'

loop_
  _atom_site_type_symbol
  _atom_site_label
  _atom_site_symmetry_multiplicity
  _atom_site_fract_x
  _atom_site_fract_y
  _atom_site_fract_z
  _atom_site_occupancy
  Ag  Ag1       1.0  0.30607  0.30431  0.54296  1.0000
  Ag  Ag2       1.0  0.69392  0.69569  0.45704  1.0000
  P   P1        1.0  0.18722  0.66706  0.73866  1.0000
  P   P2        1.0  0.81279  0.33295  0.26133  1.0000
  H   H1        1.0  0.67313  0.49062  0.76826  1.0000
  H   H2        1.0  0.32688  0.50938  0.23174  1.0000
  H   H3        1.0  0.76960  0.98799  0.81302  1.0000
  H   H4        1.0  0.23040  0.01200  0.18698  1.0000
  H   H5        1.0  0.80278  0.70276  0.93952  1.0000
  H   H6        1.0  0.19721  0.29724  0.06048  1.0000
  H   H7        1.0  0.23920  0.06486  0.87142  1.0000
  H   H8        1.0  0.76079  0.93515  0.12858  1.0000
  H   H9        1.0  0.27965  0.77465  0.99370  1.0000
  H   H10       1.0  0.72035  0.22536  0.00630  1.0000
  C   C1        1.0  0.93614  0.83294  0.86687  1.0000
  C   C2        1.0  0.06386  0.16707  0.13314  1.0000
  C   C3        1.0  0.10947  0.93297  0.94470  1.0000
  C   C4        1.0  0.89054  0.06703  0.05530  1.0000
  O   O1        1.0  0.45404  0.46794  0.81266  1.0000
  O   O2        1.0  0.54596  0.53205  0.18735  1.0000
  O   O3        1.0  0.00084  0.51341  0.69840  1.0000
  O   O4        1.0  0.99915  0.48659  0.30160  1.0000
  O   O5        1.0  0.32575  0.85156  0.61668  1.0000
  O   O6        1.0  0.67426  0.14843  0.38332  1.0000
