data_image0
_chemical_formula_structural       Zn2H24C28N4O8
_chemical_formula_sum              "Zn2 H24 C28 N4 O8"
_cell_length_a       5.13821
_cell_length_b       9.36579
_cell_length_c       13.7717
_cell_angle_alpha    109.836
_cell_angle_beta     90.0007
_cell_angle_gamma    89.9997

_space_group_name_H-M_alt    "P 1"
_space_group_IT_number       1

loop_
  _space_group_symop_operation_xyz
  'x, y, z'

loop_
  _atom_site_type_symbol
  _atom_site_label
  _atom_site_symmetry_multiplicity
  _atom_site_fract_x
  _atom_site_fract_y
  _atom_site_fract_z
  _atom_site_occupancy
  Zn  Zn1       1.0  1.00000  1.00000  1.00000  1.0000
  Zn  Zn2       1.0  0.50000  0.50000  0.00000  1.0000
  H   H1        1.0  0.43469  0.08509  0.13086  1.0000
  H   H2        1.0  0.93470  0.41491  0.86915  1.0000
  H   H3        1.0  0.56530  0.91491  0.86914  1.0000
  H   H4        1.0  0.06530  0.58509  0.13086  1.0000
  H   H5        1.0  0.31064  0.20514  0.07538  1.0000
  H   H6        1.0  0.81065  0.29486  0.92462  1.0000
  H   H7        1.0  0.68935  0.79486  0.92461  1.0000
  H   H8        1.0  0.18935  0.70514  0.07538  1.0000
  H   H9        1.0  0.37501  0.12946  0.30657  1.0000
  H   H10       1.0  0.87500  0.37054  0.69344  1.0000
  H   H11       1.0  0.62498  0.87053  0.69343  1.0000
  H   H12       1.0  0.12500  0.62947  0.30657  1.0000
  H   H13       1.0  0.13250  0.26373  0.46788  1.0000
  H   H14       1.0  0.63249  0.23628  0.53212  1.0000
  H   H15       1.0  0.86749  0.73626  0.53211  1.0000
  H   H16       1.0  0.36752  0.76373  0.46788  1.0000
  H   H17       1.0  0.75567  0.43050  0.46450  1.0000
  H   H18       1.0  0.25566  0.06950  0.53551  1.0000
  H   H19       1.0  0.24433  0.56949  0.53550  1.0000
  H   H20       1.0  0.74435  0.93051  0.46450  1.0000
  H   H21       1.0  0.62667  0.46140  0.29813  1.0000
  H   H22       1.0  0.12667  0.03860  0.70188  1.0000
  H   H23       1.0  0.37334  0.53859  0.70188  1.0000
  H   H24       1.0  0.87334  0.96140  0.29812  1.0000
  C   C1        1.0  0.82015  0.32548  0.11139  1.0000
  C   C2        1.0  0.32015  0.17455  0.88862  1.0000
  C   C3        1.0  0.17984  0.67452  0.88861  1.0000
  C   C4        1.0  0.67985  0.82546  0.11139  1.0000
  C   C5        1.0  0.92124  0.31072  0.20932  1.0000
  C   C6        1.0  0.42123  0.18929  0.79068  1.0000
  C   C7        1.0  0.07877  0.68927  0.79068  1.0000
  C   C8        1.0  0.57877  0.81071  0.20932  1.0000
  C   C9        1.0  0.13399  0.21623  0.21119  1.0000
  C   C10       1.0  0.63400  0.28377  0.78882  1.0000
  C   C11       1.0  0.86598  0.78377  0.78879  1.0000
  C   C12       1.0  0.36600  0.71623  0.21119  1.0000
  C   C13       1.0  0.20779  0.20050  0.30502  1.0000
  C   C14       1.0  0.70778  0.29950  0.69498  1.0000
  C   C15       1.0  0.79222  0.79949  0.69498  1.0000
  C   C16       1.0  0.29222  0.70051  0.30502  1.0000
  C   C17       1.0  0.07141  0.27633  0.39536  1.0000
  C   C18       1.0  0.57140  0.22367  0.60465  1.0000
  C   C19       1.0  0.92858  0.72366  0.60463  1.0000
  C   C20       1.0  0.42862  0.77634  0.39536  1.0000
  C   C21       1.0  0.86108  0.37031  0.39382  1.0000
  C   C22       1.0  0.36108  0.12969  0.60618  1.0000
  C   C23       1.0  0.13895  0.62968  0.60619  1.0000
  C   C24       1.0  0.63894  0.87031  0.39382  1.0000
  C   C25       1.0  0.78928  0.38831  0.30121  1.0000
  C   C26       1.0  0.28927  0.11169  0.69880  1.0000
  C   C27       1.0  0.21070  0.61169  0.69878  1.0000
  C   C28       1.0  0.71073  0.88831  0.30121  1.0000
  N   N1        1.0  0.26786  0.13716  0.11896  1.0000
  N   N2        1.0  0.76787  0.36284  0.88105  1.0000
  N   N3        1.0  0.73215  0.86283  0.88104  1.0000
  N   N4        1.0  0.23214  0.63717  0.11896  1.0000
  O   O1        1.0  0.81338  0.20934  0.02887  1.0000
  O   O2        1.0  0.31338  0.29066  0.97113  1.0000
  O   O3        1.0  0.18661  0.79065  0.97112  1.0000
  O   O4        1.0  0.68661  0.70934  0.02887  1.0000
  O   O5        1.0  0.73673  0.45577  0.11582  1.0000
  O   O6        1.0  0.23673  0.04423  0.88419  1.0000
  O   O7        1.0  0.26326  0.54422  0.88418  1.0000
  O   O8        1.0  0.76327  0.95577  0.11581  1.0000
