data_image0
_chemical_formula_structural       Cd2H52C52N8O14
_chemical_formula_sum              "Cd2 H52 C52 N8 O14"
_cell_length_a       8.44089
_cell_length_b       10.5156
_cell_length_c       14.9249
_cell_angle_alpha    100.472
_cell_angle_beta     101.361
_cell_angle_gamma    98.626

_space_group_name_H-M_alt    "P 1"
_space_group_IT_number       1

loop_
  _space_group_symop_operation_xyz
  'x, y, z'

loop_
  _atom_site_type_symbol
  _atom_site_label
  _atom_site_symmetry_multiplicity
  _atom_site_fract_x
  _atom_site_fract_y
  _atom_site_fract_z
  _atom_site_occupancy
  Cd  Cd1       1.0  0.66346  0.90000  0.53996  1.0000
  Cd  Cd2       1.0  0.33654  0.09999  0.46004  1.0000
  H   H1        1.0  0.37152  0.62930  0.75947  1.0000
  H   H2        1.0  0.62848  0.37071  0.24053  1.0000
  H   H3        1.0  0.96650  0.11510  0.30136  1.0000
  H   H4        1.0  0.03349  0.88490  0.69863  1.0000
  H   H5        1.0  0.77891  0.09739  0.73658  1.0000
  H   H6        1.0  0.22109  0.90261  0.26342  1.0000
  H   H7        1.0  0.76555  0.11024  0.90564  1.0000
  H   H8        1.0  0.23446  0.88976  0.09436  1.0000
  H   H9        1.0  0.59507  0.92690  0.94756  1.0000
  H   H10       1.0  0.40493  0.07311  0.05244  1.0000
  H   H11       1.0  0.45382  0.73839  0.65289  1.0000
  H   H12       1.0  0.54618  0.26161  0.34711  1.0000
  H   H13       1.0  0.32093  0.46799  0.84707  1.0000
  H   H14       1.0  0.67907  0.53202  0.15294  1.0000
  H   H15       1.0  0.15461  0.54881  0.85153  1.0000
  H   H16       1.0  0.84539  0.45120  0.14847  1.0000
  H   H17       1.0  0.39398  0.50854  0.02337  1.0000
  H   H18       1.0  0.60602  0.49146  0.97663  1.0000
  H   H19       1.0  0.23288  0.59531  0.02876  1.0000
  H   H20       1.0  0.76712  0.40469  0.97124  1.0000
  H   H21       1.0  0.18871  0.30222  0.93518  1.0000
  H   H22       1.0  0.81129  0.69778  0.06482  1.0000
  H   H23       1.0  0.02732  0.38985  0.94228  1.0000
  H   H24       1.0  0.97268  0.61015  0.05772  1.0000
  H   H25       1.0  0.27357  0.34526  0.10927  1.0000
  H   H26       1.0  0.72643  0.65474  0.89073  1.0000
  H   H27       1.0  0.11866  0.43866  0.11934  1.0000
  H   H28       1.0  0.88134  0.56134  0.88066  1.0000
  H   H29       1.0  0.05945  0.14453  0.02518  1.0000
  H   H30       1.0  0.94055  0.85547  0.97481  1.0000
  H   H31       1.0  0.90311  0.23723  0.03260  1.0000
  H   H32       1.0  0.09689  0.76277  0.96739  1.0000
  H   H33       1.0  0.98810  0.28413  0.20889  1.0000
  H   H34       1.0  0.01189  0.71586  0.79111  1.0000
  H   H35       1.0  0.14166  0.19046  0.20198  1.0000
  H   H36       1.0  0.85834  0.80954  0.79802  1.0000
  H   H37       1.0  0.65314  0.84895  0.12092  1.0000
  H   H38       1.0  0.34687  0.15105  0.87908  1.0000
  H   H39       1.0  0.46589  0.68653  0.17314  1.0000
  H   H40       1.0  0.53411  0.31347  0.82686  1.0000
  H   H41       1.0  0.48040  0.70763  0.34585  1.0000
  H   H42       1.0  0.51960  0.29237  0.65415  1.0000
  H   H43       1.0  0.86057  0.03265  0.41283  1.0000
  H   H44       1.0  0.13943  0.96735  0.58717  1.0000
  H   H45       1.0  0.11876  0.68099  0.63007  1.0000
  H   H46       1.0  0.88124  0.31901  0.36993  1.0000
  H   H47       1.0  0.09657  0.26733  0.62268  1.0000
  H   H48       1.0  0.90343  0.73267  0.37732  1.0000
  H   H49       1.0  0.65077  0.41152  0.53869  1.0000
  H   H50       1.0  0.34923  0.58848  0.46131  1.0000
  H   H51       1.0  0.33331  0.44746  0.59836  1.0000
  H   H52       1.0  0.66669  0.55254  0.40164  1.0000
  C   C1        1.0  0.70255  0.02082  0.75815  1.0000
  C   C2        1.0  0.29745  0.97918  0.24185  1.0000
  C   C3        1.0  0.69553  0.02636  0.85104  1.0000
  C   C4        1.0  0.30447  0.97364  0.14896  1.0000
  C   C5        1.0  0.59957  0.92420  0.87516  1.0000
  C   C6        1.0  0.40043  0.07580  0.12484  1.0000
  C   C7        1.0  0.51171  0.81620  0.80363  1.0000
  C   C8        1.0  0.48829  0.18380  0.19637  1.0000
  C   C9        1.0  0.52189  0.81915  0.71098  1.0000
  C   C10       1.0  0.47811  0.18085  0.28903  1.0000
  C   C11       1.0  0.38971  0.67818  0.90156  1.0000
  C   C12       1.0  0.61029  0.32182  0.09844  1.0000
  C   C13       1.0  0.27851  0.54572  0.89122  1.0000
  C   C14       1.0  0.72149  0.45429  0.10878  1.0000
  C   C15       1.0  0.26971  0.51321  0.98567  1.0000
  C   C16       1.0  0.73029  0.48679  0.01433  1.0000
  C   C17       1.0  0.15273  0.38460  0.97852  1.0000
  C   C18       1.0  0.84727  0.61540  0.02148  1.0000
  C   C19       1.0  0.14909  0.35430  0.07441  1.0000
  C   C20       1.0  0.85090  0.64570  0.92559  1.0000
  C   C21       1.0  0.02709  0.22883  0.06841  1.0000
  C   C22       1.0  0.97291  0.77117  0.93159  1.0000
  C   C23       1.0  0.02000  0.20076  0.16402  1.0000
  C   C24       1.0  0.98000  0.79923  0.83597  1.0000
  C   C25       1.0  0.89596  0.07718  0.15800  1.0000
  C   C26       1.0  0.10404  0.92281  0.84200  1.0000
  C   C27       1.0  0.77451  0.95372  0.26296  1.0000
  C   C28       1.0  0.22549  0.04628  0.73704  1.0000
  C   C29       1.0  0.66110  0.85382  0.19499  1.0000
  C   C30       1.0  0.33890  0.14618  0.80501  1.0000
  C   C31       1.0  0.55587  0.76376  0.22485  1.0000
  C   C32       1.0  0.44413  0.23624  0.77515  1.0000
  C   C33       1.0  0.56216  0.77472  0.31971  1.0000
  C   C34       1.0  0.43784  0.22528  0.68029  1.0000
  C   C35       1.0  0.77423  0.95735  0.35760  1.0000
  C   C36       1.0  0.22577  0.04265  0.64240  1.0000
  C   C37       1.0  0.79589  0.67018  0.56388  1.0000
  C   C38       1.0  0.20412  0.32982  0.43612  1.0000
  C   C39       1.0  0.87542  0.55877  0.58701  1.0000
  C   C40       1.0  0.12458  0.44123  0.41299  1.0000
  C   C41       1.0  0.04667  0.58224  0.61940  1.0000
  C   C42       1.0  0.95333  0.41775  0.38060  1.0000
  C   C43       1.0  0.12666  0.47699  0.62915  1.0000
  C   C44       1.0  0.87334  0.52301  0.37085  1.0000
  C   C45       1.0  0.03531  0.34969  0.61381  1.0000
  C   C46       1.0  0.96469  0.65031  0.38619  1.0000
  C   C47       1.0  0.86369  0.32621  0.58215  1.0000
  C   C48       1.0  0.13631  0.67379  0.41785  1.0000
  C   C49       1.0  0.78337  0.43034  0.56728  1.0000
  C   C50       1.0  0.21662  0.56966  0.43272  1.0000
  C   C51       1.0  0.76942  0.18686  0.55871  1.0000
  C   C52       1.0  0.23058  0.81314  0.44129  1.0000
  N   N1        1.0  0.61497  0.91881  0.68926  1.0000
  N   N2        1.0  0.38503  0.08119  0.31074  1.0000
  N   N3        1.0  0.41629  0.70439  0.81797  1.0000
  N   N4        1.0  0.58371  0.29561  0.18203  1.0000
  N   N5        1.0  0.88488  0.05198  0.24420  1.0000
  N   N6        1.0  0.11512  0.94801  0.75580  1.0000
  N   N7        1.0  0.67009  0.87132  0.38461  1.0000
  N   N8        1.0  0.32991  0.12868  0.61539  1.0000
  O   O1        1.0  0.44858  0.75465  0.97828  1.0000
  O   O2        1.0  0.55143  0.24535  0.02172  1.0000
  O   O3        1.0  0.81211  0.00743  0.08304  1.0000
  O   O4        1.0  0.18790  0.99256  0.91696  1.0000
  O   O5        1.0  0.87075  0.78828  0.60255  1.0000
  O   O6        1.0  0.12925  0.21171  0.39745  1.0000
  O   O7        1.0  0.65762  0.64515  0.50428  1.0000
  O   O8        1.0  0.34238  0.35485  0.49572  1.0000
  O   O9        1.0  0.62232  0.16189  0.51056  1.0000
  O   O10       1.0  0.37768  0.83811  0.48944  1.0000
  O   O11       1.0  0.84483  0.09956  0.58697  1.0000
  O   O12       1.0  0.15516  0.90044  0.41303  1.0000
  O   O13       1.0  0.29671  0.50116  0.65114  1.0000
  O   O14       1.0  0.70329  0.49884  0.34886  1.0000
