data_image0
_chemical_formula_structural       Cd2H52C52N8O12
_chemical_formula_sum              "Cd2 H52 C52 N8 O12"
_cell_length_a       8.3817
_cell_length_b       10.5297
_cell_length_c       14.623
_cell_angle_alpha    100.49
_cell_angle_beta     100.979
_cell_angle_gamma    95.4127

_space_group_name_H-M_alt    "P 1"
_space_group_IT_number       1

loop_
  _space_group_symop_operation_xyz
  'x, y, z'

loop_
  _atom_site_type_symbol
  _atom_site_label
  _atom_site_symmetry_multiplicity
  _atom_site_fract_x
  _atom_site_fract_y
  _atom_site_fract_z
  _atom_site_occupancy
  Cd  Cd1       1.0  0.66381  0.89534  0.54513  1.0000
  Cd  Cd2       1.0  0.33619  0.10467  0.45487  1.0000
  H   H1        1.0  0.33530  0.65772  0.76636  1.0000
  H   H2        1.0  0.66471  0.34229  0.23365  1.0000
  H   H3        1.0  0.96126  0.12363  0.30846  1.0000
  H   H4        1.0  0.03874  0.87637  0.69154  1.0000
  H   H5        1.0  0.78326  0.08836  0.74689  1.0000
  H   H6        1.0  0.21675  0.91164  0.25311  1.0000
  H   H7        1.0  0.76919  0.09552  0.91982  1.0000
  H   H8        1.0  0.23082  0.90448  0.08018  1.0000
  H   H9        1.0  0.58934  0.92323  0.95942  1.0000
  H   H10       1.0  0.41067  0.07677  0.04058  1.0000
  H   H11       1.0  0.45092  0.75204  0.65796  1.0000
  H   H12       1.0  0.54908  0.24796  0.34204  1.0000
  H   H13       1.0  0.33121  0.47455  0.85580  1.0000
  H   H14       1.0  0.66877  0.52545  0.14420  1.0000
  H   H15       1.0  0.16159  0.55922  0.85750  1.0000
  H   H16       1.0  0.83840  0.44080  0.14250  1.0000
  H   H17       1.0  0.39468  0.51273  0.03408  1.0000
  H   H18       1.0  0.60531  0.48727  0.96591  1.0000
  H   H19       1.0  0.22729  0.60029  0.03807  1.0000
  H   H20       1.0  0.77271  0.39971  0.96193  1.0000
  H   H21       1.0  0.03628  0.39919  0.94567  1.0000
  H   H22       1.0  0.96371  0.60082  0.05433  1.0000
  H   H23       1.0  0.20566  0.31242  0.94195  1.0000
  H   H24       1.0  0.79433  0.68759  0.05804  1.0000
  H   H25       1.0  0.11233  0.44292  0.12617  1.0000
  H   H26       1.0  0.88766  0.55708  0.87382  1.0000
  H   H27       1.0  0.27436  0.34941  0.11869  1.0000
  H   H28       1.0  0.72564  0.65059  0.88131  1.0000
  H   H29       1.0  0.91177  0.24654  0.03330  1.0000
  H   H30       1.0  0.08823  0.75345  0.96670  1.0000
  H   H31       1.0  0.07473  0.15326  0.02966  1.0000
  H   H32       1.0  0.92528  0.84674  0.97034  1.0000
  H   H33       1.0  0.14155  0.19500  0.20919  1.0000
  H   H34       1.0  0.85846  0.80500  0.79080  1.0000
  H   H35       1.0  0.98381  0.29130  0.21344  1.0000
  H   H36       1.0  0.01619  0.70869  0.78656  1.0000
  H   H37       1.0  0.67527  0.86187  0.12218  1.0000
  H   H38       1.0  0.32473  0.13813  0.87782  1.0000
  H   H39       1.0  0.49347  0.69945  0.17145  1.0000
  H   H40       1.0  0.50653  0.30055  0.82855  1.0000
  H   H41       1.0  0.49866  0.71437  0.34722  1.0000
  H   H42       1.0  0.50134  0.28563  0.65278  1.0000
  H   H43       1.0  0.85513  0.03751  0.41950  1.0000
  H   H44       1.0  0.14488  0.96249  0.58050  1.0000
  H   H45       1.0  0.12914  0.65808  0.63623  1.0000
  H   H46       1.0  0.87086  0.34192  0.36376  1.0000
  H   H47       1.0  0.25846  0.45949  0.66995  1.0000
  H   H48       1.0  0.74153  0.54052  0.33005  1.0000
  H   H49       1.0  0.08123  0.24727  0.64260  1.0000
  H   H50       1.0  0.91876  0.75273  0.35741  1.0000
  H   H51       1.0  0.65823  0.42374  0.53980  1.0000
  H   H52       1.0  0.34177  0.57626  0.46020  1.0000
  C   C1        1.0  0.70468  0.01602  0.76861  1.0000
  C   C2        1.0  0.29532  0.98398  0.23139  1.0000
  C   C3        1.0  0.69628  0.01910  0.86299  1.0000
  C   C4        1.0  0.30372  0.98090  0.13701  1.0000
  C   C5        1.0  0.59533  0.92253  0.88598  1.0000
  C   C6        1.0  0.40467  0.07747  0.11402  1.0000
  C   C7        1.0  0.50466  0.82289  0.81216  1.0000
  C   C8        1.0  0.49535  0.17710  0.18784  1.0000
  C   C9        1.0  0.51833  0.82681  0.71852  1.0000
  C   C10       1.0  0.48167  0.17319  0.28148  1.0000
  C   C11       1.0  0.39452  0.68003  0.91085  1.0000
  C   C12       1.0  0.60548  0.31997  0.08915  1.0000
  C   C13       1.0  0.28364  0.55316  0.89940  1.0000
  C   C14       1.0  0.71635  0.44685  0.10060  1.0000
  C   C15       1.0  0.27125  0.51950  0.99474  1.0000
  C   C16       1.0  0.72874  0.48050  0.00526  1.0000
  C   C17       1.0  0.16040  0.39273  0.98489  1.0000
  C   C18       1.0  0.83959  0.60727  0.01510  1.0000
  C   C19       1.0  0.15076  0.36015  0.08116  1.0000
  C   C20       1.0  0.84924  0.63986  0.91884  1.0000
  C   C21       1.0  0.03432  0.23644  0.07245  1.0000
  C   C22       1.0  0.96569  0.76356  0.92755  1.0000
  C   C23       1.0  0.02105  0.20768  0.16896  1.0000
  C   C24       1.0  0.97896  0.79232  0.83104  1.0000
  C   C25       1.0  0.90042  0.08783  0.16214  1.0000
  C   C26       1.0  0.09959  0.91216  0.83786  1.0000
  C   C27       1.0  0.78148  0.96296  0.26696  1.0000
  C   C28       1.0  0.21853  0.03704  0.73304  1.0000
  C   C29       1.0  0.67809  0.86494  0.19697  1.0000
  C   C30       1.0  0.32192  0.13506  0.80303  1.0000
  C   C31       1.0  0.57638  0.77415  0.22548  1.0000
  C   C32       1.0  0.42362  0.22585  0.77452  1.0000
  C   C33       1.0  0.57729  0.78208  0.32146  1.0000
  C   C34       1.0  0.42271  0.21792  0.67855  1.0000
  C   C35       1.0  0.77626  0.96386  0.36264  1.0000
  C   C36       1.0  0.22375  0.03614  0.63736  1.0000
  C   C37       1.0  0.80969  0.67251  0.57248  1.0000
  C   C38       1.0  0.19030  0.32749  0.42752  1.0000
  C   C39       1.0  0.88572  0.55407  0.59156  1.0000
  C   C40       1.0  0.11427  0.44593  0.40844  1.0000
  C   C41       1.0  0.05512  0.56379  0.62688  1.0000
  C   C42       1.0  0.94487  0.43621  0.37312  1.0000
  C   C43       1.0  0.12600  0.45402  0.64551  1.0000
  C   C44       1.0  0.87399  0.54598  0.35449  1.0000
  C   C45       1.0  0.02836  0.33392  0.62857  1.0000
  C   C46       1.0  0.97163  0.66608  0.37144  1.0000
  C   C47       1.0  0.86019  0.32165  0.58896  1.0000
  C   C48       1.0  0.13980  0.67835  0.41104  1.0000
  C   C49       1.0  0.78889  0.43220  0.57110  1.0000
  C   C50       1.0  0.21111  0.56780  0.42889  1.0000
  C   C51       1.0  0.76029  0.18841  0.56121  1.0000
  C   C52       1.0  0.23971  0.81158  0.43879  1.0000
  N   N1        1.0  0.61550  0.92115  0.69786  1.0000
  N   N2        1.0  0.38451  0.07885  0.30214  1.0000
  N   N3        1.0  0.40273  0.71823  0.82629  1.0000
  N   N4        1.0  0.59728  0.28177  0.17371  1.0000
  N   N5        1.0  0.88654  0.06150  0.24914  1.0000
  N   N6        1.0  0.11347  0.93850  0.75087  1.0000
  N   N7        1.0  0.67609  0.87680  0.38832  1.0000
  N   N8        1.0  0.32391  0.12321  0.61168  1.0000
  O   O1        1.0  0.47234  0.74207  0.98895  1.0000
  O   O2        1.0  0.52766  0.25793  0.01105  1.0000
  O   O3        1.0  0.82121  0.02202  0.08524  1.0000
  O   O4        1.0  0.17881  0.97797  0.91477  1.0000
  O   O5        1.0  0.90176  0.78329  0.59315  1.0000
  O   O6        1.0  0.09824  0.21671  0.40685  1.0000
  O   O7        1.0  0.65749  0.66089  0.53700  1.0000
  O   O8        1.0  0.34251  0.33911  0.46299  1.0000
  O   O9        1.0  0.62221  0.17468  0.50459  1.0000
  O   O10       1.0  0.37778  0.82531  0.49541  1.0000
  O   O11       1.0  0.82450  0.09638  0.59467  1.0000
  O   O12       1.0  0.17550  0.90362  0.40533  1.0000
