data_image0
_chemical_formula_structural       Cu4H20C28N4Cl4
_chemical_formula_sum              "Cu4 H20 C28 N4 Cl4"
_cell_length_a       3.75925
_cell_length_b       10.8433
_cell_length_c       16.9317
_cell_angle_alpha    89.9965
_cell_angle_beta     89.9991
_cell_angle_gamma    98.5964

_space_group_name_H-M_alt    "P 1"
_space_group_IT_number       1

loop_
  _space_group_symop_operation_xyz
  'x, y, z'

loop_
  _atom_site_type_symbol
  _atom_site_label
  _atom_site_symmetry_multiplicity
  _atom_site_fract_x
  _atom_site_fract_y
  _atom_site_fract_z
  _atom_site_occupancy
  Cu  Cu1       1.0  0.68992  0.90179  0.95248  1.0000
  Cu  Cu2       1.0  0.81004  0.59822  0.45247  1.0000
  Cu  Cu3       1.0  0.31009  0.09824  0.04753  1.0000
  Cu  Cu4       1.0  0.18987  0.40174  0.54752  1.0000
  H   H1        1.0  0.69100  0.42795  0.97498  1.0000
  H   H2        1.0  0.80901  0.07204  0.47498  1.0000
  H   H3        1.0  0.30916  0.57207  0.02502  1.0000
  H   H4        1.0  0.19087  0.92790  0.52503  1.0000
  H   H5        1.0  0.85842  0.22897  0.92583  1.0000
  H   H6        1.0  0.64147  0.27102  0.42585  1.0000
  H   H7        1.0  0.14157  0.77102  0.07415  1.0000
  H   H8        1.0  0.35850  0.72896  0.57418  1.0000
  H   H9        1.0  0.13506  0.21935  0.79388  1.0000
  H   H10       1.0  0.36489  0.28069  0.29390  1.0000
  H   H11       1.0  0.86493  0.78066  0.20609  1.0000
  H   H12       1.0  0.63513  0.71931  0.70612  1.0000
  H   H13       1.0  0.23542  0.40932  0.70780  1.0000
  H   H14       1.0  0.26460  0.09078  0.20780  1.0000
  H   H15       1.0  0.76460  0.59073  0.29219  1.0000
  H   H16       1.0  0.73539  0.90924  0.79220  1.0000
  H   H17       1.0  0.06982  0.60842  0.75625  1.0000
  H   H18       1.0  0.43019  0.89165  0.25624  1.0000
  H   H19       1.0  0.93032  0.39162  0.24375  1.0000
  H   H20       1.0  0.56973  0.10834  0.74375  1.0000
  C   C1        1.0  0.87418  0.53127  0.86906  1.0000
  C   C2        1.0  0.62580  0.96875  0.36905  1.0000
  C   C3        1.0  0.12595  0.46875  0.13095  1.0000
  C   C4        1.0  0.37412  0.03120  0.63095  1.0000
  C   C5        1.0  0.81222  0.42371  0.91687  1.0000
  C   C6        1.0  0.68779  0.07630  0.41687  1.0000
  C   C7        1.0  0.18787  0.57631  0.08313  1.0000
  C   C8        1.0  0.31219  0.92366  0.58313  1.0000
  C   C9        1.0  0.90480  0.31223  0.88907  1.0000
  C   C10       1.0  0.59518  0.18779  0.38908  1.0000
  C   C11       1.0  0.09525  0.68779  0.11092  1.0000
  C   C12       1.0  0.40476  0.81219  0.61093  1.0000
  C   C13       1.0  0.05792  0.30697  0.81413  1.0000
  C   C14       1.0  0.44202  0.19307  0.31415  1.0000
  C   C15       1.0  0.94210  0.69306  0.18585  1.0000
  C   C16       1.0  0.55789  0.80692  0.68586  1.0000
  C   C17       1.0  0.11612  0.41301  0.76627  1.0000
  C   C18       1.0  0.38385  0.08705  0.26628  1.0000
  C   C19       1.0  0.88392  0.58703  0.23372  1.0000
  C   C20       1.0  0.61609  0.91294  0.73373  1.0000
  C   C21       1.0  0.02481  0.52534  0.79320  1.0000
  C   C22       1.0  0.47515  0.97472  0.29319  1.0000
  C   C23       1.0  0.97530  0.47470  0.20680  1.0000
  C   C24       1.0  0.52476  0.02526  0.70681  1.0000
  C   C25       1.0  0.78473  0.64567  0.89714  1.0000
  C   C26       1.0  0.71524  0.85435  0.39712  1.0000
  C   C27       1.0  0.21538  0.35435  0.10289  1.0000
  C   C28       1.0  0.28465  0.14564  0.60289  1.0000
  N   N1        1.0  0.71392  0.74072  0.92062  1.0000
  N   N2        1.0  0.78605  0.75928  0.42060  1.0000
  N   N3        1.0  0.28617  0.25930  0.07940  1.0000
  N   N4        1.0  0.21388  0.24069  0.57939  1.0000
  Cl  Cl1       1.0  0.26653  0.02660  0.91355  1.0000
  Cl  Cl2       1.0  0.23344  0.47342  0.41354  1.0000
  Cl  Cl3       1.0  0.73351  0.97342  0.08646  1.0000
  Cl  Cl4       1.0  0.76647  0.52655  0.58645  1.0000
