data_image0
_chemical_formula_structural       Cd4H40C16O24
_chemical_formula_sum              "Cd4 H40 C16 O24"
_cell_length_a       8.07413
_cell_length_b       8.55449
_cell_length_c       11.8039
_cell_angle_alpha    89.9998
_cell_angle_beta     89.9997
_cell_angle_gamma    90.0001

_space_group_name_H-M_alt    "P 1"
_space_group_IT_number       1

loop_
  _space_group_symop_operation_xyz
  'x, y, z'

loop_
  _atom_site_type_symbol
  _atom_site_label
  _atom_site_symmetry_multiplicity
  _atom_site_fract_x
  _atom_site_fract_y
  _atom_site_fract_z
  _atom_site_occupancy
  Cd  Cd1       1.0  0.43676  0.30213  0.42767  1.0000
  Cd  Cd2       1.0  0.06324  0.69786  0.92767  1.0000
  Cd  Cd3       1.0  0.56324  0.80214  0.07234  1.0000
  Cd  Cd4       1.0  0.93676  0.19787  0.57234  1.0000
  H   H1        1.0  0.68189  0.79299  0.54100  1.0000
  H   H2        1.0  0.81811  0.20701  0.04100  1.0000
  H   H3        1.0  0.31811  0.29299  0.95900  1.0000
  H   H4        1.0  0.18189  0.70701  0.45900  1.0000
  H   H5        1.0  0.47849  0.85653  0.50332  1.0000
  H   H6        1.0  0.02151  0.14347  0.00332  1.0000
  H   H7        1.0  0.52151  0.35652  0.99668  1.0000
  H   H8        1.0  0.97849  0.64348  0.49668  1.0000
  H   H9        1.0  0.63185  0.84565  0.39832  1.0000
  H   H10       1.0  0.86814  0.15434  0.89831  1.0000
  H   H11       1.0  0.36814  0.34565  0.10168  1.0000
  H   H12       1.0  0.13186  0.65435  0.60168  1.0000
  H   H13       1.0  0.60731  0.16580  0.79914  1.0000
  H   H14       1.0  0.89269  0.83419  0.29914  1.0000
  H   H15       1.0  0.39269  0.66581  0.70087  1.0000
  H   H16       1.0  0.10731  0.33420  0.20087  1.0000
  H   H17       1.0  0.70774  0.00334  0.73330  1.0000
  H   H18       1.0  0.79226  0.99665  0.23330  1.0000
  H   H19       1.0  0.29227  0.50334  0.76670  1.0000
  H   H20       1.0  0.20774  0.49666  0.26670  1.0000
  H   H21       1.0  0.49167  0.99574  0.76896  1.0000
  H   H22       1.0  0.00833  0.00426  0.26896  1.0000
  H   H23       1.0  0.50833  0.49574  0.73105  1.0000
  H   H24       1.0  0.99167  0.50426  0.23104  1.0000
  H   H25       1.0  0.73449  0.31160  0.31356  1.0000
  H   H26       1.0  0.76551  0.68840  0.81356  1.0000
  H   H27       1.0  0.26551  0.81160  0.18644  1.0000
  H   H28       1.0  0.23449  0.18840  0.68644  1.0000
  H   H29       1.0  0.60697  0.23300  0.22031  1.0000
  H   H30       1.0  0.89303  0.76700  0.72031  1.0000
  H   H31       1.0  0.39303  0.73300  0.27969  1.0000
  H   H32       1.0  0.10697  0.26700  0.77969  1.0000
  H   H33       1.0  0.36008  0.00109  0.29496  1.0000
  H   H34       1.0  0.13992  0.99891  0.79497  1.0000
  H   H35       1.0  0.63992  0.50109  0.20503  1.0000
  H   H36       1.0  0.86008  0.49891  0.70503  1.0000
  H   H37       1.0  0.23386  0.04052  0.39427  1.0000
  H   H38       1.0  0.26614  0.95948  0.89427  1.0000
  H   H39       1.0  0.76614  0.54052  0.10572  1.0000
  H   H40       1.0  0.73386  0.45948  0.60572  1.0000
  C   C1        1.0  0.53146  0.62399  0.44987  1.0000
  C   C2        1.0  0.96854  0.37601  0.94986  1.0000
  C   C3        1.0  0.46853  0.12399  0.05013  1.0000
  C   C4        1.0  0.03147  0.87601  0.55013  1.0000
  C   C5        1.0  0.58648  0.78831  0.47544  1.0000
  C   C6        1.0  0.91352  0.21168  0.97543  1.0000
  C   C7        1.0  0.41351  0.28831  0.02456  1.0000
  C   C8        1.0  0.08649  0.71169  0.52456  1.0000
  C   C9        1.0  0.54882  0.14005  0.62511  1.0000
  C   C10       1.0  0.95118  0.85994  0.12511  1.0000
  C   C11       1.0  0.45118  0.64006  0.87489  1.0000
  C   C12       1.0  0.04882  0.35995  0.37489  1.0000
  C   C13       1.0  0.59248  0.07000  0.73793  1.0000
  C   C14       1.0  0.90752  0.92999  0.23793  1.0000
  C   C15       1.0  0.40753  0.57001  0.76207  1.0000
  C   C16       1.0  0.09247  0.43000  0.26207  1.0000
  O   O1        1.0  0.42932  0.59967  0.36934  1.0000
  O   O2        1.0  0.07068  0.40033  0.86934  1.0000
  O   O3        1.0  0.57067  0.09966  0.13066  1.0000
  O   O4        1.0  0.92933  0.90033  0.63066  1.0000
  O   O5        1.0  0.58362  0.51037  0.51052  1.0000
  O   O6        1.0  0.91638  0.48963  0.01052  1.0000
  O   O7        1.0  0.41637  0.01037  0.98948  1.0000
  O   O8        1.0  0.08363  0.98964  0.48947  1.0000
  O   O9        1.0  0.40193  0.19211  0.60945  1.0000
  O   O10       1.0  0.09807  0.80789  0.10945  1.0000
  O   O11       1.0  0.59807  0.69212  0.89055  1.0000
  O   O12       1.0  0.90192  0.30789  0.39056  1.0000
  O   O13       1.0  0.65515  0.14979  0.54530  1.0000
  O   O14       1.0  0.84485  0.85021  0.04530  1.0000
  O   O15       1.0  0.34485  0.64979  0.95470  1.0000
  O   O16       1.0  0.15515  0.35021  0.45470  1.0000
  O   O17       1.0  0.62112  0.32003  0.27818  1.0000
  O   O18       1.0  0.87887  0.67997  0.77818  1.0000
  O   O19       1.0  0.37888  0.82003  0.22182  1.0000
  O   O20       1.0  0.12113  0.17997  0.72182  1.0000
  O   O21       1.0  0.31241  0.08892  0.33946  1.0000
  O   O22       1.0  0.18759  0.91108  0.83946  1.0000
  O   O23       1.0  0.68759  0.58892  0.16054  1.0000
  O   O24       1.0  0.81241  0.41109  0.66054  1.0000
