data_image0
_chemical_formula_structural       Cd4H16C8N16Cl8
_chemical_formula_sum              "Cd4 H16 C8 N16 Cl8"
_cell_length_a       6.85173
_cell_length_b       9.00575
_cell_length_c       10.699
_cell_angle_alpha    90.0002
_cell_angle_beta     98.8555
_cell_angle_gamma    90.0007

_space_group_name_H-M_alt    "P 1"
_space_group_IT_number       1

loop_
  _space_group_symop_operation_xyz
  'x, y, z'

loop_
  _atom_site_type_symbol
  _atom_site_label
  _atom_site_symmetry_multiplicity
  _atom_site_fract_x
  _atom_site_fract_y
  _atom_site_fract_z
  _atom_site_occupancy
  Cd  Cd1       1.0  0.74711  0.09466  0.47332  1.0000
  Cd  Cd2       1.0  0.75289  0.59466  0.02668  1.0000
  Cd  Cd3       1.0  0.25289  0.90534  0.52668  1.0000
  Cd  Cd4       1.0  0.24711  0.40534  0.97332  1.0000
  H   H1        1.0  0.66381  0.39379  0.37138  1.0000
  H   H2        1.0  0.83618  0.89379  0.12862  1.0000
  H   H3        1.0  0.33618  0.60621  0.62863  1.0000
  H   H4        1.0  0.16382  0.10621  0.87138  1.0000
  H   H5        1.0  0.63554  0.58390  0.39723  1.0000
  H   H6        1.0  0.86446  0.08389  0.10277  1.0000
  H   H7        1.0  0.36445  0.41611  0.60277  1.0000
  H   H8        1.0  0.13554  0.91611  0.89723  1.0000
  H   H9        1.0  0.77148  0.69258  0.58613  1.0000
  H   H10       1.0  0.72851  0.19257  0.91387  1.0000
  H   H11       1.0  0.22851  0.30743  0.41387  1.0000
  H   H12       1.0  0.27149  0.80743  0.08613  1.0000
  H   H13       1.0  0.89772  0.58801  0.70895  1.0000
  H   H14       1.0  0.60228  0.08801  0.79106  1.0000
  H   H15       1.0  0.10228  0.41199  0.29106  1.0000
  H   H16       1.0  0.39772  0.91199  0.20895  1.0000
  C   C1        1.0  0.97391  0.31993  0.69328  1.0000
  C   C2        1.0  0.52608  0.81993  0.80672  1.0000
  C   C3        1.0  0.02609  0.68007  0.30673  1.0000
  C   C4        1.0  0.47393  0.18007  0.19328  1.0000
  C   C5        1.0  0.79406  0.47173  0.54519  1.0000
  C   C6        1.0  0.70593  0.97173  0.95480  1.0000
  C   C7        1.0  0.20594  0.52826  0.45481  1.0000
  C   C8        1.0  0.29407  0.02827  0.04520  1.0000
  N   N1        1.0  0.86740  0.33531  0.58303  1.0000
  N   N2        1.0  0.63259  0.83530  0.91697  1.0000
  N   N3        1.0  0.13259  0.66470  0.41697  1.0000
  N   N4        1.0  0.36742  0.16469  0.08303  1.0000
  N   N5        1.0  0.07297  0.29604  0.79162  1.0000
  N   N6        1.0  0.42701  0.79604  0.70837  1.0000
  N   N7        1.0  0.92702  0.70396  0.20838  1.0000
  N   N8        1.0  0.57300  0.20397  0.29163  1.0000
  N   N9        1.0  0.69583  0.48452  0.42812  1.0000
  N   N10       1.0  0.80416  0.98451  0.07188  1.0000
  N   N11       1.0  0.30416  0.51548  0.57189  1.0000
  N   N12       1.0  0.19584  0.01549  0.92812  1.0000
  N   N13       1.0  0.81919  0.59091  0.61966  1.0000
  N   N14       1.0  0.68080  0.09090  0.88034  1.0000
  N   N15       1.0  0.18080  0.40909  0.38034  1.0000
  N   N16       1.0  0.31920  0.90909  0.11966  1.0000
  Cl  Cl1       1.0  0.04355  0.05787  0.34885  1.0000
  Cl  Cl2       1.0  0.45645  0.55787  0.15115  1.0000
  Cl  Cl3       1.0  0.95645  0.94213  0.65115  1.0000
  Cl  Cl4       1.0  0.54355  0.44213  0.84885  1.0000
  Cl  Cl5       1.0  0.55353  0.84281  0.40511  1.0000
  Cl  Cl6       1.0  0.94647  0.34280  0.09488  1.0000
  Cl  Cl7       1.0  0.44647  0.15719  0.59489  1.0000
  Cl  Cl8       1.0  0.05354  0.65720  0.90512  1.0000
