data_image0
_chemical_formula_structural       Cd4H16C24N8O16
_chemical_formula_sum              "Cd4 H16 C24 N8 O16"
_cell_length_a       4.46239
_cell_length_b       10.256
_cell_length_c       17.558
_cell_angle_alpha    90
_cell_angle_beta     95.3532
_cell_angle_gamma    90

_space_group_name_H-M_alt    "P 1"
_space_group_IT_number       1

loop_
  _space_group_symop_operation_xyz
  'x, y, z'

loop_
  _atom_site_type_symbol
  _atom_site_label
  _atom_site_symmetry_multiplicity
  _atom_site_fract_x
  _atom_site_fract_y
  _atom_site_fract_z
  _atom_site_occupancy
  Cd  Cd1       1.0  0.31817  0.54411  0.40201  1.0000
  Cd  Cd2       1.0  0.18183  0.04411  0.09799  1.0000
  Cd  Cd3       1.0  0.68183  0.45589  0.59799  1.0000
  Cd  Cd4       1.0  0.81817  0.95589  0.90201  1.0000
  H   H1        1.0  0.73566  0.16825  0.51251  1.0000
  H   H2        1.0  0.76434  0.66825  0.98749  1.0000
  H   H3        1.0  0.26434  0.83175  0.48749  1.0000
  H   H4        1.0  0.23566  0.33175  0.01251  1.0000
  H   H5        1.0  0.50799  0.89758  0.32640  1.0000
  H   H6        1.0  0.99201  0.39758  0.17360  1.0000
  H   H7        1.0  0.49201  0.10242  0.67360  1.0000
  H   H8        1.0  0.00799  0.60242  0.82640  1.0000
  H   H9        1.0  0.46718  0.77338  0.25705  1.0000
  H   H10       1.0  0.03282  0.27338  0.24295  1.0000
  H   H11       1.0  0.53282  0.22662  0.74296  1.0000
  H   H12       1.0  0.96718  0.72662  0.75705  1.0000
  H   H13       1.0  0.53148  0.18138  0.42200  1.0000
  H   H14       1.0  0.96852  0.68138  0.07800  1.0000
  H   H15       1.0  0.46852  0.81862  0.57800  1.0000
  H   H16       1.0  0.03148  0.31862  0.92200  1.0000
  C   C1        1.0  0.87496  0.32646  0.44178  1.0000
  C   C2        1.0  0.62504  0.82646  0.05822  1.0000
  C   C3        1.0  0.12504  0.67354  0.55822  1.0000
  C   C4        1.0  0.37496  0.17354  0.94178  1.0000
  C   C5        1.0  0.76004  0.18743  0.45168  1.0000
  C   C6        1.0  0.73996  0.68743  0.04832  1.0000
  C   C7        1.0  0.23997  0.81257  0.54832  1.0000
  C   C8        1.0  0.26004  0.31257  0.95168  1.0000
  C   C9        1.0  0.95153  0.08897  0.42244  1.0000
  C   C10       1.0  0.54847  0.58897  0.07756  1.0000
  C   C11       1.0  0.04847  0.91103  0.57756  1.0000
  C   C12       1.0  0.45153  0.41103  0.92244  1.0000
  C   C13       1.0  0.81536  0.73287  0.34692  1.0000
  C   C14       1.0  0.68463  0.23287  0.15308  1.0000
  C   C15       1.0  0.18464  0.26713  0.65308  1.0000
  C   C16       1.0  0.31536  0.76713  0.84692  1.0000
  C   C17       1.0  0.63581  0.82983  0.29327  1.0000
  C   C18       1.0  0.86419  0.32983  0.20673  1.0000
  C   C19       1.0  0.36419  0.17017  0.70673  1.0000
  C   C20       1.0  0.13581  0.67017  0.79327  1.0000
  C   C21       1.0  0.82127  0.90093  0.24467  1.0000
  C   C22       1.0  0.67873  0.40093  0.25533  1.0000
  C   C23       1.0  0.17873  0.09907  0.75534  1.0000
  C   C24       1.0  0.32127  0.59907  0.74467  1.0000
  N   N1        1.0  0.11028  0.01118  0.39919  1.0000
  N   N2        1.0  0.38972  0.51118  0.10081  1.0000
  N   N3        1.0  0.88972  0.98882  0.60081  1.0000
  N   N4        1.0  0.61028  0.48882  0.89919  1.0000
  N   N5        1.0  0.97208  0.95820  0.20580  1.0000
  N   N6        1.0  0.52792  0.45820  0.29420  1.0000
  N   N7        1.0  0.02792  0.04180  0.79420  1.0000
  N   N8        1.0  0.47208  0.54180  0.70580  1.0000
  O   O1        1.0  0.72806  0.41757  0.47105  1.0000
  O   O2        1.0  0.77194  0.91757  0.02895  1.0000
  O   O3        1.0  0.27194  0.58243  0.52895  1.0000
  O   O4        1.0  0.22806  0.08243  0.97105  1.0000
  O   O5        1.0  0.09624  0.34313  0.40325  1.0000
  O   O6        1.0  0.40376  0.84313  0.09675  1.0000
  O   O7        1.0  0.90376  0.65687  0.59675  1.0000
  O   O8        1.0  0.59624  0.15687  0.90325  1.0000
  O   O9        1.0  0.05816  0.68886  0.32438  1.0000
  O   O10       1.0  0.44184  0.18886  0.17562  1.0000
  O   O11       1.0  0.94184  0.31114  0.67562  1.0000
  O   O12       1.0  0.55816  0.81114  0.82438  1.0000
  O   O13       1.0  0.70480  0.70142  0.40792  1.0000
  O   O14       1.0  0.79520  0.20142  0.09208  1.0000
  O   O15       1.0  0.29521  0.29858  0.59208  1.0000
  O   O16       1.0  0.20480  0.79858  0.90792  1.0000
