data_image0
_chemical_formula_structural       Cd4H36C20N4O20
_chemical_formula_sum              "Cd4 H36 C20 N4 O20"
_cell_length_a       7.0236
_cell_length_b       10.0542
_cell_length_c       11.1708
_cell_angle_alpha    90.0009
_cell_angle_beta     90
_cell_angle_gamma    89.9997

_space_group_name_H-M_alt    "P 1"
_space_group_IT_number       1

loop_
  _space_group_symop_operation_xyz
  'x, y, z'

loop_
  _atom_site_type_symbol
  _atom_site_label
  _atom_site_symmetry_multiplicity
  _atom_site_fract_x
  _atom_site_fract_y
  _atom_site_fract_z
  _atom_site_occupancy
  Cd  Cd1       1.0  0.59595  0.78759  0.73733  1.0000
  Cd  Cd2       1.0  0.40405  0.71241  0.23733  1.0000
  Cd  Cd3       1.0  0.90405  0.28759  0.26266  1.0000
  Cd  Cd4       1.0  0.09594  0.21240  0.76266  1.0000
  H   H1        1.0  0.04776  0.20635  0.51181  1.0000
  H   H2        1.0  0.95223  0.29363  0.01182  1.0000
  H   H3        1.0  0.45225  0.70638  0.48818  1.0000
  H   H4        1.0  0.54776  0.79364  0.98819  1.0000
  H   H5        1.0  0.91230  0.09766  0.58706  1.0000
  H   H6        1.0  0.08770  0.40233  0.08707  1.0000
  H   H7        1.0  0.58771  0.59766  0.41292  1.0000
  H   H8        1.0  0.41228  0.90234  0.91293  1.0000
  H   H9        1.0  0.08731  0.94685  0.48914  1.0000
  H   H10       1.0  0.91269  0.55313  0.98916  1.0000
  H   H11       1.0  0.41270  0.44686  0.51085  1.0000
  H   H12       1.0  0.58732  0.05315  0.01084  1.0000
  H   H13       1.0  0.40235  0.97741  0.42122  1.0000
  H   H14       1.0  0.59766  0.52258  0.92123  1.0000
  H   H15       1.0  0.09766  0.47740  0.57878  1.0000
  H   H16       1.0  0.90234  0.02259  0.07877  1.0000
  H   H17       1.0  0.27329  0.11991  0.37824  1.0000
  H   H18       1.0  0.72670  0.38010  0.87826  1.0000
  H   H19       1.0  0.22673  0.61990  0.62175  1.0000
  H   H20       1.0  0.77328  0.88011  0.12174  1.0000
  H   H21       1.0  0.41577  0.24008  0.56260  1.0000
  H   H22       1.0  0.58423  0.25991  0.06259  1.0000
  H   H23       1.0  0.08423  0.74009  0.43740  1.0000
  H   H24       1.0  0.91577  0.75992  0.93740  1.0000
  H   H25       1.0  0.55613  0.09890  0.58878  1.0000
  H   H26       1.0  0.44386  0.40110  0.08878  1.0000
  H   H27       1.0  0.94385  0.59889  0.41122  1.0000
  H   H28       1.0  0.05615  0.90111  0.91122  1.0000
  H   H29       1.0  0.80250  0.35342  0.61566  1.0000
  H   H30       1.0  0.19750  0.14658  0.11566  1.0000
  H   H31       1.0  0.69749  0.85343  0.38434  1.0000
  H   H32       1.0  0.30251  0.64658  0.88434  1.0000
  H   H33       1.0  0.86747  0.47710  0.69146  1.0000
  H   H34       1.0  0.13255  0.02290  0.19145  1.0000
  H   H35       1.0  0.63254  0.97710  0.30855  1.0000
  H   H36       1.0  0.36746  0.52290  0.80856  1.0000
  C   C1        1.0  0.17223  0.02125  0.53787  1.0000
  C   C2        1.0  0.82777  0.47874  0.03786  1.0000
  C   C3        1.0  0.32777  0.52125  0.46212  1.0000
  C   C4        1.0  0.67224  0.97874  0.96214  1.0000
  C   C5        1.0  0.26185  0.94959  0.64523  1.0000
  C   C6        1.0  0.73813  0.55042  0.14526  1.0000
  C   C7        1.0  0.23809  0.44959  0.35473  1.0000
  C   C8        1.0  0.76190  0.05042  0.85473  1.0000
  C   C9        1.0  0.33370  0.06733  0.45536  1.0000
  C   C10       1.0  0.66632  0.43267  0.95535  1.0000
  C   C11       1.0  0.16631  0.56733  0.54466  1.0000
  C   C12       1.0  0.83368  0.93268  0.04465  1.0000
  C   C13       1.0  0.48148  0.15444  0.51747  1.0000
  C   C14       1.0  0.51855  0.34555  0.01747  1.0000
  C   C15       1.0  0.01852  0.65446  0.48254  1.0000
  C   C16       1.0  0.98146  0.84556  0.98254  1.0000
  C   C17       1.0  0.63445  0.20955  0.43594  1.0000
  C   C18       1.0  0.36554  0.29045  0.93593  1.0000
  C   C19       1.0  0.86553  0.70955  0.56408  1.0000
  C   C20       1.0  0.13447  0.79045  0.06409  1.0000
  N   N1        1.0  0.04803  0.13186  0.57446  1.0000
  N   N2        1.0  0.95197  0.36813  0.07448  1.0000
  N   N3        1.0  0.45197  0.63188  0.42552  1.0000
  N   N4        1.0  0.54802  0.86812  0.92552  1.0000
  O   O1        1.0  0.25100  0.99707  0.74982  1.0000
  O   O2        1.0  0.74898  0.50292  0.24983  1.0000
  O   O3        1.0  0.24901  0.49710  0.25017  1.0000
  O   O4        1.0  0.75100  0.00289  0.75015  1.0000
  O   O5        1.0  0.35484  0.84490  0.61659  1.0000
  O   O6        1.0  0.64517  0.65512  0.11658  1.0000
  O   O7        1.0  0.14515  0.34489  0.38344  1.0000
  O   O8        1.0  0.85485  0.15512  0.88344  1.0000
  O   O9        1.0  0.72958  0.31001  0.46945  1.0000
  O   O10       1.0  0.27040  0.18998  0.96945  1.0000
  O   O11       1.0  0.77040  0.81000  0.53053  1.0000
  O   O12       1.0  0.22962  0.69000  0.03054  1.0000
  O   O13       1.0  0.66929  0.15228  0.33461  1.0000
  O   O14       1.0  0.33073  0.34773  0.83460  1.0000
  O   O15       1.0  0.83072  0.65226  0.66541  1.0000
  O   O16       1.0  0.16926  0.84775  0.16542  1.0000
  O   O17       1.0  0.86513  0.37852  0.69220  1.0000
  O   O18       1.0  0.13488  0.12148  0.19219  1.0000
  O   O19       1.0  0.63489  0.87853  0.30781  1.0000
  O   O20       1.0  0.36511  0.62147  0.80782  1.0000
