data_image0
_chemical_formula_structural       Cd8H48C32O48
_chemical_formula_sum              "Cd8 H48 C32 O48"
_cell_length_a       8.69997
_cell_length_b       11.6265
_cell_length_c       14.285
_cell_angle_alpha    90
_cell_angle_beta     90
_cell_angle_gamma    102.612

_space_group_name_H-M_alt    "P 1"
_space_group_IT_number       1

loop_
  _space_group_symop_operation_xyz
  'x, y, z'

loop_
  _atom_site_type_symbol
  _atom_site_label
  _atom_site_symmetry_multiplicity
  _atom_site_fract_x
  _atom_site_fract_y
  _atom_site_fract_z
  _atom_site_occupancy
  Cd  Cd1       1.0  0.26104  0.62704  0.28840  1.0000
  Cd  Cd2       1.0  0.73896  0.87296  0.78840  1.0000
  Cd  Cd3       1.0  0.73896  0.37296  0.71160  1.0000
  Cd  Cd4       1.0  0.26104  0.12704  0.21160  1.0000
  Cd  Cd5       1.0  0.65066  0.84096  0.11859  1.0000
  Cd  Cd6       1.0  0.34934  0.65904  0.61859  1.0000
  Cd  Cd7       1.0  0.34934  0.15904  0.88141  1.0000
  Cd  Cd8       1.0  0.65066  0.34097  0.38141  1.0000
  H   H1        1.0  0.96358  0.84750  0.04568  1.0000
  H   H2        1.0  0.03642  0.65250  0.54568  1.0000
  H   H3        1.0  0.03642  0.15250  0.95432  1.0000
  H   H4        1.0  0.96358  0.34750  0.45432  1.0000
  H   H5        1.0  0.55126  0.60107  0.38194  1.0000
  H   H6        1.0  0.44874  0.89893  0.88194  1.0000
  H   H7        1.0  0.44874  0.39893  0.61806  1.0000
  H   H8        1.0  0.55126  0.10107  0.11806  1.0000
  H   H9        1.0  0.05901  0.42826  0.21779  1.0000
  H   H10       1.0  0.94099  0.07173  0.71779  1.0000
  H   H11       1.0  0.94099  0.57173  0.78221  1.0000
  H   H12       1.0  0.05901  0.92826  0.28221  1.0000
  H   H13       1.0  0.23254  0.41074  0.18530  1.0000
  H   H14       1.0  0.76746  0.08926  0.68530  1.0000
  H   H15       1.0  0.76746  0.58926  0.81470  1.0000
  H   H16       1.0  0.23254  0.91074  0.31470  1.0000
  H   H17       1.0  0.07954  0.69521  0.11547  1.0000
  H   H18       1.0  0.92046  0.80479  0.61547  1.0000
  H   H19       1.0  0.92046  0.30479  0.88453  1.0000
  H   H20       1.0  0.07954  0.19521  0.38453  1.0000
  H   H21       1.0  0.84693  0.84342  0.43892  1.0000
  H   H22       1.0  0.15308  0.65658  0.93892  1.0000
  H   H23       1.0  0.15307  0.15658  0.56108  1.0000
  H   H24       1.0  0.84692  0.34342  0.06108  1.0000
  H   H25       1.0  0.81940  0.01752  0.52567  1.0000
  H   H26       1.0  0.18060  0.48248  0.02567  1.0000
  H   H27       1.0  0.18060  0.98248  0.47433  1.0000
  H   H28       1.0  0.81941  0.51752  0.97433  1.0000
  H   H29       1.0  0.94152  0.61305  0.34955  1.0000
  H   H30       1.0  0.05848  0.88695  0.84955  1.0000
  H   H31       1.0  0.05848  0.38695  0.65045  1.0000
  H   H32       1.0  0.94152  0.11305  0.15045  1.0000
  H   H33       1.0  0.93470  0.66365  0.25049  1.0000
  H   H34       1.0  0.06530  0.83635  0.75049  1.0000
  H   H35       1.0  0.06530  0.33635  0.74951  1.0000
  H   H36       1.0  0.93470  0.16365  0.24951  1.0000
  H   H37       1.0  0.33294  0.81770  0.42222  1.0000
  H   H38       1.0  0.66706  0.68230  0.92222  1.0000
  H   H39       1.0  0.66706  0.18230  0.57778  1.0000
  H   H40       1.0  0.33294  0.31770  0.07778  1.0000
  H   H41       1.0  0.45761  0.84362  0.33429  1.0000
  H   H42       1.0  0.54239  0.65638  0.83429  1.0000
  H   H43       1.0  0.54239  0.15638  0.66571  1.0000
  H   H44       1.0  0.45761  0.34362  0.16571  1.0000
  H   H45       1.0  0.59416  0.60359  0.27366  1.0000
  H   H46       1.0  0.40584  0.89641  0.77366  1.0000
  H   H47       1.0  0.40583  0.39641  0.72634  1.0000
  H   H48       1.0  0.59416  0.10359  0.22634  1.0000
  C   C1        1.0  0.32652  0.78379  0.09276  1.0000
  C   C2        1.0  0.67348  0.71621  0.59276  1.0000
  C   C3        1.0  0.67348  0.21621  0.90724  1.0000
  C   C4        1.0  0.32652  0.28379  0.40724  1.0000
  C   C5        1.0  0.15463  0.77416  0.08573  1.0000
  C   C6        1.0  0.84537  0.72584  0.58573  1.0000
  C   C7        1.0  0.84537  0.22584  0.91426  1.0000
  C   C8        1.0  0.15463  0.27416  0.41426  1.0000
  C   C9        1.0  0.09133  0.85886  0.04852  1.0000
  C   C10       1.0  0.90867  0.64114  0.54852  1.0000
  C   C11       1.0  0.90867  0.14114  0.95148  1.0000
  C   C12       1.0  0.09133  0.35886  0.45148  1.0000
  C   C13       1.0  0.18194  0.97143  0.00730  1.0000
  C   C14       1.0  0.81807  0.52857  0.50730  1.0000
  C   C15       1.0  0.81807  0.02857  0.99270  1.0000
  C   C16       1.0  0.18193  0.47143  0.49270  1.0000
  C   C17       1.0  0.77004  0.89170  0.30207  1.0000
  C   C18       1.0  0.22996  0.60830  0.80207  1.0000
  C   C19       1.0  0.22996  0.10830  0.69793  1.0000
  C   C20       1.0  0.77004  0.39170  0.19793  1.0000
  C   C21       1.0  0.80620  0.91443  0.40321  1.0000
  C   C22       1.0  0.19380  0.58557  0.90321  1.0000
  C   C23       1.0  0.19380  0.08557  0.59679  1.0000
  C   C24       1.0  0.80620  0.41443  0.09679  1.0000
  C   C25       1.0  0.79351  0.01140  0.45078  1.0000
  C   C26       1.0  0.20649  0.48859  0.95078  1.0000
  C   C27       1.0  0.20649  0.98859  0.54922  1.0000
  C   C28       1.0  0.79351  0.51141  0.04922  1.0000
  C   C29       1.0  0.74561  0.11401  0.40691  1.0000
  C   C30       1.0  0.25439  0.38599  0.90691  1.0000
  C   C31       1.0  0.25439  0.88599  0.59309  1.0000
  C   C32       1.0  0.74561  0.61401  0.09309  1.0000
  O   O1        1.0  0.37870  0.72209  0.15475  1.0000
  O   O2        1.0  0.62130  0.77791  0.65475  1.0000
  O   O3        1.0  0.62130  0.27791  0.84525  1.0000
  O   O4        1.0  0.37870  0.22209  0.34525  1.0000
  O   O5        1.0  0.34386  0.81669  0.35233  1.0000
  O   O6        1.0  0.65614  0.68331  0.85233  1.0000
  O   O7        1.0  0.65614  0.18331  0.64767  1.0000
  O   O8        1.0  0.34386  0.31669  0.14767  1.0000
  O   O9        1.0  0.50753  0.58153  0.31932  1.0000
  O   O10       1.0  0.49247  0.91847  0.81932  1.0000
  O   O11       1.0  0.49247  0.41847  0.68068  1.0000
  O   O12       1.0  0.50753  0.08153  0.18068  1.0000
  O   O13       1.0  0.16719  0.47011  0.19649  1.0000
  O   O14       1.0  0.83281  0.02989  0.69649  1.0000
  O   O15       1.0  0.83281  0.52989  0.80351  1.0000
  O   O16       1.0  0.16719  0.97011  0.30351  1.0000
  O   O17       1.0  0.41988  0.85409  0.03905  1.0000
  O   O18       1.0  0.58012  0.64591  0.53905  1.0000
  O   O19       1.0  0.58012  0.14591  0.96095  1.0000
  O   O20       1.0  0.41988  0.35409  0.46095  1.0000
  O   O21       1.0  0.22621  0.06238  0.05702  1.0000
  O   O22       1.0  0.77379  0.43762  0.55702  1.0000
  O   O23       1.0  0.77379  0.93762  0.94298  1.0000
  O   O24       1.0  0.22621  0.56238  0.44298  1.0000
  O   O25       1.0  0.20052  0.97346  0.91827  1.0000
  O   O26       1.0  0.79948  0.52654  0.41827  1.0000
  O   O27       1.0  0.79948  0.02654  0.08173  1.0000
  O   O28       1.0  0.20052  0.47346  0.58173  1.0000
  O   O29       1.0  0.88017  0.88821  0.24529  1.0000
  O   O30       1.0  0.11983  0.61179  0.74529  1.0000
  O   O31       1.0  0.11983  0.11179  0.75471  1.0000
  O   O32       1.0  0.88017  0.38821  0.25471  1.0000
  O   O33       1.0  0.62549  0.86922  0.27642  1.0000
  O   O34       1.0  0.37451  0.63078  0.77642  1.0000
  O   O35       1.0  0.37451  0.13078  0.72358  1.0000
  O   O36       1.0  0.62549  0.36922  0.22358  1.0000
  O   O37       1.0  0.74879  0.12868  0.31910  1.0000
  O   O38       1.0  0.25120  0.37132  0.81910  1.0000
  O   O39       1.0  0.25120  0.87132  0.68090  1.0000
  O   O40       1.0  0.74880  0.62868  0.18090  1.0000
  O   O41       1.0  0.70562  0.18917  0.46373  1.0000
  O   O42       1.0  0.29438  0.31083  0.96373  1.0000
  O   O43       1.0  0.29438  0.81083  0.53627  1.0000
  O   O44       1.0  0.70562  0.68917  0.03627  1.0000
  O   O45       1.0  0.00843  0.66549  0.30327  1.0000
  O   O46       1.0  0.99157  0.83451  0.80327  1.0000
  O   O47       1.0  0.99157  0.33451  0.69673  1.0000
  O   O48       1.0  0.00843  0.16549  0.19673  1.0000
