data_image0
_chemical_formula_structural       Cd2H20C20N4Cl4
_chemical_formula_sum              "Cd2 H20 C20 N4 Cl4"
_cell_length_a       3.82159
_cell_length_b       8.52471
_cell_length_c       17.5982
_cell_angle_alpha    90.0004
_cell_angle_beta     97.2011
_cell_angle_gamma    90.0006

_space_group_name_H-M_alt    "P 1"
_space_group_IT_number       1

loop_
  _space_group_symop_operation_xyz
  'x, y, z'

loop_
  _atom_site_type_symbol
  _atom_site_label
  _atom_site_symmetry_multiplicity
  _atom_site_fract_x
  _atom_site_fract_y
  _atom_site_fract_z
  _atom_site_occupancy
  Cd  Cd1       1.0  1.00000  0.00000  0.00000  1.0000
  Cd  Cd2       1.0  0.50000  0.49999  0.50000  1.0000
  H   H1        1.0  0.15369  0.06514  0.82888  1.0000
  H   H2        1.0  0.34635  0.56514  0.67113  1.0000
  H   H3        1.0  0.84634  0.93485  0.17113  1.0000
  H   H4        1.0  0.65367  0.43486  0.32887  1.0000
  H   H5        1.0  0.13232  0.27864  0.72844  1.0000
  H   H6        1.0  0.36773  0.77865  0.77156  1.0000
  H   H7        1.0  0.86770  0.72136  0.27156  1.0000
  H   H8        1.0  0.63229  0.22136  0.22843  1.0000
  H   H9        1.0  0.93207  0.54628  0.76232  1.0000
  H   H10       1.0  0.56795  0.04629  0.73768  1.0000
  H   H11       1.0  0.06793  0.45372  0.23769  1.0000
  H   H12       1.0  0.43205  0.95372  0.26231  1.0000
  H   H13       1.0  0.74686  0.59087  0.89261  1.0000
  H   H14       1.0  0.75312  0.09087  0.60738  1.0000
  H   H15       1.0  0.25312  0.40913  0.10739  1.0000
  H   H16       1.0  0.24686  0.90913  0.39261  1.0000
  H   H17       1.0  0.76756  0.36242  0.98369  1.0000
  H   H18       1.0  0.73241  0.86241  0.51630  1.0000
  H   H19       1.0  0.23242  0.63758  0.01631  1.0000
  H   H20       1.0  0.26758  0.13758  0.48369  1.0000
  C   C1        1.0  0.06206  0.18339  0.83950  1.0000
  C   C2        1.0  0.43796  0.68338  0.66050  1.0000
  C   C3        1.0  0.93795  0.81661  0.16051  1.0000
  C   C4        1.0  0.56205  0.31662  0.33949  1.0000
  C   C5        1.0  0.05389  0.30187  0.78485  1.0000
  C   C6        1.0  0.44616  0.80188  0.71516  1.0000
  C   C7        1.0  0.94613  0.69812  0.21516  1.0000
  C   C8        1.0  0.55386  0.19813  0.28484  1.0000
  C   C9        1.0  0.94172  0.45092  0.80375  1.0000
  C   C10       1.0  0.55830  0.95092  0.69626  1.0000
  C   C11       1.0  0.05827  0.54908  0.19626  1.0000
  C   C12       1.0  0.44170  0.04909  0.30374  1.0000
  C   C13       1.0  0.83878  0.47619  0.87598  1.0000
  C   C14       1.0  0.66122  0.97619  0.62402  1.0000
  C   C15       1.0  0.16121  0.52381  0.12402  1.0000
  C   C16       1.0  0.33877  0.02381  0.37597  1.0000
  C   C17       1.0  0.85118  0.35066  0.92693  1.0000
  C   C18       1.0  0.64881  0.85065  0.57307  1.0000
  C   C19       1.0  0.14881  0.64935  0.07307  1.0000
  C   C20       1.0  0.35118  0.14935  0.42692  1.0000
  N   N1        1.0  0.96211  0.20700  0.90920  1.0000
  N   N2        1.0  0.53789  0.70700  0.59081  1.0000
  N   N3        1.0  0.03789  0.79300  0.09081  1.0000
  N   N4        1.0  0.46211  0.29300  0.40919  1.0000
  Cl  Cl1       1.0  0.44904  0.85083  0.92123  1.0000
  Cl  Cl2       1.0  0.05095  0.35082  0.57877  1.0000
  Cl  Cl3       1.0  0.55096  0.14917  0.07878  1.0000
  Cl  Cl4       1.0  0.94905  0.64917  0.42123  1.0000
