data_image0
_chemical_formula_structural       Zn2H32C24N4O18
_chemical_formula_sum              "Zn2 H32 C24 N4 O18"
_cell_length_a       4.92793
_cell_length_b       4.92792
_cell_length_c       29.7011
_cell_angle_alpha    89.9991
_cell_angle_beta     89.9991
_cell_angle_gamma    88.3397

_space_group_name_H-M_alt    "P 1"
_space_group_IT_number       1

loop_
  _space_group_symop_operation_xyz
  'x, y, z'

loop_
  _atom_site_type_symbol
  _atom_site_label
  _atom_site_symmetry_multiplicity
  _atom_site_fract_x
  _atom_site_fract_y
  _atom_site_fract_z
  _atom_site_occupancy
  Zn  Zn1       1.0  0.23854  0.76146  0.75000  1.0000
  Zn  Zn2       1.0  0.76146  0.23854  0.25000  1.0000
  H   H1        1.0  0.40801  0.19929  0.80010  1.0000
  H   H2        1.0  0.59200  0.80070  0.30010  1.0000
  H   H3        1.0  0.80072  0.59199  0.69990  1.0000
  H   H4        1.0  0.19930  0.40802  0.19990  1.0000
  H   H5        1.0  0.56905  0.90966  0.81649  1.0000
  H   H6        1.0  0.43095  0.09032  0.31649  1.0000
  H   H7        1.0  0.09034  0.43095  0.68351  1.0000
  H   H8        1.0  0.90968  0.56907  0.18351  1.0000
  H   H9        1.0  0.96612  0.22932  0.73539  1.0000
  H   H10       1.0  0.03389  0.77068  0.23539  1.0000
  H   H11       1.0  0.77068  0.03388  0.76461  1.0000
  H   H12       1.0  0.22933  0.96612  0.26461  1.0000
  H   H13       1.0  0.07591  0.06826  0.84903  1.0000
  H   H14       1.0  0.92411  0.93175  0.34903  1.0000
  H   H15       1.0  0.93174  0.92408  0.65097  1.0000
  H   H16       1.0  0.06826  0.07594  0.15097  1.0000
  H   H17       1.0  0.25929  0.30996  0.88028  1.0000
  H   H18       1.0  0.74071  0.69003  0.38028  1.0000
  H   H19       1.0  0.69003  0.74070  0.61972  1.0000
  H   H20       1.0  0.30997  0.25932  0.11972  1.0000
  H   H21       1.0  0.39839  0.07358  0.93842  1.0000
  H   H22       1.0  0.60159  0.92640  0.43842  1.0000
  H   H23       1.0  0.92640  0.60159  0.56158  1.0000
  H   H24       1.0  0.07358  0.39845  0.06158  1.0000
  H   H25       1.0  0.06506  0.06510  0.00000  1.0000
  H   H26       1.0  0.93491  0.93492  0.50000  1.0000
  H   H27       1.0  0.76484  0.76482  0.00000  1.0000
  H   H28       1.0  0.23518  0.23516  0.50000  1.0000
  H   H29       1.0  0.80888  0.06696  0.90949  1.0000
  H   H30       1.0  0.19111  0.93302  0.40949  1.0000
  H   H31       1.0  0.93301  0.19111  0.59051  1.0000
  H   H32       1.0  0.06699  0.80891  0.09051  1.0000
  C   C1        1.0  0.02248  0.48029  0.82742  1.0000
  C   C2        1.0  0.97752  0.51971  0.32742  1.0000
  C   C3        1.0  0.51972  0.97750  0.67258  1.0000
  C   C4        1.0  0.48029  0.02251  0.17258  1.0000
  C   C5        1.0  0.06115  0.26976  0.86480  1.0000
  C   C6        1.0  0.93885  0.73024  0.36480  1.0000
  C   C7        1.0  0.73023  0.93884  0.63520  1.0000
  C   C8        1.0  0.26977  0.06117  0.13519  1.0000
  C   C9        1.0  0.79737  0.47242  0.92640  1.0000
  C   C10       1.0  0.20264  0.52757  0.42640  1.0000
  C   C11       1.0  0.52755  0.20262  0.57360  1.0000
  C   C12       1.0  0.47244  0.79738  0.07360  1.0000
  C   C13       1.0  0.60027  0.42984  0.96400  1.0000
  C   C14       1.0  0.39971  0.57014  0.46399  1.0000
  C   C15       1.0  0.57013  0.39973  0.53600  1.0000
  C   C16       1.0  0.42986  0.60030  0.03601  1.0000
  C   C17       1.0  0.40732  0.22597  0.96497  1.0000
  C   C18       1.0  0.59267  0.77404  0.46496  1.0000
  C   C19       1.0  0.77402  0.59267  0.53504  1.0000
  C   C20       1.0  0.22594  0.40733  0.03504  1.0000
  C   C21       1.0  0.21911  0.21912  0.00000  1.0000
  C   C22       1.0  0.78088  0.78089  0.50000  1.0000
  C   C23       1.0  0.61121  0.61118  1.00000  1.0000
  C   C24       1.0  0.38880  0.38880  0.50000  1.0000
  N   N1        1.0  0.84988  0.25936  0.89853  1.0000
  N   N2        1.0  0.15012  0.74062  0.39853  1.0000
  N   N3        1.0  0.74062  0.15010  0.60147  1.0000
  N   N4        1.0  0.25938  0.84991  0.10147  1.0000
  O   O1        1.0  0.23406  0.48730  0.80074  1.0000
  O   O2        1.0  0.76593  0.51270  0.30074  1.0000
  O   O3        1.0  0.51270  0.76593  0.69926  1.0000
  O   O4        1.0  0.48730  0.23409  0.19926  1.0000
  O   O5        1.0  0.81424  0.62478  0.82347  1.0000
  O   O6        1.0  0.18575  0.37521  0.32346  1.0000
  O   O7        1.0  0.37522  0.18576  0.67654  1.0000
  O   O8        1.0  0.62479  0.81426  0.17653  1.0000
  O   O9        1.0  0.90727  0.69601  0.92142  1.0000
  O   O10       1.0  0.09273  0.30398  0.42142  1.0000
  O   O11       1.0  0.30398  0.09271  0.57858  1.0000
  O   O12       1.0  0.69602  0.90728  0.07858  1.0000
  O   O13       1.0  0.48947  0.01560  0.79144  1.0000
  O   O14       1.0  0.51055  0.98437  0.29144  1.0000
  O   O15       1.0  0.98440  0.51052  0.70856  1.0000
  O   O16       1.0  0.01561  0.48947  0.20856  1.0000
  O   O17       1.0  0.95233  0.04766  0.75000  1.0000
  O   O18       1.0  0.04768  0.95234  0.25000  1.0000
