data_image0
_chemical_formula_structural       Ca2H28C24N4O16
_chemical_formula_sum              "Ca2 H28 C24 N4 O16"
_cell_length_a       6.63999
_cell_length_b       8.67928
_cell_length_c       13.3054
_cell_angle_alpha    86.0261
_cell_angle_beta     75.5122
_cell_angle_gamma    73.9236

_space_group_name_H-M_alt    "P 1"
_space_group_IT_number       1

loop_
  _space_group_symop_operation_xyz
  'x, y, z'

loop_
  _atom_site_type_symbol
  _atom_site_label
  _atom_site_symmetry_multiplicity
  _atom_site_fract_x
  _atom_site_fract_y
  _atom_site_fract_z
  _atom_site_occupancy
  Ca  Ca1       1.0  0.79689  0.50013  0.40629  1.0000
  Ca  Ca2       1.0  0.20311  0.49987  0.59371  1.0000
  H   H1        1.0  0.01738  0.07086  0.29010  1.0000
  H   H2        1.0  0.69296  0.92928  0.29017  1.0000
  H   H3        1.0  0.98262  0.92914  0.70990  1.0000
  H   H4        1.0  0.30704  0.07072  0.70983  1.0000
  H   H5        1.0  0.09511  0.95342  0.44068  1.0000
  H   H6        1.0  0.46447  0.04679  0.44077  1.0000
  H   H7        1.0  0.90488  0.04658  0.55932  1.0000
  H   H8        1.0  0.53552  0.95321  0.55923  1.0000
  H   H9        1.0  0.29868  0.79255  0.37395  1.0000
  H   H10       1.0  0.32778  0.20766  0.37405  1.0000
  H   H11       1.0  0.70132  0.20746  0.62605  1.0000
  H   H12       1.0  0.67221  0.79234  0.62595  1.0000
  H   H13       1.0  0.35138  0.77241  0.99996  1.0000
  H   H14       1.0  0.64862  0.22759  0.00004  1.0000
  H   H15       1.0  0.07186  0.22180  0.16593  1.0000
  H   H16       1.0  0.76279  0.77823  0.16602  1.0000
  H   H17       1.0  0.92815  0.77820  0.83407  1.0000
  H   H18       1.0  0.23722  0.22177  0.83398  1.0000
  H   H19       1.0  0.09225  0.36574  0.99997  1.0000
  H   H20       1.0  0.90775  0.63426  0.00003  1.0000
  H   H21       1.0  0.15287  0.56505  0.23478  1.0000
  H   H22       1.0  0.61257  0.43516  0.23489  1.0000
  H   H23       1.0  0.84713  0.43495  0.76521  1.0000
  H   H24       1.0  0.38743  0.56484  0.76511  1.0000
  H   H25       1.0  0.25827  0.38192  0.24018  1.0000
  H   H26       1.0  0.50151  0.61823  0.24020  1.0000
  H   H27       1.0  0.74173  0.61808  0.75981  1.0000
  H   H28       1.0  0.49849  0.38177  0.75980  1.0000
  C   C1        1.0  0.98272  0.75949  0.40452  1.0000
  C   C2        1.0  0.61325  0.24061  0.40446  1.0000
  C   C3        1.0  0.01728  0.24051  0.59548  1.0000
  C   C4        1.0  0.38675  0.75939  0.59554  1.0000
  C   C5        1.0  0.13469  0.86832  0.37695  1.0000
  C   C6        1.0  0.48874  0.13178  0.37698  1.0000
  C   C7        1.0  0.86531  0.13168  0.62305  1.0000
  C   C8        1.0  0.51125  0.86822  0.62302  1.0000
  C   C9        1.0  0.21328  0.88501  0.19003  1.0000
  C   C10       1.0  0.59689  0.11503  0.19010  1.0000
  C   C11       1.0  0.78672  0.11499  0.80997  1.0000
  C   C12       1.0  0.40311  0.88497  0.80990  1.0000
  C   C13       1.0  0.20881  0.98464  0.09428  1.0000
  C   C14       1.0  0.69717  0.01539  0.09436  1.0000
  C   C15       1.0  0.79119  0.01536  0.90572  1.0000
  C   C16       1.0  0.30283  0.98460  0.90564  1.0000
  C   C17       1.0  0.29173  0.90242  0.99996  1.0000
  C   C18       1.0  0.70827  0.09758  0.00004  1.0000
  C   C19       1.0  0.13550  0.15282  0.09409  1.0000
  C   C20       1.0  0.77074  0.84720  0.09416  1.0000
  C   C21       1.0  0.86451  0.84718  0.90591  1.0000
  C   C22       1.0  0.22927  0.15280  0.90584  1.0000
  C   C23       1.0  0.14645  0.23524  0.99996  1.0000
  C   C24       1.0  0.85355  0.76476  0.00004  1.0000
  N   N1        1.0  0.12545  0.95859  0.28247  1.0000
  N   N2        1.0  0.59244  0.04150  0.28253  1.0000
  N   N3        1.0  0.87455  0.04141  0.71753  1.0000
  N   N4        1.0  0.40755  0.95850  0.71747  1.0000
  O   O1        1.0  0.00484  0.66056  0.47862  1.0000
  O   O2        1.0  0.51704  0.33936  0.47868  1.0000
  O   O3        1.0  0.99515  0.33944  0.52137  1.0000
  O   O4        1.0  0.48296  0.66064  0.52131  1.0000
  O   O5        1.0  0.84328  0.76783  0.35269  1.0000
  O   O6        1.0  0.80450  0.23244  0.35248  1.0000
  O   O7        1.0  0.15673  0.23217  0.64731  1.0000
  O   O8        1.0  0.19550  0.76756  0.64752  1.0000
  O   O9        1.0  0.30357  0.73629  0.18383  1.0000
  O   O10       1.0  0.51262  0.26372  0.18391  1.0000
  O   O11       1.0  0.69644  0.26371  0.81618  1.0000
  O   O12       1.0  0.48739  0.73628  0.81609  1.0000
  O   O13       1.0  0.12031  0.46528  0.26438  1.0000
  O   O14       1.0  0.61526  0.53500  0.26446  1.0000
  O   O15       1.0  0.87969  0.53472  0.73562  1.0000
  O   O16       1.0  0.38474  0.46500  0.73554  1.0000
