data_image0
_chemical_formula_structural       Cd2H32C24N4O18
_chemical_formula_sum              "Cd2 H32 C24 N4 O18"
_cell_length_a       4.98732
_cell_length_b       4.98731
_cell_length_c       30.4197
_cell_angle_alpha    90.0006
_cell_angle_beta     90.0008
_cell_angle_gamma    88.0137

_space_group_name_H-M_alt    "P 1"
_space_group_IT_number       1

loop_
  _space_group_symop_operation_xyz
  'x, y, z'

loop_
  _atom_site_type_symbol
  _atom_site_label
  _atom_site_symmetry_multiplicity
  _atom_site_fract_x
  _atom_site_fract_y
  _atom_site_fract_z
  _atom_site_occupancy
  Cd  Cd1       1.0  0.75579  0.24418  0.75000  1.0000
  Cd  Cd2       1.0  0.24418  0.75582  0.25000  1.0000
  H   H1        1.0  0.91732  0.68498  0.69327  1.0000
  H   H2        1.0  0.08267  0.31501  0.19327  1.0000
  H   H3        1.0  0.31498  0.08266  0.80673  1.0000
  H   H4        1.0  0.68499  0.91735  0.30673  1.0000
  H   H5        1.0  0.09052  0.39728  0.67981  1.0000
  H   H6        1.0  0.90947  0.60272  0.17981  1.0000
  H   H7        1.0  0.60270  0.90946  0.82019  1.0000
  H   H8        1.0  0.39729  0.09056  0.32019  1.0000
  H   H9        1.0  0.27072  0.55348  0.73266  1.0000
  H   H10       1.0  0.72927  0.44652  0.23266  1.0000
  H   H11       1.0  0.44649  0.72927  0.76733  1.0000
  H   H12       1.0  0.55349  0.27074  0.26734  1.0000
  H   H13       1.0  0.75285  0.80242  0.61516  1.0000
  H   H14       1.0  0.24713  0.19751  0.11516  1.0000
  H   H15       1.0  0.19754  0.24717  0.88483  1.0000
  H   H16       1.0  0.80254  0.75288  0.38485  1.0000
  H   H17       1.0  0.57827  0.55766  0.64504  1.0000
  H   H18       1.0  0.42169  0.44232  0.14504  1.0000
  H   H19       1.0  0.44230  0.42173  0.85496  1.0000
  H   H20       1.0  0.55773  0.57836  0.35497  1.0000
  H   H21       1.0  0.90261  0.57465  0.55963  1.0000
  H   H22       1.0  0.09740  0.42533  0.05964  1.0000
  H   H23       1.0  0.42532  0.09740  0.94036  1.0000
  H   H24       1.0  0.57467  0.90264  0.44037  1.0000
  H   H25       1.0  0.57024  0.57026  0.50000  1.0000
  H   H26       1.0  0.42971  0.42973  0.00000  1.0000
  H   H27       1.0  0.26029  0.26025  0.50000  1.0000
  H   H28       1.0  0.73973  0.73973  1.00000  1.0000
  H   H29       1.0  0.30407  0.56626  0.58760  1.0000
  H   H30       1.0  0.69592  0.43372  0.08760  1.0000
  H   H31       1.0  0.43372  0.69595  0.91240  1.0000
  H   H32       1.0  0.56630  0.30409  0.41240  1.0000
  C   C1        1.0  0.52935  0.96087  0.66861  1.0000
  C   C2        1.0  0.47068  0.03912  0.16861  1.0000
  C   C3        1.0  0.03910  0.47067  0.83139  1.0000
  C   C4        1.0  0.96090  0.52935  0.33139  1.0000
  C   C5        1.0  0.55958  0.75988  0.63079  1.0000
  C   C6        1.0  0.44040  0.24009  0.13079  1.0000
  C   C7        1.0  0.24009  0.44044  0.86921  1.0000
  C   C8        1.0  0.75996  0.55961  0.36922  1.0000
  C   C9        1.0  0.29285  0.96836  0.57190  1.0000
  C   C10       1.0  0.70714  0.03160  0.07189  1.0000
  C   C11       1.0  0.03159  0.70719  0.92810  1.0000
  C   C12       1.0  0.96840  0.29286  0.42811  1.0000
  C   C13       1.0  0.09875  0.92852  0.53506  1.0000
  C   C14       1.0  0.90123  0.07143  0.03505  1.0000
  C   C15       1.0  0.07145  0.90126  0.96494  1.0000
  C   C16       1.0  0.92856  0.09877  0.46495  1.0000
  C   C17       1.0  0.90954  0.72680  0.53397  1.0000
  C   C18       1.0  0.09043  0.27319  0.03397  1.0000
  C   C19       1.0  0.27320  0.09045  0.96603  1.0000
  C   C20       1.0  0.72684  0.90955  0.46603  1.0000
  C   C21       1.0  0.72198  0.72200  0.50000  1.0000
  C   C22       1.0  0.27799  0.27801  0.00000  1.0000
  C   C23       1.0  0.10873  0.10874  0.50000  1.0000
  C   C24       1.0  0.89129  0.89124  1.00000  1.0000
  N   N1        1.0  0.34709  0.75493  0.59846  1.0000
  N   N2        1.0  0.65291  0.24504  0.09845  1.0000
  N   N3        1.0  0.24504  0.65292  0.90154  1.0000
  N   N4        1.0  0.75498  0.34710  0.40155  1.0000
  O   O1        1.0  0.74332  0.95692  0.69336  1.0000
  O   O2        1.0  0.25669  0.04306  0.19336  1.0000
  O   O3        1.0  0.04306  0.25668  0.80663  1.0000
  O   O4        1.0  0.95693  0.74333  0.30664  1.0000
  O   O5        1.0  0.32697  0.10773  0.67453  1.0000
  O   O6        1.0  0.67306  0.89228  0.17453  1.0000
  O   O7        1.0  0.89227  0.67304  0.82547  1.0000
  O   O8        1.0  0.10776  0.32698  0.32548  1.0000
  O   O9        1.0  0.39915  0.18921  0.57737  1.0000
  O   O10       1.0  0.60088  0.81074  0.07737  1.0000
  O   O11       1.0  0.81075  0.60087  0.92263  1.0000
  O   O12       1.0  0.18927  0.39912  0.42263  1.0000
  O   O13       1.0  0.00896  0.50960  0.70316  1.0000
  O   O14       1.0  0.99103  0.49039  0.20316  1.0000
  O   O15       1.0  0.49037  0.99103  0.79684  1.0000
  O   O16       1.0  0.50961  0.00899  0.29684  1.0000
  O   O17       1.0  0.44019  0.55981  0.75000  1.0000
  O   O18       1.0  0.55980  0.44020  0.25000  1.0000
