data_image0
_chemical_formula_structural       Y4H40C24O26
_chemical_formula_sum              "Y4 H40 C24 O26"
_cell_length_a       8.32501
_cell_length_b       11.3866
_cell_length_c       11.3867
_cell_angle_alpha    91.5807
_cell_angle_beta     107.521
_cell_angle_gamma    107.521

_space_group_name_H-M_alt    "P 1"
_space_group_IT_number       1

loop_
  _space_group_symop_operation_xyz
  'x, y, z'

loop_
  _atom_site_type_symbol
  _atom_site_label
  _atom_site_symmetry_multiplicity
  _atom_site_fract_x
  _atom_site_fract_y
  _atom_site_fract_z
  _atom_site_occupancy
  Y   Y1        1.0  0.19351  0.15604  0.86925  1.0000
  Y   Y2        1.0  0.69351  0.86925  0.15604  1.0000
  Y   Y3        1.0  0.93068  0.00016  0.51931  1.0000
  Y   Y4        1.0  0.43069  0.51931  0.00016  1.0000
  H   H1        1.0  0.28077  0.99120  0.05546  1.0000
  H   H2        1.0  0.78077  0.05546  0.99121  1.0000
  H   H3        1.0  0.13093  0.02385  0.09197  1.0000
  H   H4        1.0  0.63093  0.09197  0.02385  1.0000
  H   H5        1.0  0.55652  0.94275  0.65852  1.0000
  H   H6        1.0  0.05652  0.65852  0.94275  1.0000
  H   H7        1.0  0.60785  0.10245  0.64480  1.0000
  H   H8        1.0  0.10786  0.64480  0.10245  1.0000
  H   H9        1.0  0.55022  0.04731  0.77811  1.0000
  H   H10       1.0  0.05022  0.77811  0.04731  1.0000
  H   H11       1.0  0.29953  0.75451  0.66419  1.0000
  H   H12       1.0  0.79953  0.66419  0.75451  1.0000
  H   H13       1.0  0.19001  0.70194  0.77311  1.0000
  H   H14       1.0  0.69001  0.77311  0.70194  1.0000
  H   H15       1.0  0.40367  0.81515  0.82653  1.0000
  H   H16       1.0  0.90367  0.82653  0.81515  1.0000
  H   H17       1.0  0.45305  0.33304  0.51446  1.0000
  H   H18       1.0  0.95306  0.51446  0.33304  1.0000
  H   H19       1.0  0.50350  0.33966  0.68095  1.0000
  H   H20       1.0  0.00350  0.68095  0.33966  1.0000
  H   H21       1.0  0.34739  0.40632  0.59345  1.0000
  H   H22       1.0  0.84740  0.59345  0.40632  1.0000
  H   H23       1.0  0.83533  0.36760  0.05777  1.0000
  H   H24       1.0  0.33533  0.05777  0.36760  1.0000
  H   H25       1.0  0.79096  0.44639  0.92445  1.0000
  H   H26       1.0  0.29097  0.92445  0.44639  1.0000
  H   H27       1.0  0.82044  0.29597  0.91335  1.0000
  H   H28       1.0  0.32044  0.91335  0.29597  1.0000
  H   H29       1.0  0.98095  0.52336  0.62624  1.0000
  H   H30       1.0  0.48095  0.62624  0.52336  1.0000
  H   H31       1.0  0.81766  0.44218  0.69110  1.0000
  H   H32       1.0  0.31766  0.69110  0.44218  1.0000
  H   H33       1.0  0.86619  0.35818  0.57928  1.0000
  H   H34       1.0  0.36619  0.57928  0.35818  1.0000
  H   H35       1.0  0.00790  0.20925  0.14547  1.0000
  H   H36       1.0  0.50790  0.14548  0.20925  1.0000
  H   H37       1.0  0.10181  0.33590  0.26975  1.0000
  H   H38       1.0  0.60181  0.26975  0.33591  1.0000
  H   H39       1.0  0.21961  0.23292  0.25434  1.0000
  H   H40       1.0  0.71961  0.25434  0.23292  1.0000
  C   C1        1.0  0.81222  0.05727  0.77513  1.0000
  C   C2        1.0  0.31222  0.77513  0.05727  1.0000
  C   C3        1.0  0.61834  0.03555  0.71237  1.0000
  C   C4        1.0  0.11834  0.71237  0.03555  1.0000
  C   C5        1.0  0.19214  0.88423  0.72842  1.0000
  C   C6        1.0  0.69214  0.72842  0.88423  1.0000
  C   C7        1.0  0.27834  0.78409  0.74921  1.0000
  C   C8        1.0  0.77834  0.74921  0.78409  1.0000
  C   C9        1.0  0.24839  0.20934  0.57281  1.0000
  C   C10       1.0  0.74839  0.57281  0.20934  1.0000
  C   C11       1.0  0.39947  0.32841  0.59178  1.0000
  C   C12       1.0  0.89947  0.59177  0.32841  1.0000
  C   C13       1.0  0.57104  0.29292  0.93292  1.0000
  C   C14       1.0  0.07104  0.93292  0.29292  1.0000
  C   C15       1.0  0.76649  0.35523  0.95725  1.0000
  C   C16       1.0  0.26649  0.95725  0.35523  1.0000
  C   C17       1.0  0.06384  0.40575  0.76144  1.0000
  C   C18       1.0  0.56384  0.76144  0.40575  1.0000
  C   C19       1.0  0.92434  0.43399  0.65640  1.0000
  C   C20       1.0  0.42434  0.65640  0.43399  1.0000
  C   C21       1.0  0.21888  0.36308  0.12387  1.0000
  C   C22       1.0  0.71888  0.12386  0.36308  1.0000
  C   C23       1.0  0.13029  0.28143  0.20256  1.0000
  C   C24       1.0  0.63029  0.20256  0.28143  1.0000
  O   O1        1.0  0.21623  0.05302  0.04541  1.0000
  O   O2        1.0  0.71623  0.04541  0.05302  1.0000
  O   O3        1.0  0.89103  0.10082  0.88923  1.0000
  O   O4        1.0  0.39103  0.88923  0.10082  1.0000
  O   O5        1.0  0.22302  0.96287  0.82039  1.0000
  O   O6        1.0  0.72302  0.82039  0.96287  1.0000
  O   O7        1.0  0.08985  0.88187  0.61837  1.0000
  O   O8        1.0  0.58985  0.61837  0.88187  1.0000
  O   O9        1.0  0.22164  0.15533  0.66607  1.0000
  O   O10       1.0  0.72164  0.66607  0.15533  1.0000
  O   O11       1.0  0.14428  0.16217  0.46347  1.0000
  O   O12       1.0  0.64428  0.46347  0.16217  1.0000
  O   O13       1.0  0.46012  0.35165  0.89064  1.0000
  O   O14       1.0  0.96012  0.89064  0.35165  1.0000
  O   O15       1.0  0.51014  0.18055  0.95097  1.0000
  O   O16       1.0  0.01014  0.95097  0.18055  1.0000
  O   O17       1.0  0.05862  0.29399  0.76604  1.0000
  O   O18       1.0  0.55862  0.76604  0.29399  1.0000
  O   O19       1.0  0.17824  0.49722  0.84095  1.0000
  O   O20       1.0  0.67824  0.84095  0.49722  1.0000
  O   O21       1.0  0.24523  0.31444  0.03045  1.0000
  O   O22       1.0  0.74522  0.03045  0.31444  1.0000
  O   O23       1.0  0.27379  0.48078  0.14930  1.0000
  O   O24       1.0  0.77379  0.14930  0.48078  1.0000
  O   O25       1.0  0.90647  0.03575  0.71149  1.0000
  O   O26       1.0  0.40647  0.71149  0.03575  1.0000
