data_image0
_chemical_formula_structural       Y4H40C24O26
_chemical_formula_sum              "Y4 H40 C24 O26"
_cell_length_a       8.32158
_cell_length_b       11.3816
_cell_length_c       11.3815
_cell_angle_alpha    91.752
_cell_angle_beta     107.569
_cell_angle_gamma    107.569

_space_group_name_H-M_alt    "P 1"
_space_group_IT_number       1

loop_
  _space_group_symop_operation_xyz
  'x, y, z'

loop_
  _atom_site_type_symbol
  _atom_site_label
  _atom_site_symmetry_multiplicity
  _atom_site_fract_x
  _atom_site_fract_y
  _atom_site_fract_z
  _atom_site_occupancy
  Y   Y1        1.0  0.49838  0.04674  0.76064  1.0000
  Y   Y2        1.0  0.99838  0.76064  0.04674  1.0000
  Y   Y3        1.0  0.76071  0.39680  0.91516  1.0000
  Y   Y4        1.0  0.26070  0.91516  0.39680  1.0000
  H   H1        1.0  0.16516  0.29031  0.60849  1.0000
  H   H2        1.0  0.66516  0.60850  0.29031  1.0000
  H   H3        1.0  0.28434  0.24488  0.52150  1.0000
  H   H4        1.0  0.78434  0.52150  0.24488  1.0000
  H   H5        1.0  0.29907  0.40626  0.54382  1.0000
  H   H6        1.0  0.79907  0.54382  0.40626  1.0000
  H   H7        1.0  0.85714  0.85689  0.54741  1.0000
  H   H8        1.0  0.35714  0.54741  0.85690  1.0000
  H   H9        1.0  0.89962  0.99158  0.47050  1.0000
  H   H10       1.0  0.39963  0.47050  0.99158  1.0000
  H   H11       1.0  0.86970  0.00007  0.62098  1.0000
  H   H12       1.0  0.36971  0.62098  0.00007  1.0000
  H   H13       1.0  0.58600  0.64411  0.57974  1.0000
  H   H14       1.0  0.08601  0.57975  0.64412  1.0000
  H   H15       1.0  0.68869  0.77149  0.70399  1.0000
  H   H16       1.0  0.18870  0.70399  0.77150  1.0000
  H   H17       1.0  0.47622  0.66655  0.68641  1.0000
  H   H18       1.0  0.97623  0.68641  0.66655  1.0000
  H   H19       1.0  0.14319  0.13890  0.87275  1.0000
  H   H20       1.0  0.64319  0.87275  0.13889  1.0000
  H   H21       1.0  0.13514  0.26222  0.97263  1.0000
  H   H22       1.0  0.63514  0.97263  0.26221  1.0000
  H   H23       1.0  0.08282  0.26908  0.81181  1.0000
  H   H24       1.0  0.58282  0.81181  0.26908  1.0000
  H   H25       1.0  0.50086  0.14484  0.21499  1.0000
  H   H26       1.0  0.00086  0.21499  0.14484  1.0000
  H   H27       1.0  0.28730  0.09144  0.10070  1.0000
  H   H28       1.0  0.78730  0.10070  0.09144  1.0000
  H   H29       1.0  0.39218  0.25387  0.16179  1.0000
  H   H30       1.0  0.89218  0.16179  0.25387  1.0000
  H   H31       1.0  0.85748  0.32196  0.56620  1.0000
  H   H32       1.0  0.35748  0.56620  0.32196  1.0000
  H   H33       1.0  0.84275  0.22047  0.43548  1.0000
  H   H34       1.0  0.34275  0.43548  0.22047  1.0000
  H   H35       1.0  0.69923  0.31018  0.41501  1.0000
  H   H36       1.0  0.19923  0.41501  0.31018  1.0000
  H   H37       1.0  0.41168  0.86117  0.92551  1.0000
  H   H38       1.0  0.91168  0.92551  0.86117  1.0000
  H   H39       1.0  0.56255  0.82513  0.89366  1.0000
  H   H40       1.0  0.06255  0.89366  0.82513  1.0000
  C   C1        1.0  0.47469  0.79291  0.55263  1.0000
  C   C2        1.0  0.97469  0.55263  0.79291  1.0000
  C   C3        1.0  0.44434  0.34201  0.70427  1.0000
  C   C4        1.0  0.94434  0.70427  0.34202  1.0000
  C   C5        1.0  0.29006  0.32054  0.58639  1.0000
  C   C6        1.0  0.79006  0.58639  0.32054  1.0000
  C   C7        1.0  0.92464  0.95783  0.56113  1.0000
  C   C8        1.0  0.42464  0.56113  0.95783  1.0000
  C   C9        1.0  0.12054  0.98340  0.62350  1.0000
  C   C10       1.0  0.62054  0.62350  0.98340  1.0000
  C   C11       1.0  0.87997  0.14109  0.86008  1.0000
  C   C12       1.0  0.37997  0.86008  0.14109  1.0000
  C   C13       1.0  0.62978  0.15379  0.51140  1.0000
  C   C14       1.0  0.12978  0.51139  0.15379  1.0000
  C   C15       1.0  0.56281  0.71427  0.63440  1.0000
  C   C16       1.0  0.06282  0.63440  0.71427  1.0000
  C   C17       1.0  0.50027  0.18895  0.03277  1.0000
  C   C18       1.0  0.00027  0.03277  0.18895  1.0000
  C   C19       1.0  0.07381  0.20461  0.88149  1.0000
  C   C20       1.0  0.57381  0.88149  0.20461  1.0000
  C   C21       1.0  0.41317  0.16861  0.13242  1.0000
  C   C22       1.0  0.91317  0.13241  0.16861  1.0000
  C   C23       1.0  0.76760  0.25887  0.48171  1.0000
  C   C24       1.0  0.26760  0.48171  0.25887  1.0000
  O   O1        1.0  0.46866  0.09663  0.95388  1.0000
  O   O2        1.0  0.96866  0.95388  0.09663  1.0000
  O   O3        1.0  0.46995  0.24962  0.76070  1.0000
  O   O4        1.0  0.96995  0.76070  0.24962  1.0000
  O   O5        1.0  0.80147  0.02674  0.81633  1.0000
  O   O6        1.0  0.30147  0.81634  0.02674  1.0000
  O   O7        1.0  0.78504  0.20431  0.88150  1.0000
  O   O8        1.0  0.28504  0.88150  0.20431  1.0000
  O   O9        1.0  0.54908  0.45169  0.75043  1.0000
  O   O10       1.0  0.04908  0.75043  0.45169  1.0000
  O   O11       1.0  0.42213  0.76857  0.43471  1.0000
  O   O12       1.0  0.92213  0.43471  0.76857  1.0000
  O   O13       1.0  0.44625  0.88547  0.60150  1.0000
  O   O14       1.0  0.94625  0.60150  0.88547  1.0000
  O   O15       1.0  0.23120  0.02486  0.56445  1.0000
  O   O16       1.0  0.73120  0.56445  0.02486  1.0000
  O   O17       1.0  0.51388  0.07441  0.41978  1.0000
  O   O18       1.0  0.01388  0.41978  0.07441  1.0000
  O   O19       1.0  0.60361  0.29890  0.03549  1.0000
  O   O20       1.0  0.10360  0.03549  0.29890  1.0000
  O   O21       1.0  0.18215  0.96625  0.73617  1.0000
  O   O22       1.0  0.68214  0.73617  0.96625  1.0000
  O   O23       1.0  0.63531  0.14996  0.62329  1.0000
  O   O24       1.0  0.13531  0.62329  0.14996  1.0000
  O   O25       1.0  0.47672  0.87122  0.86388  1.0000
  O   O26       1.0  0.97672  0.86388  0.87122  1.0000
