data_image0
_chemical_formula_structural       Ag4H24C28S16N8O12
_chemical_formula_sum              "Ag4 H24 C28 S16 N8 O12"
_cell_length_a       5.41479
_cell_length_b       14.0092
_cell_length_c       15.7337
_cell_angle_alpha    90.0004
_cell_angle_beta     89.9994
_cell_angle_gamma    89.9997

_space_group_name_H-M_alt    "P 1"
_space_group_IT_number       1

loop_
  _space_group_symop_operation_xyz
  'x, y, z'

loop_
  _atom_site_type_symbol
  _atom_site_label
  _atom_site_symmetry_multiplicity
  _atom_site_fract_x
  _atom_site_fract_y
  _atom_site_fract_z
  _atom_site_occupancy
  Ag  Ag1       1.0  0.97082  0.39350  0.20899  1.0000
  Ag  Ag2       1.0  0.97082  0.60650  0.79101  1.0000
  Ag  Ag3       1.0  0.02918  0.89350  0.29101  1.0000
  Ag  Ag4       1.0  0.02917  0.10650  0.70899  1.0000
  H   H1        1.0  0.52496  0.67704  0.14679  1.0000
  H   H2        1.0  0.52495  0.32296  0.85321  1.0000
  H   H3        1.0  0.47505  0.17704  0.35321  1.0000
  H   H4        1.0  0.47505  0.82296  0.64679  1.0000
  H   H5        1.0  0.69231  0.77612  0.10504  1.0000
  H   H6        1.0  0.69231  0.22388  0.89496  1.0000
  H   H7        1.0  0.30768  0.27612  0.39496  1.0000
  H   H8        1.0  0.30769  0.72388  0.60504  1.0000
  H   H9        1.0  0.49243  0.79557  0.19425  1.0000
  H   H10       1.0  0.49243  0.20443  0.80575  1.0000
  H   H11       1.0  0.50757  0.29557  0.30575  1.0000
  H   H12       1.0  0.50757  0.70443  0.69425  1.0000
  H   H13       1.0  0.87994  0.80710  0.56477  1.0000
  H   H14       1.0  0.87995  0.19290  0.43523  1.0000
  H   H15       1.0  0.12006  0.30710  0.93523  1.0000
  H   H16       1.0  0.12005  0.69290  0.06477  1.0000
  H   H17       1.0  0.78502  0.89155  0.48478  1.0000
  H   H18       1.0  0.78502  0.10845  0.51522  1.0000
  H   H19       1.0  0.21498  0.39155  0.01522  1.0000
  H   H20       1.0  0.21498  0.60845  0.98478  1.0000
  H   H21       1.0  0.08742  0.89778  0.52998  1.0000
  H   H22       1.0  0.08742  0.10222  0.47002  1.0000
  H   H23       1.0  0.91257  0.39778  0.97002  1.0000
  H   H24       1.0  0.91257  0.60222  0.02998  1.0000
  C   C1        1.0  0.47224  0.57635  0.42188  1.0000
  C   C2        1.0  0.47225  0.42365  0.57812  1.0000
  C   C3        1.0  0.52776  0.07635  0.07812  1.0000
  C   C4        1.0  0.52777  0.92365  0.92188  1.0000
  C   C5        1.0  0.74545  0.67920  0.32254  1.0000
  C   C6        1.0  0.74544  0.32080  0.67746  1.0000
  C   C7        1.0  0.25456  0.17920  0.17746  1.0000
  C   C8        1.0  0.25455  0.82080  0.82254  1.0000
  C   C9        1.0  0.82800  0.69832  0.40299  1.0000
  C   C10       1.0  0.82799  0.30169  0.59701  1.0000
  C   C11       1.0  0.17200  0.19831  0.09701  1.0000
  C   C12       1.0  0.17200  0.80169  0.90299  1.0000
  C   C13       1.0  0.29561  0.51374  0.45442  1.0000
  C   C14       1.0  0.29562  0.48625  0.54558  1.0000
  C   C15       1.0  0.70439  0.01374  0.04558  1.0000
  C   C16       1.0  0.70440  0.98625  0.95442  1.0000
  C   C17       1.0  0.12379  0.47673  0.39647  1.0000
  C   C18       1.0  0.12378  0.52328  0.60353  1.0000
  C   C19       1.0  0.87622  0.97672  0.10353  1.0000
  C   C20       1.0  0.87621  0.02327  0.89647  1.0000
  C   C21       1.0  0.61623  0.74452  0.16321  1.0000
  C   C22       1.0  0.61621  0.25548  0.83679  1.0000
  C   C23       1.0  0.38378  0.24452  0.33679  1.0000
  C   C24       1.0  0.38378  0.75548  0.66320  1.0000
  C   C25       1.0  0.93853  0.84964  0.50999  1.0000
  C   C26       1.0  0.93853  0.15036  0.49001  1.0000
  C   C27       1.0  0.06147  0.34964  0.99001  1.0000
  C   C28       1.0  0.06146  0.65036  0.01000  1.0000
  S   S1        1.0  0.49974  0.59918  0.31439  1.0000
  S   S2        1.0  0.49974  0.40083  0.68561  1.0000
  S   S3        1.0  0.50026  0.09917  0.18561  1.0000
  S   S4        1.0  0.50027  0.90082  0.81439  1.0000
  S   S5        1.0  0.68529  0.63400  0.48495  1.0000
  S   S6        1.0  0.68529  0.36599  0.51505  1.0000
  S   S7        1.0  0.31471  0.13400  0.01505  1.0000
  S   S8        1.0  0.31471  0.86600  0.98495  1.0000
  S   S9        1.0  0.88179  0.72150  0.23017  1.0000
  S   S10       1.0  0.88179  0.27851  0.76983  1.0000
  S   S11       1.0  0.11821  0.22150  0.26983  1.0000
  S   S12       1.0  0.11821  0.77850  0.73017  1.0000
  S   S13       1.0  0.07159  0.77502  0.42755  1.0000
  S   S14       1.0  0.07159  0.22498  0.57245  1.0000
  S   S15       1.0  0.92842  0.27502  0.07244  1.0000
  S   S16       1.0  0.92841  0.72498  0.92755  1.0000
  N   N1        1.0  0.98460  0.44972  0.34428  1.0000
  N   N2        1.0  0.98460  0.55028  0.65572  1.0000
  N   N3        1.0  0.01541  0.94972  0.15572  1.0000
  N   N4        1.0  0.01541  0.05028  0.84428  1.0000
  N   N5        1.0  0.47594  0.47090  0.15004  1.0000
  N   N6        1.0  0.47595  0.52911  0.84996  1.0000
  N   N7        1.0  0.52405  0.97089  0.34996  1.0000
  N   N8        1.0  0.52405  0.02910  0.65004  1.0000
  O   O1        1.0  0.48843  0.39066  0.18784  1.0000
  O   O2        1.0  0.48843  0.60934  0.81216  1.0000
  O   O3        1.0  0.51157  0.89066  0.31216  1.0000
  O   O4        1.0  0.51157  0.10934  0.68784  1.0000
  O   O5        1.0  0.26661  0.50838  0.13580  1.0000
  O   O6        1.0  0.26661  0.49162  0.86420  1.0000
  O   O7        1.0  0.73339  0.00838  0.36420  1.0000
  O   O8        1.0  0.73339  0.99162  0.63580  1.0000
  O   O9        1.0  0.67259  0.51345  0.12833  1.0000
  O   O10       1.0  0.67259  0.48655  0.87167  1.0000
  O   O11       1.0  0.32741  0.01345  0.37167  1.0000
  O   O12       1.0  0.32741  0.98654  0.62833  1.0000
