data_image0
_chemical_formula_structural       Zn2H16C24S8N8
_chemical_formula_sum              "Zn2 H16 C24 S8 N8"
_cell_length_a       8.94737
_cell_length_b       8.94728
_cell_length_c       11.1632
_cell_angle_alpha    81.2938
_cell_angle_beta     81.2937
_cell_angle_gamma    64.1152

_space_group_name_H-M_alt    "P 1"
_space_group_IT_number       1

loop_
  _space_group_symop_operation_xyz
  'x, y, z'

loop_
  _atom_site_type_symbol
  _atom_site_label
  _atom_site_symmetry_multiplicity
  _atom_site_fract_x
  _atom_site_fract_y
  _atom_site_fract_z
  _atom_site_occupancy
  Zn  Zn1       1.0  0.05731  0.94270  0.24999  1.0000
  Zn  Zn2       1.0  0.94270  0.05730  0.75001  1.0000
  H   H1        1.0  0.02752  0.77611  0.05775  1.0000
  H   H2        1.0  0.22390  0.97249  0.44224  1.0000
  H   H3        1.0  0.97248  0.22389  0.94224  1.0000
  H   H4        1.0  0.77611  0.02752  0.55776  1.0000
  H   H5        1.0  0.20233  0.61788  0.88447  1.0000
  H   H6        1.0  0.38212  0.79768  0.61553  1.0000
  H   H7        1.0  0.79767  0.38212  0.11553  1.0000
  H   H8        1.0  0.61787  0.20232  0.38446  1.0000
  H   H9        1.0  0.58675  0.76198  0.94649  1.0000
  H   H10       1.0  0.23800  0.41324  0.55350  1.0000
  H   H11       1.0  0.41324  0.23801  0.05352  1.0000
  H   H12       1.0  0.76200  0.58675  0.44650  1.0000
  H   H13       1.0  0.39676  0.90945  0.12094  1.0000
  H   H14       1.0  0.09054  0.60325  0.37905  1.0000
  H   H15       1.0  0.60324  0.09054  0.87907  1.0000
  H   H16       1.0  0.90946  0.39676  0.62095  1.0000
  C   C1        1.0  0.15264  0.76874  0.03025  1.0000
  C   C2        1.0  0.23126  0.84736  0.46975  1.0000
  C   C3        1.0  0.84735  0.23126  0.96975  1.0000
  C   C4        1.0  0.76874  0.15265  0.53024  1.0000
  C   C5        1.0  0.25003  0.68243  0.93288  1.0000
  C   C6        1.0  0.31756  0.74998  0.56711  1.0000
  C   C7        1.0  0.74997  0.31757  0.06713  1.0000
  C   C8        1.0  0.68244  0.25003  0.43289  1.0000
  C   C9        1.0  0.40899  0.67802  0.90085  1.0000
  C   C10       1.0  0.32197  0.59100  0.59914  1.0000
  C   C11       1.0  0.59100  0.32197  0.09914  1.0000
  C   C12       1.0  0.67803  0.40899  0.40086  1.0000
  C   C13       1.0  0.46360  0.76238  0.96821  1.0000
  C   C14       1.0  0.23762  0.53641  0.53179  1.0000
  C   C15       1.0  0.53641  0.23763  0.03180  1.0000
  C   C16       1.0  0.76238  0.46360  0.46822  1.0000
  C   C17       1.0  0.35807  0.84493  0.06487  1.0000
  C   C18       1.0  0.15507  0.64193  0.43512  1.0000
  C   C19       1.0  0.64193  0.15506  0.93513  1.0000
  C   C20       1.0  0.84493  0.35807  0.56488  1.0000
  C   C21       1.0  0.71480  0.93900  0.26815  1.0000
  C   C22       1.0  0.06101  0.28522  0.23184  1.0000
  C   C23       1.0  0.28520  0.06101  0.73185  1.0000
  C   C24       1.0  0.93899  0.71478  0.76815  1.0000
  S   S1        1.0  0.54844  0.57032  0.78106  1.0000
  S   S2        1.0  0.42967  0.45156  0.71894  1.0000
  S   S3        1.0  0.45156  0.42968  0.21895  1.0000
  S   S4        1.0  0.57033  0.54844  0.28106  1.0000
  S   S5        1.0  0.52864  0.95814  0.31151  1.0000
  S   S6        1.0  0.04187  0.47138  0.18849  1.0000
  S   S7        1.0  0.47137  0.04186  0.68850  1.0000
  S   S8        1.0  0.95815  0.52862  0.81150  1.0000
  N   N1        1.0  0.20497  0.84762  0.09655  1.0000
  N   N2        1.0  0.15238  0.79503  0.40344  1.0000
  N   N3        1.0  0.79503  0.15238  0.90345  1.0000
  N   N4        1.0  0.84762  0.20498  0.59656  1.0000
  N   N5        1.0  0.85175  0.92865  0.23565  1.0000
  N   N6        1.0  0.07136  0.14825  0.26434  1.0000
  N   N7        1.0  0.14825  0.07135  0.76435  1.0000
  N   N8        1.0  0.92864  0.85175  0.73566  1.0000
