data_image0
_chemical_formula_structural       Cd2H32C38N8O10
_chemical_formula_sum              "Cd2 H32 C38 N8 O10"
_cell_length_a       9.91759
_cell_length_b       11.6175
_cell_length_c       11.4426
_cell_angle_alpha    94.1194
_cell_angle_beta     97.692
_cell_angle_gamma    109.595

_space_group_name_H-M_alt    "P 1"
_space_group_IT_number       1

loop_
  _space_group_symop_operation_xyz
  'x, y, z'

loop_
  _atom_site_type_symbol
  _atom_site_label
  _atom_site_symmetry_multiplicity
  _atom_site_fract_x
  _atom_site_fract_y
  _atom_site_fract_z
  _atom_site_occupancy
  Cd  Cd1       1.0  0.59968  0.76830  0.90563  1.0000
  Cd  Cd2       1.0  0.40033  0.23170  0.09437  1.0000
  H   H1        1.0  0.05134  0.19872  0.09674  1.0000
  H   H2        1.0  0.94866  0.80128  0.90326  1.0000
  H   H3        1.0  0.45589  0.53873  0.74931  1.0000
  H   H4        1.0  0.54411  0.46127  0.25069  1.0000
  H   H5        1.0  0.38461  0.51777  0.86681  1.0000
  H   H6        1.0  0.61539  0.48223  0.13319  1.0000
  H   H7        1.0  0.63769  0.85623  0.50141  1.0000
  H   H8        1.0  0.36231  0.14377  0.49859  1.0000
  H   H9        1.0  0.39764  0.03966  0.67948  1.0000
  H   H10       1.0  0.60235  0.96034  0.32052  1.0000
  H   H11       1.0  0.96892  0.61594  0.83071  1.0000
  H   H12       1.0  0.03109  0.38407  0.16928  1.0000
  H   H13       1.0  0.83688  0.47527  0.15123  1.0000
  H   H14       1.0  0.16313  0.52473  0.84876  1.0000
  H   H15       1.0  0.71259  0.74879  0.17727  1.0000
  H   H16       1.0  0.28741  0.25121  0.82273  1.0000
  H   H17       1.0  0.86785  0.77160  0.37427  1.0000
  H   H18       1.0  0.13215  0.22840  0.62573  1.0000
  H   H19       1.0  0.08120  0.96014  0.44549  1.0000
  H   H20       1.0  0.91880  0.03985  0.55451  1.0000
  H   H21       1.0  0.14444  0.13624  0.32572  1.0000
  H   H22       1.0  0.85556  0.86376  0.67429  1.0000
  H   H23       1.0  0.93221  0.17313  0.87609  1.0000
  H   H24       1.0  0.06779  0.82687  0.12391  1.0000
  H   H25       1.0  0.78288  0.03591  0.82049  1.0000
  H   H26       1.0  0.21712  0.96409  0.17951  1.0000
  H   H27       1.0  0.63372  0.10646  0.05663  1.0000
  H   H28       1.0  0.36628  0.89354  0.94337  1.0000
  H   H29       1.0  0.76636  0.28428  0.75885  1.0000
  H   H30       1.0  0.23364  0.71572  0.24116  1.0000
  H   H31       1.0  0.55297  0.36122  0.83904  1.0000
  H   H32       1.0  0.44702  0.63878  0.16096  1.0000
  C   C1        1.0  0.54254  0.88193  0.70981  1.0000
  C   C2        1.0  0.45745  0.11807  0.29019  1.0000
  C   C3        1.0  0.57763  0.91948  0.49978  1.0000
  C   C4        1.0  0.42237  0.08051  0.50022  1.0000
  C   C5        1.0  0.51965  0.94181  0.60082  1.0000
  C   C6        1.0  0.48034  0.05819  0.39919  1.0000
  C   C7        1.0  0.44175  0.02283  0.60033  1.0000
  C   C8        1.0  0.55824  0.97717  0.39967  1.0000
  C   C9        1.0  0.77509  0.60937  0.97838  1.0000
  C   C10       1.0  0.22491  0.39063  0.02162  1.0000
  C   C11       1.0  0.98360  0.56567  0.90533  1.0000
  C   C12       1.0  0.01640  0.43433  0.09466  1.0000
  C   C13       1.0  0.89131  0.55296  0.99030  1.0000
  C   C14       1.0  0.10870  0.44705  0.00970  1.0000
  C   C15       1.0  0.90868  0.48661  0.08536  1.0000
  C   C16       1.0  0.09133  0.51339  0.91464  1.0000
  C   C17       1.0  0.83897  0.93177  0.14262  1.0000
  C   C18       1.0  0.16103  0.06823  0.85738  1.0000
  C   C19       1.0  0.80328  0.83348  0.21061  1.0000
  C   C20       1.0  0.19672  0.16652  0.78938  1.0000
  C   C21       1.0  0.89176  0.84685  0.31965  1.0000
  C   C22       1.0  0.10823  0.15315  0.68035  1.0000
  C   C23       1.0  0.01290  0.95484  0.36097  1.0000
  C   C24       1.0  0.98710  0.04515  0.63903  1.0000
  C   C25       1.0  0.04803  0.05461  0.29606  1.0000
  C   C26       1.0  0.95198  0.94539  0.70395  1.0000
  C   C27       1.0  0.95880  0.04099  0.18674  1.0000
  C   C28       1.0  0.04121  0.95900  0.81326  1.0000
  C   C29       1.0  0.85710  0.05449  0.00607  1.0000
  C   C30       1.0  0.14291  0.94551  0.99393  1.0000
  C   C31       1.0  0.82976  0.10943  0.89533  1.0000
  C   C32       1.0  0.17024  0.89056  0.10467  1.0000
  C   C33       1.0  0.64039  0.16564  0.98694  1.0000
  C   C34       1.0  0.35961  0.83436  0.01306  1.0000
  C   C35       1.0  0.70632  0.25930  0.83112  1.0000
  C   C36       1.0  0.29368  0.74070  0.16889  1.0000
  C   C37       1.0  0.60040  0.29555  0.87119  1.0000
  C   C38       1.0  0.39961  0.70445  0.12881  1.0000
  N   N1        1.0  0.77815  0.94313  0.02915  1.0000
  N   N2        1.0  0.22185  0.05687  0.97085  1.0000
  N   N3        1.0  0.96549  0.11672  0.09837  1.0000
  N   N4        1.0  0.03451  0.88327  0.90163  1.0000
  N   N5        1.0  0.73069  0.17765  0.90612  1.0000
  N   N6        1.0  0.26931  0.82235  0.09388  1.0000
  N   N7        1.0  0.56065  0.23671  0.96820  1.0000
  N   N8        1.0  0.43935  0.76329  0.03180  1.0000
  O   O1        1.0  0.49184  0.90696  0.80081  1.0000
  O   O2        1.0  0.50814  0.09303  0.19919  1.0000
  O   O3        1.0  0.61646  0.80989  0.70893  1.0000
  O   O4        1.0  0.38353  0.19011  0.29107  1.0000
  O   O5        1.0  0.78673  0.69056  0.90519  1.0000
  O   O6        1.0  0.21327  0.30945  0.09480  1.0000
  O   O7        1.0  0.67221  0.57900  0.03687  1.0000
  O   O8        1.0  0.32779  0.42100  0.96313  1.0000
  O   O9        1.0  0.41693  0.57733  0.80793  1.0000
  O   O10       1.0  0.58307  0.42267  0.19207  1.0000
