data_image0
_chemical_formula_structural       Cd2H28C38N8O8
_chemical_formula_sum              "Cd2 H28 C38 N8 O8"
_cell_length_a       9.14387
_cell_length_b       11.1886
_cell_length_c       12.337
_cell_angle_alpha    104.931
_cell_angle_beta     107.363
_cell_angle_gamma    108.444

_space_group_name_H-M_alt    "P 1"
_space_group_IT_number       1

loop_
  _space_group_symop_operation_xyz
  'x, y, z'

loop_
  _atom_site_type_symbol
  _atom_site_label
  _atom_site_symmetry_multiplicity
  _atom_site_fract_x
  _atom_site_fract_y
  _atom_site_fract_z
  _atom_site_occupancy
  Cd  Cd1       1.0  0.12716  0.42993  0.33234  1.0000
  Cd  Cd2       1.0  0.87284  0.57007  0.66766  1.0000
  H   H1        1.0  0.44430  0.28332  0.06150  1.0000
  H   H2        1.0  0.55570  0.71668  0.93849  1.0000
  H   H3        1.0  0.75726  0.01889  0.35941  1.0000
  H   H4        1.0  0.24274  0.98111  0.64059  1.0000
  H   H5        1.0  0.29273  0.17347  0.56665  1.0000
  H   H6        1.0  0.70727  0.82653  0.43335  1.0000
  H   H7        1.0  0.35900  0.85844  0.27540  1.0000
  H   H8        1.0  0.64101  0.14156  0.72460  1.0000
  H   H9        1.0  0.49316  0.88361  0.64623  1.0000
  H   H10       1.0  0.50684  0.11640  0.35377  1.0000
  H   H11       1.0  0.83096  0.17823  0.06651  1.0000
  H   H12       1.0  0.16904  0.82176  0.93349  1.0000
  H   H13       1.0  0.68544  0.01241  0.84602  1.0000
  H   H14       1.0  0.31456  0.98759  0.15398  1.0000
  H   H15       1.0  0.84959  0.96922  0.72578  1.0000
  H   H16       1.0  0.15041  0.03078  0.27422  1.0000
  H   H17       1.0  0.16381  0.08268  0.82012  1.0000
  H   H18       1.0  0.83619  0.91732  0.17988  1.0000
  H   H19       1.0  0.49571  0.53875  0.34269  1.0000
  H   H20       1.0  0.50429  0.46125  0.65731  1.0000
  H   H21       1.0  0.52000  0.39752  0.37146  1.0000
  H   H22       1.0  0.48000  0.60248  0.62854  1.0000
  H   H23       1.0  0.75508  0.34649  0.35018  1.0000
  H   H24       1.0  0.24492  0.65351  0.64982  1.0000
  H   H25       1.0  0.95096  0.62300  0.19727  1.0000
  H   H26       1.0  0.04904  0.37700  0.80274  1.0000
  H   H27       1.0  0.64645  0.62470  0.19973  1.0000
  H   H28       1.0  0.35355  0.37530  0.80027  1.0000
  C   C1        1.0  0.05584  0.22094  0.41331  1.0000
  C   C2        1.0  0.94416  0.77906  0.58669  1.0000
  C   C3        1.0  0.86264  0.00895  0.42040  1.0000
  C   C4        1.0  0.13736  0.99105  0.57959  1.0000
  C   C5        1.0  0.02765  0.10728  0.45869  1.0000
  C   C6        1.0  0.97234  0.89272  0.54130  1.0000
  C   C7        1.0  0.16499  0.09752  0.53866  1.0000
  C   C8        1.0  0.83501  0.90247  0.46134  1.0000
  C   C9        1.0  0.32969  0.70471  0.40764  1.0000
  C   C10       1.0  0.67031  0.29529  0.59236  1.0000
  C   C11       1.0  0.41903  0.85726  0.45645  1.0000
  C   C12       1.0  0.58098  0.14275  0.54355  1.0000
  C   C13       1.0  0.42195  0.92219  0.37351  1.0000
  C   C14       1.0  0.57805  0.07781  0.62649  1.0000
  C   C15       1.0  0.49764  0.93608  0.58330  1.0000
  C   C16       1.0  0.50236  0.06392  0.41670  1.0000
  C   C17       1.0  0.07856  0.22504  0.06487  1.0000
  C   C18       1.0  0.92144  0.77496  0.93513  1.0000
  C   C19       1.0  0.90183  0.15911  0.01219  1.0000
  C   C20       1.0  0.09817  0.84089  0.98781  1.0000
  C   C21       1.0  0.82319  0.06691  0.89004  1.0000
  C   C22       1.0  0.17681  0.93309  0.10996  1.0000
  C   C23       1.0  0.91669  0.04135  0.82157  1.0000
  C   C24       1.0  0.08331  0.95865  0.17843  1.0000
  C   C25       1.0  0.09316  0.10573  0.87339  1.0000
  C   C26       1.0  0.90684  0.89427  0.12661  1.0000
  C   C27       1.0  0.17180  0.19729  0.99619  1.0000
  C   C28       1.0  0.82820  0.80271  0.00381  1.0000
  C   C29       1.0  0.34546  0.34789  0.18861  1.0000
  C   C30       1.0  0.65454  0.65211  0.81139  1.0000
  C   C31       1.0  0.50425  0.44296  0.30184  1.0000
  C   C32       1.0  0.49575  0.55704  0.69816  1.0000
  C   C33       1.0  0.76738  0.41903  0.30580  1.0000
  C   C34       1.0  0.23262  0.58097  0.69421  1.0000
  C   C35       1.0  0.86317  0.56405  0.22687  1.0000
  C   C36       1.0  0.13683  0.43595  0.77313  1.0000
  C   C37       1.0  0.71358  0.56564  0.22697  1.0000
  C   C38       1.0  0.28642  0.43437  0.77303  1.0000
  N   N1        1.0  0.19093  0.31949  0.18325  1.0000
  N   N2        1.0  0.80907  0.68051  0.81674  1.0000
  N   N3        1.0  0.34071  0.27680  0.07838  1.0000
  N   N4        1.0  0.65929  0.72320  0.92162  1.0000
  N   N5        1.0  0.65466  0.47320  0.27719  1.0000
  N   N6        1.0  0.34534  0.52680  0.72281  1.0000
  N   N7        1.0  0.89436  0.47186  0.27578  1.0000
  N   N8        1.0  0.10564  0.52815  0.72422  1.0000
  O   O1        1.0  0.20658  0.31575  0.45808  1.0000
  O   O2        1.0  0.79342  0.68425  0.54192  1.0000
  O   O3        1.0  0.93029  0.21927  0.33149  1.0000
  O   O4        1.0  0.06970  0.78073  0.66851  1.0000
  O   O5        1.0  0.31477  0.64762  0.48458  1.0000
  O   O6        1.0  0.68523  0.35238  0.51542  1.0000
  O   O7        1.0  0.26965  0.63664  0.29260  1.0000
  O   O8        1.0  0.73036  0.36336  0.70740  1.0000
