data_image0
_chemical_formula_structural       Ag2H20C28N10O6F4
_chemical_formula_sum              "Ag2 H20 C28 N10 O6 F4"
_cell_length_a       6.77864
_cell_length_b       6.77863
_cell_length_c       18.9487
_cell_angle_alpha    79.0406
_cell_angle_beta     79.0406
_cell_angle_gamma    67.3338

_space_group_name_H-M_alt    "P 1"
_space_group_IT_number       1

loop_
  _space_group_symop_operation_xyz
  'x, y, z'

loop_
  _atom_site_type_symbol
  _atom_site_label
  _atom_site_symmetry_multiplicity
  _atom_site_fract_x
  _atom_site_fract_y
  _atom_site_fract_z
  _atom_site_occupancy
  Ag  Ag1       1.0  0.06680  0.93320  0.25000  1.0000
  Ag  Ag2       1.0  0.93320  0.06680  0.75000  1.0000
  H   H1        1.0  0.26167  0.71835  0.95477  1.0000
  H   H2        1.0  0.28164  0.73830  0.54523  1.0000
  H   H3        1.0  0.73832  0.28167  0.04523  1.0000
  H   H4        1.0  0.71836  0.26168  0.45476  1.0000
  H   H5        1.0  0.68192  0.69908  0.15947  1.0000
  H   H6        1.0  0.30093  0.31806  0.34054  1.0000
  H   H7        1.0  0.31808  0.30093  0.84053  1.0000
  H   H8        1.0  0.69907  0.68193  0.65946  1.0000
  H   H9        1.0  0.58971  0.82615  0.03554  1.0000
  H   H10       1.0  0.17388  0.41024  0.46448  1.0000
  H   H11       1.0  0.41028  0.17386  0.96447  1.0000
  H   H12       1.0  0.82613  0.58974  0.53553  1.0000
  H   H13       1.0  0.23882  0.51154  0.20429  1.0000
  H   H14       1.0  0.48845  0.76116  0.29572  1.0000
  H   H15       1.0  0.76117  0.48847  0.79572  1.0000
  H   H16       1.0  0.51155  0.23884  0.70428  1.0000
  H   H17       1.0  0.97793  0.52086  0.23616  1.0000
  H   H18       1.0  0.47914  0.02207  0.26385  1.0000
  H   H19       1.0  0.02207  0.47915  0.76385  1.0000
  H   H20       1.0  0.52086  0.97793  0.73615  1.0000
  C   C1        1.0  0.86345  0.86686  0.91553  1.0000
  C   C2        1.0  0.13316  0.13651  0.58447  1.0000
  C   C3        1.0  0.13656  0.13316  0.08447  1.0000
  C   C4        1.0  0.86685  0.86346  0.41552  1.0000
  C   C5        1.0  0.91678  0.78589  0.98641  1.0000
  C   C6        1.0  0.21412  0.08319  0.51359  1.0000
  C   C7        1.0  0.08323  0.21411  0.01359  1.0000
  C   C8        1.0  0.78588  0.91679  0.48641  1.0000
  C   C9        1.0  0.13349  0.71649  0.99898  1.0000
  C   C10       1.0  0.28350  0.86648  0.50102  1.0000
  C   C11       1.0  0.86650  0.28353  0.00102  1.0000
  C   C12       1.0  0.71649  0.13351  0.49898  1.0000
  C   C13       1.0  0.17988  0.64494  0.06897  1.0000
  C   C14       1.0  0.35505  0.82010  0.43103  1.0000
  C   C15       1.0  0.82012  0.35508  0.93103  1.0000
  C   C16       1.0  0.64496  0.17989  0.56896  1.0000
  C   C17       1.0  0.02340  0.63765  0.12939  1.0000
  C   C18       1.0  0.36235  0.97658  0.37062  1.0000
  C   C19       1.0  0.97659  0.36237  0.87061  1.0000
  C   C20       1.0  0.63765  0.02340  0.62938  1.0000
  C   C21       1.0  0.80849  0.70460  0.11487  1.0000
  C   C22       1.0  0.29541  0.19149  0.38513  1.0000
  C   C23       1.0  0.19151  0.29542  0.88513  1.0000
  C   C24       1.0  0.70459  0.80850  0.61487  1.0000
  C   C25       1.0  0.75622  0.77724  0.04510  1.0000
  C   C26       1.0  0.22277  0.24376  0.45491  1.0000
  C   C27       1.0  0.24379  0.22277  0.95491  1.0000
  C   C28       1.0  0.77723  0.75623  0.54509  1.0000
  N   N1        1.0  0.82000  0.93662  0.85666  1.0000
  N   N2        1.0  0.06338  0.17998  0.64336  1.0000
  N   N3        1.0  0.18001  0.06337  0.14335  1.0000
  N   N4        1.0  0.93661  0.82001  0.35664  1.0000
  N   N5        1.0  0.07875  0.57737  0.19791  1.0000
  N   N6        1.0  0.42261  0.92124  0.30209  1.0000
  N   N7        1.0  0.92124  0.42263  0.80209  1.0000
  N   N8        1.0  0.57739  0.07876  0.69790  1.0000
  N   N9        1.0  0.65267  0.34733  0.25000  1.0000
  N   N10       1.0  0.34733  0.65267  0.75000  1.0000
  O   O1        1.0  0.81070  0.33783  0.27897  1.0000
  O   O2        1.0  0.66216  0.18930  0.22103  1.0000
  O   O3        1.0  0.18930  0.66216  0.72103  1.0000
  O   O4        1.0  0.33784  0.81071  0.77897  1.0000
  O   O5        1.0  0.48350  0.51649  0.25000  1.0000
  O   O6        1.0  0.51650  0.48351  0.75000  1.0000
  F   F1        1.0  0.38948  0.57502  0.08223  1.0000
  F   F2        1.0  0.42496  0.61052  0.41777  1.0000
  F   F3        1.0  0.61052  0.42500  0.91778  1.0000
  F   F4        1.0  0.57505  0.38948  0.58222  1.0000
