data_image0
_chemical_formula_structural       Ag4H20C28N12Cl4O12
_chemical_formula_sum              "Ag4 H20 C28 N12 Cl4 O12"
_cell_length_a       7.10729
_cell_length_b       9.63119
_cell_length_c       13.7028
_cell_angle_alpha    95.5531
_cell_angle_beta     89.9997
_cell_angle_gamma    90.0005

_space_group_name_H-M_alt    "P 1"
_space_group_IT_number       1

loop_
  _space_group_symop_operation_xyz
  'x, y, z'

loop_
  _atom_site_type_symbol
  _atom_site_label
  _atom_site_symmetry_multiplicity
  _atom_site_fract_x
  _atom_site_fract_y
  _atom_site_fract_z
  _atom_site_occupancy
  Ag  Ag1       1.0  0.97843  0.16501  0.06358  1.0000
  Ag  Ag2       1.0  0.47841  0.33498  0.43641  1.0000
  Ag  Ag3       1.0  0.02158  0.83498  0.93641  1.0000
  Ag  Ag4       1.0  0.52159  0.66503  0.56360  1.0000
  H   H1        1.0  0.96926  0.34545  0.74516  1.0000
  H   H2        1.0  0.46927  0.15456  0.75484  1.0000
  H   H3        1.0  0.03074  0.65453  0.25483  1.0000
  H   H4        1.0  0.53073  0.84546  0.24517  1.0000
  H   H5        1.0  0.78830  0.91972  0.66450  1.0000
  H   H6        1.0  0.28829  0.58028  0.83549  1.0000
  H   H7        1.0  0.21172  0.08027  0.33548  1.0000
  H   H8        1.0  0.71169  0.41973  0.16453  1.0000
  H   H9        1.0  0.75824  0.15054  0.37665  1.0000
  H   H10       1.0  0.25825  0.34946  0.12334  1.0000
  H   H11       1.0  0.24174  0.84946  0.62334  1.0000
  H   H12       1.0  0.74174  0.65054  0.87667  1.0000
  H   H13       1.0  0.85561  0.30589  0.40737  1.0000
  H   H14       1.0  0.35563  0.19412  0.09263  1.0000
  H   H15       1.0  0.14438  0.69411  0.59262  1.0000
  H   H16       1.0  0.64437  0.80589  0.90738  1.0000
  H   H17       1.0  0.91483  0.39906  0.57395  1.0000
  H   H18       1.0  0.41486  0.10095  0.92604  1.0000
  H   H19       1.0  0.08515  0.60093  0.42604  1.0000
  H   H20       1.0  0.58514  0.89906  0.07397  1.0000
  C   C1        1.0  0.90048  0.10028  0.81541  1.0000
  C   C2        1.0  0.40048  0.39973  0.68458  1.0000
  C   C3        1.0  0.09953  0.89971  0.18456  1.0000
  C   C4        1.0  0.59951  0.60028  0.31544  1.0000
  C   C5        1.0  0.91706  0.26485  0.69070  1.0000
  C   C6        1.0  0.41707  0.23516  0.80929  1.0000
  C   C7        1.0  0.08294  0.73514  0.30929  1.0000
  C   C8        1.0  0.58292  0.76486  0.19072  1.0000
  C   C9        1.0  0.81539  0.02498  0.64564  1.0000
  C   C10       1.0  0.31539  0.47502  0.85436  1.0000
  C   C11       1.0  0.18462  0.97500  0.35435  1.0000
  C   C12       1.0  0.68460  0.52499  0.14566  1.0000
  C   C13       1.0  0.81359  0.19443  0.52420  1.0000
  C   C14       1.0  0.31361  0.30558  0.97579  1.0000
  C   C15       1.0  0.18640  0.80556  0.47579  1.0000
  C   C16       1.0  0.68639  0.69443  0.02422  1.0000
  C   C17       1.0  0.87901  0.12961  0.71690  1.0000
  C   C18       1.0  0.37901  0.37039  0.78309  1.0000
  C   C19       1.0  0.12100  0.87037  0.28309  1.0000
  C   C20       1.0  0.62098  0.62962  0.21693  1.0000
  C   C21       1.0  0.88562  0.29526  0.59549  1.0000
  C   C22       1.0  0.38564  0.20474  0.90451  1.0000
  C   C23       1.0  0.11438  0.70473  0.40450  1.0000
  C   C24       1.0  0.61435  0.79527  0.09550  1.0000
  C   C25       1.0  0.78429  0.05795  0.55062  1.0000
  C   C26       1.0  0.28430  0.44206  0.94937  1.0000
  C   C27       1.0  0.21571  0.94204  0.44937  1.0000
  C   C28       1.0  0.71570  0.55795  0.05064  1.0000
  N   N1        1.0  0.91516  0.07645  0.89732  1.0000
  N   N2        1.0  0.41516  0.42355  0.60267  1.0000
  N   N3        1.0  0.08486  0.92355  0.10268  1.0000
  N   N4        1.0  0.58485  0.57645  0.39733  1.0000
  N   N5        1.0  0.76664  0.23197  0.43120  1.0000
  N   N6        1.0  0.26666  0.26804  0.06879  1.0000
  N   N7        1.0  0.23334  0.76803  0.56879  1.0000
  N   N8        1.0  0.73334  0.73196  0.93122  1.0000
  N   N9        1.0  0.64049  0.11947  0.18876  1.0000
  N   N10       1.0  0.14047  0.38052  0.31124  1.0000
  N   N11       1.0  0.35953  0.88053  0.81124  1.0000
  N   N12       1.0  0.85953  0.61947  0.68876  1.0000
  Cl  Cl1       1.0  0.71077  0.92930  0.46194  1.0000
  Cl  Cl2       1.0  0.21076  0.57070  0.03806  1.0000
  Cl  Cl3       1.0  0.28923  0.07069  0.53805  1.0000
  Cl  Cl4       1.0  0.78923  0.42931  0.96196  1.0000
  O   O1        1.0  0.78299  0.09841  0.23985  1.0000
  O   O2        1.0  0.28298  0.40158  0.26015  1.0000
  O   O3        1.0  0.21702  0.90158  0.76015  1.0000
  O   O4        1.0  0.71702  0.59842  0.73986  1.0000
  O   O5        1.0  0.47568  0.10466  0.21908  1.0000
  O   O6        1.0  0.97567  0.39535  0.28091  1.0000
  O   O7        1.0  0.52433  0.89536  0.78091  1.0000
  O   O8        1.0  0.02433  0.60464  0.71909  1.0000
  O   O9        1.0  0.66372  0.15634  0.10109  1.0000
  O   O10       1.0  0.16369  0.34366  0.39890  1.0000
  O   O11       1.0  0.33630  0.84366  0.89890  1.0000
  O   O12       1.0  0.83630  0.65635  0.60110  1.0000
