data_image0
_chemical_formula_structural       Cd4H32C24N20O28
_chemical_formula_sum              "Cd4 H32 C24 N20 O28"
_cell_length_a       7.62625
_cell_length_b       8.72826
_cell_length_c       18.5674
_cell_angle_alpha    90
_cell_angle_beta     90
_cell_angle_gamma    98.9883

_space_group_name_H-M_alt    "P 1"
_space_group_IT_number       1

loop_
  _space_group_symop_operation_xyz
  'x, y, z'

loop_
  _atom_site_type_symbol
  _atom_site_label
  _atom_site_symmetry_multiplicity
  _atom_site_fract_x
  _atom_site_fract_y
  _atom_site_fract_z
  _atom_site_occupancy
  Cd  Cd1       1.0  0.88360  0.71210  0.89218  1.0000
  Cd  Cd2       1.0  0.61640  0.78790  0.39218  1.0000
  Cd  Cd3       1.0  0.11640  0.28790  0.10782  1.0000
  Cd  Cd4       1.0  0.38360  0.21210  0.60782  1.0000
  H   H1        1.0  0.13043  0.86228  0.00111  1.0000
  H   H2        1.0  0.36957  0.63773  0.50111  1.0000
  H   H3        1.0  0.86957  0.13773  0.99889  1.0000
  H   H4        1.0  0.63043  0.36228  0.49889  1.0000
  H   H5        1.0  0.06807  0.68672  0.02186  1.0000
  H   H6        1.0  0.43193  0.81328  0.52186  1.0000
  H   H7        1.0  0.93193  0.31328  0.97814  1.0000
  H   H8        1.0  0.56807  0.18672  0.47814  1.0000
  H   H9        1.0  0.28969  0.88527  0.86501  1.0000
  H   H10       1.0  0.21031  0.61472  0.36501  1.0000
  H   H11       1.0  0.71031  0.11472  0.13499  1.0000
  H   H12       1.0  0.78969  0.38528  0.63499  1.0000
  H   H13       1.0  0.46264  0.05611  0.77198  1.0000
  H   H14       1.0  0.03736  0.44389  0.27198  1.0000
  H   H15       1.0  0.53736  0.94389  0.22802  1.0000
  H   H16       1.0  0.96264  0.55611  0.72802  1.0000
  H   H17       1.0  0.98927  0.11871  0.67247  1.0000
  H   H18       1.0  0.51072  0.38129  0.17246  1.0000
  H   H19       1.0  0.01072  0.88129  0.32753  1.0000
  H   H20       1.0  0.48927  0.61871  0.82754  1.0000
  H   H21       1.0  0.81786  0.94385  0.76327  1.0000
  H   H22       1.0  0.68214  0.55615  0.26327  1.0000
  H   H23       1.0  0.18214  0.05615  0.23673  1.0000
  H   H24       1.0  0.31786  0.44385  0.73673  1.0000
  H   H25       1.0  0.64719  0.36834  0.90812  1.0000
  H   H26       1.0  0.85281  0.13166  0.40812  1.0000
  H   H27       1.0  0.35281  0.63166  0.09188  1.0000
  H   H28       1.0  0.14719  0.86834  0.59188  1.0000
  H   H29       1.0  0.61534  0.77103  0.02418  1.0000
  H   H30       1.0  0.88466  0.72897  0.52418  1.0000
  H   H31       1.0  0.38466  0.22897  0.97582  1.0000
  H   H32       1.0  0.11534  0.27103  0.47582  1.0000
  C   C1        1.0  0.22265  0.93753  0.82186  1.0000
  C   C2        1.0  0.27735  0.56247  0.32186  1.0000
  C   C3        1.0  0.77735  0.06247  0.17814  1.0000
  C   C4        1.0  0.72265  0.43753  0.67814  1.0000
  C   C5        1.0  0.31829  0.03204  0.77016  1.0000
  C   C6        1.0  0.18171  0.46796  0.27016  1.0000
  C   C7        1.0  0.68171  0.96796  0.22984  1.0000
  C   C8        1.0  0.81829  0.53204  0.72984  1.0000
  C   C9        1.0  0.05763  0.06566  0.71493  1.0000
  C   C10       1.0  0.44238  0.43434  0.21493  1.0000
  C   C11       1.0  0.94238  0.93434  0.28507  1.0000
  C   C12       1.0  0.55762  0.56567  0.78507  1.0000
  C   C13       1.0  0.96195  0.97004  0.76593  1.0000
  C   C14       1.0  0.53805  0.52996  0.26593  1.0000
  C   C15       1.0  0.03805  0.02996  0.23407  1.0000
  C   C16       1.0  0.46195  0.47004  0.73407  1.0000
  C   C17       1.0  0.58099  0.42790  0.94892  1.0000
  C   C18       1.0  0.91901  0.07210  0.44892  1.0000
  C   C19       1.0  0.41901  0.57210  0.05108  1.0000
  C   C20       1.0  0.08099  0.92790  0.55108  1.0000
  C   C21       1.0  0.56383  0.65000  0.01324  1.0000
  C   C22       1.0  0.93617  0.85000  0.51324  1.0000
  C   C23       1.0  0.43617  0.35000  0.98676  1.0000
  C   C24       1.0  0.06383  0.15000  0.48676  1.0000
  N   N1        1.0  0.10154  0.44937  0.86738  1.0000
  N   N2        1.0  0.39846  0.05063  0.36738  1.0000
  N   N3        1.0  0.89846  0.55063  0.13262  1.0000
  N   N4        1.0  0.60154  0.94937  0.63262  1.0000
  N   N5        1.0  0.67037  0.97812  0.90935  1.0000
  N   N6        1.0  0.82963  0.52188  0.40935  1.0000
  N   N7        1.0  0.32963  0.02188  0.09065  1.0000
  N   N8        1.0  0.17037  0.47812  0.59065  1.0000
  N   N9        1.0  0.04499  0.90418  0.81855  1.0000
  N   N10       1.0  0.45501  0.59582  0.31855  1.0000
  N   N11       1.0  0.95501  0.09582  0.18145  1.0000
  N   N12       1.0  0.54499  0.40418  0.68145  1.0000
  N   N13       1.0  0.23582  0.09324  0.71585  1.0000
  N   N14       1.0  0.26418  0.40676  0.21585  1.0000
  N   N15       1.0  0.76418  0.90676  0.28415  1.0000
  N   N16       1.0  0.73582  0.59324  0.78415  1.0000
  N   N17       1.0  0.64422  0.57759  0.96205  1.0000
  N   N18       1.0  0.85578  0.92242  0.46205  1.0000
  N   N19       1.0  0.35578  0.42241  0.03795  1.0000
  N   N20       1.0  0.14422  0.07759  0.53795  1.0000
  O   O1        1.0  0.14972  0.57173  0.83115  1.0000
  O   O2        1.0  0.35028  0.92827  0.33115  1.0000
  O   O3        1.0  0.85028  0.42827  0.16885  1.0000
  O   O4        1.0  0.64972  0.07173  0.66885  1.0000
  O   O5        1.0  0.96455  0.44686  0.90917  1.0000
  O   O6        1.0  0.53545  0.05314  0.40917  1.0000
  O   O7        1.0  0.03545  0.55314  0.09083  1.0000
  O   O8        1.0  0.46455  0.94686  0.59083  1.0000
  O   O9        1.0  0.17952  0.33440  0.86391  1.0000
  O   O10       1.0  0.32048  0.16560  0.36391  1.0000
  O   O11       1.0  0.82048  0.66560  0.13609  1.0000
  O   O12       1.0  0.67952  0.83440  0.63608  1.0000
  O   O13       1.0  0.79760  0.96351  0.95335  1.0000
  O   O14       1.0  0.70240  0.53649  0.45335  1.0000
  O   O15       1.0  0.20240  0.03650  0.04665  1.0000
  O   O16       1.0  0.29760  0.46351  0.54665  1.0000
  O   O17       1.0  0.62726  0.87042  0.86338  1.0000
  O   O18       1.0  0.87275  0.62958  0.36338  1.0000
  O   O19       1.0  0.37274  0.12958  0.13662  1.0000
  O   O20       1.0  0.12725  0.37042  0.63662  1.0000
  O   O21       1.0  0.59275  0.09332  0.91175  1.0000
  O   O22       1.0  0.90724  0.40668  0.41175  1.0000
  O   O23       1.0  0.40724  0.90668  0.08825  1.0000
  O   O24       1.0  0.09275  0.59332  0.58825  1.0000
  O   O25       1.0  0.09654  0.75715  0.97991  1.0000
  O   O26       1.0  0.40346  0.74285  0.47991  1.0000
  O   O27       1.0  0.90346  0.24285  0.02009  1.0000
  O   O28       1.0  0.59654  0.25715  0.52009  1.0000
