data_image0
_chemical_formula_structural       Cd4H16C16N16O24
_chemical_formula_sum              "Cd4 H16 C16 N16 O24"
_cell_length_a       7.17767
_cell_length_b       9.44445
_cell_length_c       12.729
_cell_angle_alpha    90.0003
_cell_angle_beta     92.6863
_cell_angle_gamma    90

_space_group_name_H-M_alt    "P 1"
_space_group_IT_number       1

loop_
  _space_group_symop_operation_xyz
  'x, y, z'

loop_
  _atom_site_type_symbol
  _atom_site_label
  _atom_site_symmetry_multiplicity
  _atom_site_fract_x
  _atom_site_fract_y
  _atom_site_fract_z
  _atom_site_occupancy
  Cd  Cd1       1.0  0.85832  0.93997  0.71754  1.0000
  Cd  Cd2       1.0  0.64168  0.43997  0.78246  1.0000
  Cd  Cd3       1.0  0.14168  0.06003  0.28246  1.0000
  Cd  Cd4       1.0  0.35832  0.56003  0.21754  1.0000
  H   H1        1.0  0.78952  0.87690  0.46900  1.0000
  H   H2        1.0  0.71049  0.37690  0.03100  1.0000
  H   H3        1.0  0.21048  0.12310  0.53100  1.0000
  H   H4        1.0  0.28952  0.62310  0.96900  1.0000
  H   H5        1.0  0.45296  0.08681  0.67664  1.0000
  H   H6        1.0  0.04704  0.58682  0.82336  1.0000
  H   H7        1.0  0.54704  0.91319  0.32336  1.0000
  H   H8        1.0  0.95296  0.41318  0.17664  1.0000
  H   H9        1.0  0.20821  0.88358  0.88167  1.0000
  H   H10       1.0  0.29178  0.38358  0.61833  1.0000
  H   H11       1.0  0.79179  0.11642  0.11833  1.0000
  H   H12       1.0  0.70821  0.61642  0.38167  1.0000
  H   H13       1.0  0.69575  0.07547  0.92899  1.0000
  H   H14       1.0  0.80424  0.57546  0.57101  1.0000
  H   H15       1.0  0.30425  0.92453  0.07101  1.0000
  H   H16       1.0  0.19575  0.42454  0.42899  1.0000
  C   C1        1.0  0.65967  0.93143  0.48329  1.0000
  C   C2        1.0  0.84033  0.43143  0.01671  1.0000
  C   C3        1.0  0.34033  0.06857  0.51671  1.0000
  C   C4        1.0  0.15967  0.56857  0.98329  1.0000
  C   C5        1.0  0.47522  0.04835  0.59766  1.0000
  C   C6        1.0  0.02478  0.54835  0.90234  1.0000
  C   C7        1.0  0.52478  0.95165  0.40233  1.0000
  C   C8        1.0  0.97523  0.45165  0.09766  1.0000
  C   C9        1.0  0.11390  0.93438  0.93472  1.0000
  C   C10       1.0  0.38609  0.43438  0.56528  1.0000
  C   C11       1.0  0.88610  0.06562  0.06528  1.0000
  C   C12       1.0  0.61390  0.56562  0.43472  1.0000
  C   C13       1.0  0.83210  0.04137  0.96028  1.0000
  C   C14       1.0  0.66790  0.54136  0.53972  1.0000
  C   C15       1.0  0.16790  0.95863  0.03972  1.0000
  C   C16       1.0  0.33209  0.45864  0.46028  1.0000
  N   N1        1.0  0.15727  0.78560  0.61972  1.0000
  N   N2        1.0  0.34273  0.28559  0.88028  1.0000
  N   N3        1.0  0.84273  0.21440  0.38028  1.0000
  N   N4        1.0  0.65727  0.71440  0.11972  1.0000
  N   N5        1.0  0.57778  0.75028  0.80257  1.0000
  N   N6        1.0  0.92222  0.25028  0.69743  1.0000
  N   N7        1.0  0.42221  0.24972  0.19743  1.0000
  N   N8        1.0  0.07779  0.74972  0.30257  1.0000
  N   N9        1.0  0.63493  0.97998  0.58080  1.0000
  N   N10       1.0  0.86507  0.47997  0.91920  1.0000
  N   N11       1.0  0.36507  0.02002  0.41920  1.0000
  N   N12       1.0  0.13493  0.52003  0.08080  1.0000
  N   N13       1.0  0.94584  0.97575  0.89535  1.0000
  N   N14       1.0  0.55416  0.47575  0.60465  1.0000
  N   N15       1.0  0.05416  0.02425  0.10465  1.0000
  N   N16       1.0  0.44584  0.52425  0.39535  1.0000
  O   O1        1.0  0.15975  0.84806  0.71025  1.0000
  O   O2        1.0  0.34025  0.34806  0.78976  1.0000
  O   O3        1.0  0.84025  0.15194  0.28976  1.0000
  O   O4        1.0  0.65975  0.65194  0.21025  1.0000
  O   O5        1.0  0.00100  0.77526  0.56894  1.0000
  O   O6        1.0  0.49900  0.27526  0.93106  1.0000
  O   O7        1.0  0.99900  0.22474  0.43106  1.0000
  O   O8        1.0  0.50100  0.72474  0.06894  1.0000
  O   O9        1.0  0.30449  0.73984  0.58506  1.0000
  O   O10       1.0  0.19551  0.23984  0.91494  1.0000
  O   O11       1.0  0.69551  0.26016  0.41494  1.0000
  O   O12       1.0  0.80450  0.76016  0.08506  1.0000
  O   O13       1.0  0.72681  0.71259  0.75572  1.0000
  O   O14       1.0  0.77319  0.21259  0.74429  1.0000
  O   O15       1.0  0.27319  0.28741  0.24428  1.0000
  O   O16       1.0  0.22681  0.78741  0.25571  1.0000
  O   O17       1.0  0.54517  0.87876  0.81608  1.0000
  O   O18       1.0  0.95483  0.37876  0.68392  1.0000
  O   O19       1.0  0.45483  0.12124  0.18392  1.0000
  O   O20       1.0  0.04517  0.62124  0.31609  1.0000
  O   O21       1.0  0.47094  0.65396  0.83279  1.0000
  O   O22       1.0  0.02906  0.15396  0.66721  1.0000
  O   O23       1.0  0.52906  0.34604  0.16721  1.0000
  O   O24       1.0  0.97095  0.84604  0.33279  1.0000
