data_image0
_chemical_formula_structural       Cd4H32C32N24O24
_chemical_formula_sum              "Cd4 H32 C32 N24 O24"
_cell_length_a       10.6697
_cell_length_b       10.669
_cell_length_c       13.9603
_cell_angle_alpha    112.429
_cell_angle_beta     112.428
_cell_angle_gamma    90.016

_space_group_name_H-M_alt    "P 1"
_space_group_IT_number       1

loop_
  _space_group_symop_operation_xyz
  'x, y, z'

loop_
  _atom_site_type_symbol
  _atom_site_label
  _atom_site_symmetry_multiplicity
  _atom_site_fract_x
  _atom_site_fract_y
  _atom_site_fract_z
  _atom_site_occupancy
  Cd  Cd1       1.0  0.62372  0.37372  0.24750  1.0000
  Cd  Cd2       1.0  0.87374  0.12374  0.74749  1.0000
  Cd  Cd3       1.0  0.37628  0.62628  0.75250  1.0000
  Cd  Cd4       1.0  0.12626  0.87626  0.25251  1.0000
  H   H1        1.0  0.95584  0.37463  0.39769  1.0000
  H   H2        1.0  0.02299  0.45587  0.89773  1.0000
  H   H3        1.0  0.87463  0.94178  0.89769  1.0000
  H   H4        1.0  0.44185  0.52301  0.39778  1.0000
  H   H5        1.0  0.04416  0.62537  0.60231  1.0000
  H   H6        1.0  0.97701  0.54413  0.10227  1.0000
  H   H7        1.0  0.12537  0.05822  0.10231  1.0000
  H   H8        1.0  0.55815  0.47699  0.60222  1.0000
  H   H9        1.0  0.12221  0.20772  0.39981  1.0000
  H   H10       1.0  0.19207  0.62225  0.89984  1.0000
  H   H11       1.0  0.70772  0.77750  0.89986  1.0000
  H   H12       1.0  0.27753  0.69205  0.39990  1.0000
  H   H13       1.0  0.87779  0.79228  0.60019  1.0000
  H   H14       1.0  0.80793  0.37775  0.10016  1.0000
  H   H15       1.0  0.29228  0.22250  0.10014  1.0000
  H   H16       1.0  0.72247  0.30795  0.60010  1.0000
  H   H17       1.0  0.80271  0.88796  0.14678  1.0000
  H   H18       1.0  0.25891  0.30271  0.64672  1.0000
  H   H19       1.0  0.38793  0.84411  0.64677  1.0000
  H   H20       1.0  0.34408  0.75890  0.14668  1.0000
  H   H21       1.0  0.19729  0.11205  0.85322  1.0000
  H   H22       1.0  0.74109  0.69729  0.35328  1.0000
  H   H23       1.0  0.61207  0.15589  0.35323  1.0000
  H   H24       1.0  0.65592  0.24110  0.85332  1.0000
  H   H25       1.0  0.63768  0.05467  0.14320  1.0000
  H   H26       1.0  0.08855  0.13766  0.64318  1.0000
  H   H27       1.0  0.55468  0.00559  0.64315  1.0000
  H   H28       1.0  0.50556  0.58853  0.14310  1.0000
  H   H29       1.0  0.36232  0.94533  0.85680  1.0000
  H   H30       1.0  0.91145  0.86234  0.35682  1.0000
  H   H31       1.0  0.44532  0.99441  0.35685  1.0000
  H   H32       1.0  0.49444  0.41147  0.85690  1.0000
  C   C1        1.0  0.92127  0.26593  0.34143  1.0000
  C   C2        1.0  0.07545  0.42129  0.84143  1.0000
  C   C3        1.0  0.76593  0.92010  0.84142  1.0000
  C   C4        1.0  0.42013  0.57547  0.34146  1.0000
  C   C5        1.0  0.07873  0.73407  0.65857  1.0000
  C   C6        1.0  0.92455  0.57871  0.15857  1.0000
  C   C7        1.0  0.23407  0.07990  0.15858  1.0000
  C   C8        1.0  0.57987  0.42453  0.65853  1.0000
  C   C9        1.0  0.01363  0.17328  0.34289  1.0000
  C   C10       1.0  0.16960  0.51366  0.84288  1.0000
  C   C11       1.0  0.67325  0.82919  0.84291  1.0000
  C   C12       1.0  0.32921  0.66958  0.34292  1.0000
  C   C13       1.0  0.98637  0.82672  0.65711  1.0000
  C   C14       1.0  0.83040  0.48634  0.15712  1.0000
  C   C15       1.0  0.32675  0.17081  0.15709  1.0000
  C   C16       1.0  0.67079  0.33042  0.65708  1.0000
  C   C17       1.0  0.83760  0.99675  0.20296  1.0000
  C   C18       1.0  0.20624  0.33760  0.70290  1.0000
  C   C19       1.0  0.49673  0.86538  0.70296  1.0000
  C   C20       1.0  0.36535  0.70624  0.20290  1.0000
  C   C21       1.0  0.16239  0.00325  0.79704  1.0000
  C   C22       1.0  0.79376  0.66240  0.29710  1.0000
  C   C23       1.0  0.50327  0.13462  0.29704  1.0000
  C   C24       1.0  0.63465  0.29376  0.79710  1.0000
  C   C25       1.0  0.74590  0.08901  0.20110  1.0000
  C   C26       1.0  0.11209  0.24589  0.70108  1.0000
  C   C27       1.0  0.58902  0.95525  0.70109  1.0000
  C   C28       1.0  0.45520  0.61211  0.20103  1.0000
  C   C29       1.0  0.25410  0.91099  0.79890  1.0000
  C   C30       1.0  0.88791  0.75411  0.29892  1.0000
  C   C31       1.0  0.41098  0.04475  0.29891  1.0000
  C   C32       1.0  0.54480  0.38789  0.79897  1.0000
  N   N1        1.0  0.49414  0.24417  0.98832  1.0000
  N   N2        1.0  0.74418  0.99411  0.48832  1.0000
  N   N3        1.0  0.50586  0.75583  0.01168  1.0000
  N   N4        1.0  0.25582  0.00588  0.51168  1.0000
  N   N5        1.0  0.75330  0.50327  0.50662  1.0000
  N   N6        1.0  0.00326  0.25329  0.00661  1.0000
  N   N7        1.0  0.24670  0.49673  0.49338  1.0000
  N   N8        1.0  0.99674  0.74671  0.99339  1.0000
  N   N9        1.0  0.78780  0.22345  0.27039  1.0000
  N   N10       1.0  0.04690  0.28780  0.77040  1.0000
  N   N11       1.0  0.72346  0.98259  0.77035  1.0000
  N   N12       1.0  0.48258  0.54691  0.27037  1.0000
  N   N13       1.0  0.21221  0.77655  0.72961  1.0000
  N   N14       1.0  0.95310  0.71220  0.22960  1.0000
  N   N15       1.0  0.27654  0.01742  0.22965  1.0000
  N   N16       1.0  0.51742  0.45308  0.72963  1.0000
  N   N17       1.0  0.97160  0.03911  0.27377  1.0000
  N   N18       1.0  0.23469  0.47161  0.77374  1.0000
  N   N19       1.0  0.53908  0.80214  0.77381  1.0000
  N   N20       1.0  0.30214  0.73467  0.27377  1.0000
  N   N21       1.0  0.02840  0.96089  0.72623  1.0000
  N   N22       1.0  0.76531  0.52839  0.22626  1.0000
  N   N23       1.0  0.46091  0.19786  0.22619  1.0000
  N   N24       1.0  0.69786  0.26533  0.72623  1.0000
  O   O1        1.0  0.60813  0.21555  0.04426  1.0000
  O   O2        1.0  0.82871  0.10814  0.54427  1.0000
  O   O3        1.0  0.71554  0.93596  0.54425  1.0000
  O   O4        1.0  0.43604  0.32869  0.04428  1.0000
  O   O5        1.0  0.39187  0.78445  0.95574  1.0000
  O   O6        1.0  0.17129  0.89186  0.45573  1.0000
  O   O7        1.0  0.28446  0.06403  0.45575  1.0000
  O   O8        1.0  0.56396  0.67132  0.95572  1.0000
  O   O9        1.0  0.44099  0.19100  0.88187  1.0000
  O   O10       1.0  0.69103  0.94103  0.38187  1.0000
  O   O11       1.0  0.55901  0.80900  0.11813  1.0000
  O   O12       1.0  0.30897  0.05897  0.61813  1.0000
  O   O13       1.0  0.80757  0.53639  0.45015  1.0000
  O   O14       1.0  0.91371  0.30754  0.95015  1.0000
  O   O15       1.0  0.03636  0.14259  0.95016  1.0000
  O   O16       1.0  0.64261  0.41373  0.45020  1.0000
  O   O17       1.0  0.19243  0.46361  0.54985  1.0000
  O   O18       1.0  0.08629  0.69247  0.04985  1.0000
  O   O19       1.0  0.96364  0.85741  0.04984  1.0000
  O   O20       1.0  0.35739  0.58627  0.54980  1.0000
  O   O21       1.0  0.80629  0.55629  0.61279  1.0000
  O   O22       1.0  0.05635  0.30636  0.11278  1.0000
  O   O23       1.0  0.19371  0.44370  0.38721  1.0000
  O   O24       1.0  0.94365  0.69364  0.88722  1.0000
