data_image0
_chemical_formula_structural       Cd4H28C24N20O24
_chemical_formula_sum              "Cd4 H28 C24 N20 O24"
_cell_length_a       7.46861
_cell_length_b       12.5878
_cell_length_c       12.7666
_cell_angle_alpha    111.304
_cell_angle_beta     90
_cell_angle_gamma    90

_space_group_name_H-M_alt    "P 1"
_space_group_IT_number       1

loop_
  _space_group_symop_operation_xyz
  'x, y, z'

loop_
  _atom_site_type_symbol
  _atom_site_label
  _atom_site_symmetry_multiplicity
  _atom_site_fract_x
  _atom_site_fract_y
  _atom_site_fract_z
  _atom_site_occupancy
  Cd  Cd1       1.0  0.19954  0.66972  0.29981  1.0000
  Cd  Cd2       1.0  0.69954  0.83028  0.70019  1.0000
  Cd  Cd3       1.0  0.80046  0.33028  0.70019  1.0000
  Cd  Cd4       1.0  0.30046  0.16972  0.29981  1.0000
  H   H1        1.0  0.18457  0.42253  0.31441  1.0000
  H   H2        1.0  0.68457  0.07747  0.68559  1.0000
  H   H3        1.0  0.81543  0.57747  0.68559  1.0000
  H   H4        1.0  0.31543  0.92253  0.31441  1.0000
  H   H5        1.0  0.68571  0.29886  0.35353  1.0000
  H   H6        1.0  0.18571  0.20114  0.64647  1.0000
  H   H7        1.0  0.31429  0.70114  0.64647  1.0000
  H   H8        1.0  0.81429  0.79886  0.35354  1.0000
  H   H9        1.0  0.83075  0.47435  0.34157  1.0000
  H   H10       1.0  0.33075  0.02565  0.65843  1.0000
  H   H11       1.0  0.16925  0.52565  0.65843  1.0000
  H   H12       1.0  0.66925  0.97435  0.34157  1.0000
  H   H13       1.0  0.62584  0.62345  0.31430  1.0000
  H   H14       1.0  0.12584  0.87655  0.68570  1.0000
  H   H15       1.0  0.37416  0.37655  0.68570  1.0000
  H   H16       1.0  0.87416  0.12345  0.31430  1.0000
  H   H17       1.0  0.71188  0.63254  0.99314  1.0000
  H   H18       1.0  0.21188  0.86746  0.00686  1.0000
  H   H19       1.0  0.28812  0.36746  0.00686  1.0000
  H   H20       1.0  0.78812  0.13254  0.99314  1.0000
  H   H21       1.0  0.62254  0.77084  0.00840  1.0000
  H   H22       1.0  0.12254  0.72916  0.99160  1.0000
  H   H23       1.0  0.37746  0.22916  0.99160  1.0000
  H   H24       1.0  0.87746  0.27084  0.00840  1.0000
  H   H25       1.0  0.52109  0.64303  0.91264  1.0000
  H   H26       1.0  0.02109  0.85697  0.08736  1.0000
  H   H27       1.0  0.47891  0.35697  0.08736  1.0000
  H   H28       1.0  0.97891  0.14303  0.91264  1.0000
  C   C1        1.0  0.32869  0.43472  0.32122  1.0000
  C   C2        1.0  0.82869  0.06528  0.67878  1.0000
  C   C3        1.0  0.67131  0.56529  0.67878  1.0000
  C   C4        1.0  0.17131  0.93472  0.32122  1.0000
  C   C5        1.0  0.60686  0.36618  0.34178  1.0000
  C   C6        1.0  0.10686  0.13382  0.65822  1.0000
  C   C7        1.0  0.39314  0.63382  0.65822  1.0000
  C   C8        1.0  0.89314  0.86618  0.34178  1.0000
  C   C9        1.0  0.68626  0.46326  0.33517  1.0000
  C   C10       1.0  0.18626  0.03674  0.66483  1.0000
  C   C11       1.0  0.31374  0.53673  0.66483  1.0000
  C   C12       1.0  0.81374  0.96327  0.33517  1.0000
  C   C13       1.0  0.57414  0.54528  0.32112  1.0000
  C   C14       1.0  0.07414  0.95472  0.67887  1.0000
  C   C15       1.0  0.42587  0.45472  0.67888  1.0000
  C   C16       1.0  0.92586  0.04528  0.32112  1.0000
  C   C17       1.0  0.47137  0.67722  0.08135  1.0000
  C   C18       1.0  0.97137  0.82278  0.91865  1.0000
  C   C19       1.0  0.52863  0.32278  0.91865  1.0000
  C   C20       1.0  0.02863  0.17722  0.08135  1.0000
  C   C21       1.0  0.58949  0.68135  0.99390  1.0000
  C   C22       1.0  0.08949  0.81865  0.00610  1.0000
  C   C23       1.0  0.41051  0.31865  0.00610  1.0000
  C   C24       1.0  0.91051  0.18135  0.99390  1.0000
  N   N1        1.0  0.93337  0.52082  0.14065  1.0000
  N   N2        1.0  0.43337  0.97918  0.85935  1.0000
  N   N3        1.0  0.06663  0.47918  0.85935  1.0000
  N   N4        1.0  0.56663  0.02082  0.14065  1.0000
  N   N5        1.0  0.95419  0.67211  0.51824  1.0000
  N   N6        1.0  0.45419  0.82789  0.48176  1.0000
  N   N7        1.0  0.04581  0.32789  0.48176  1.0000
  N   N8        1.0  0.54581  0.17211  0.51824  1.0000
  N   N9        1.0  0.39529  0.53107  0.31527  1.0000
  N   N10       1.0  0.89529  0.96893  0.68473  1.0000
  N   N11       1.0  0.60471  0.46894  0.68473  1.0000
  N   N12       1.0  0.10471  0.03107  0.31527  1.0000
  N   N13       1.0  0.42762  0.35153  0.33371  1.0000
  N   N14       1.0  0.92763  0.14846  0.66629  1.0000
  N   N15       1.0  0.57238  0.64847  0.66629  1.0000
  N   N16       1.0  0.07238  0.85153  0.33371  1.0000
  N   N17       1.0  0.37290  0.67408  0.15049  1.0000
  N   N18       1.0  0.87290  0.82592  0.84951  1.0000
  N   N19       1.0  0.62710  0.32592  0.84951  1.0000
  N   N20       1.0  0.12710  0.17408  0.15049  1.0000
  O   O1        1.0  0.92823  0.63024  0.19225  1.0000
  O   O2        1.0  0.42823  0.86976  0.80775  1.0000
  O   O3        1.0  0.07177  0.36976  0.80776  1.0000
  O   O4        1.0  0.57177  0.13024  0.19225  1.0000
  O   O5        1.0  0.06605  0.46704  0.15905  1.0000
  O   O6        1.0  0.56605  0.03296  0.84095  1.0000
  O   O7        1.0  0.93396  0.53296  0.84095  1.0000
  O   O8        1.0  0.43395  0.96704  0.15905  1.0000
  O   O9        1.0  0.80901  0.47149  0.07599  1.0000
  O   O10       1.0  0.30901  0.02851  0.92401  1.0000
  O   O11       1.0  0.19099  0.52850  0.92401  1.0000
  O   O12       1.0  0.69099  0.97149  0.07599  1.0000
  O   O13       1.0  0.04771  0.60452  0.43893  1.0000
  O   O14       1.0  0.54772  0.89548  0.56107  1.0000
  O   O15       1.0  0.95228  0.39548  0.56107  1.0000
  O   O16       1.0  0.45229  0.10452  0.43892  1.0000
  O   O17       1.0  0.82375  0.72587  0.49678  1.0000
  O   O18       1.0  0.32375  0.77412  0.50322  1.0000
  O   O19       1.0  0.17625  0.27413  0.50322  1.0000
  O   O20       1.0  0.67625  0.22587  0.49678  1.0000
  O   O21       1.0  0.98911  0.68593  0.61920  1.0000
  O   O22       1.0  0.48911  0.81407  0.38080  1.0000
  O   O23       1.0  0.01089  0.31407  0.38080  1.0000
  O   O24       1.0  0.51089  0.18593  0.61920  1.0000
