data_image0
_chemical_formula_structural       Cd4H32C32N24O24
_chemical_formula_sum              "Cd4 H32 C32 N24 O24"
_cell_length_a       7.02822
_cell_length_b       10.8038
_cell_length_c       15.806
_cell_angle_alpha    90
_cell_angle_beta     90
_cell_angle_gamma    90

_space_group_name_H-M_alt    "P 1"
_space_group_IT_number       1

loop_
  _space_group_symop_operation_xyz
  'x, y, z'

loop_
  _atom_site_type_symbol
  _atom_site_label
  _atom_site_symmetry_multiplicity
  _atom_site_fract_x
  _atom_site_fract_y
  _atom_site_fract_z
  _atom_site_occupancy
  Cd  Cd1       1.0  0.48474  0.66559  0.24922  1.0000
  Cd  Cd2       1.0  0.51526  0.16559  0.75078  1.0000
  Cd  Cd3       1.0  0.98474  0.66559  0.75078  1.0000
  Cd  Cd4       1.0  0.01526  0.16559  0.24922  1.0000
  H   H1        1.0  0.53276  0.53306  0.44099  1.0000
  H   H2        1.0  0.46724  0.03306  0.55901  1.0000
  H   H3        1.0  0.03276  0.53306  0.55901  1.0000
  H   H4        1.0  0.96724  0.03306  0.44099  1.0000
  H   H5        1.0  0.39701  0.34848  0.52141  1.0000
  H   H6        1.0  0.60299  0.84848  0.47859  1.0000
  H   H7        1.0  0.89701  0.34848  0.47859  1.0000
  H   H8        1.0  0.10299  0.84848  0.52141  1.0000
  H   H9        1.0  0.18069  0.20614  0.44186  1.0000
  H   H10       1.0  0.81930  0.70614  0.55814  1.0000
  H   H11       1.0  0.68070  0.20614  0.55814  1.0000
  H   H12       1.0  0.31931  0.70614  0.44186  1.0000
  H   H13       1.0  0.19793  0.44293  0.23396  1.0000
  H   H14       1.0  0.80207  0.94293  0.76604  1.0000
  H   H15       1.0  0.69793  0.44293  0.76604  1.0000
  H   H16       1.0  0.30207  0.94293  0.23396  1.0000
  H   H17       1.0  0.53255  0.76963  0.05669  1.0000
  H   H18       1.0  0.46745  0.26963  0.94331  1.0000
  H   H19       1.0  0.03255  0.76963  0.94331  1.0000
  H   H20       1.0  0.96745  0.26963  0.05669  1.0000
  H   H21       1.0  0.72459  0.92736  0.97625  1.0000
  H   H22       1.0  0.27541  0.42736  0.02374  1.0000
  H   H23       1.0  0.22459  0.92736  0.02374  1.0000
  H   H24       1.0  0.77541  0.42736  0.97625  1.0000
  H   H25       1.0  0.92505  0.07394  0.06108  1.0000
  H   H26       1.0  0.07495  0.57394  0.93892  1.0000
  H   H27       1.0  0.42505  0.07394  0.93892  1.0000
  H   H28       1.0  0.57495  0.57394  0.06108  1.0000
  H   H29       1.0  0.75023  0.90222  0.28352  1.0000
  H   H30       1.0  0.24977  0.40222  0.71647  1.0000
  H   H31       1.0  0.25023  0.90222  0.71647  1.0000
  H   H32       1.0  0.74977  0.40222  0.28352  1.0000
  C   C1        1.0  0.42860  0.47044  0.41310  1.0000
  C   C2        1.0  0.57140  0.97044  0.58689  1.0000
  C   C3        1.0  0.92860  0.47044  0.58689  1.0000
  C   C4        1.0  0.07140  0.97044  0.41310  1.0000
  C   C5        1.0  0.35799  0.36822  0.45629  1.0000
  C   C6        1.0  0.64201  0.86822  0.54371  1.0000
  C   C7        1.0  0.85799  0.36822  0.54371  1.0000
  C   C8        1.0  0.14201  0.86822  0.45629  1.0000
  C   C9        1.0  0.23561  0.29018  0.41258  1.0000
  C   C10       1.0  0.76438  0.79018  0.58742  1.0000
  C   C11       1.0  0.73562  0.29018  0.58742  1.0000
  C   C12       1.0  0.26439  0.79018  0.41258  1.0000
  C   C13       1.0  0.24597  0.41964  0.29739  1.0000
  C   C14       1.0  0.75403  0.91964  0.70261  1.0000
  C   C15       1.0  0.74597  0.41964  0.70261  1.0000
  C   C16       1.0  0.25403  0.91964  0.29739  1.0000
  C   C17       1.0  0.62561  0.83457  0.08933  1.0000
  C   C18       1.0  0.37438  0.33457  0.91067  1.0000
  C   C19       1.0  0.12562  0.83457  0.91067  1.0000
  C   C20       1.0  0.87439  0.33457  0.08933  1.0000
  C   C21       1.0  0.72971  0.92209  0.04498  1.0000
  C   C22       1.0  0.27029  0.42209  0.95502  1.0000
  C   C23       1.0  0.22971  0.92209  0.95502  1.0000
  C   C24       1.0  0.77029  0.42209  0.04498  1.0000
  C   C25       1.0  0.83869  0.00393  0.09221  1.0000
  C   C26       1.0  0.16130  0.50393  0.90779  1.0000
  C   C27       1.0  0.33870  0.00393  0.90779  1.0000
  C   C28       1.0  0.66131  0.50393  0.09221  1.0000
  C   C29       1.0  0.74341  0.90997  0.21481  1.0000
  C   C30       1.0  0.25659  0.40997  0.78519  1.0000
  C   C31       1.0  0.24341  0.90997  0.78519  1.0000
  C   C32       1.0  0.75659  0.40997  0.21481  1.0000
  N   N1        1.0  0.87153  0.64281  0.35671  1.0000
  N   N2        1.0  0.12847  0.14280  0.64329  1.0000
  N   N3        1.0  0.37153  0.64280  0.64329  1.0000
  N   N4        1.0  0.62847  0.14280  0.35671  1.0000
  N   N5        1.0  0.15075  0.68716  0.11707  1.0000
  N   N6        1.0  0.84925  0.18716  0.88293  1.0000
  N   N7        1.0  0.65075  0.68716  0.88293  1.0000
  N   N8        1.0  0.34925  0.18716  0.11707  1.0000
  N   N9        1.0  0.37027  0.49684  0.33397  1.0000
  N   N10       1.0  0.62972  0.99684  0.66603  1.0000
  N   N11       1.0  0.87028  0.49684  0.66603  1.0000
  N   N12       1.0  0.12973  0.99684  0.33397  1.0000
  N   N13       1.0  0.18117  0.31529  0.33271  1.0000
  N   N14       1.0  0.81883  0.81529  0.66729  1.0000
  N   N15       1.0  0.68117  0.31529  0.66729  1.0000
  N   N16       1.0  0.31883  0.81529  0.33271  1.0000
  N   N17       1.0  0.63573  0.82674  0.17429  1.0000
  N   N18       1.0  0.36427  0.32674  0.82571  1.0000
  N   N19       1.0  0.13573  0.82674  0.82571  1.0000
  N   N20       1.0  0.86427  0.32674  0.17429  1.0000
  N   N21       1.0  0.84238  0.00017  0.17723  1.0000
  N   N22       1.0  0.15762  0.50017  0.82277  1.0000
  N   N23       1.0  0.34238  0.00017  0.82277  1.0000
  N   N24       1.0  0.65763  0.50017  0.17723  1.0000
  O   O1        1.0  0.70364  0.69181  0.36659  1.0000
  O   O2        1.0  0.29636  0.19181  0.63342  1.0000
  O   O3        1.0  0.20364  0.69181  0.63342  1.0000
  O   O4        1.0  0.79636  0.19181  0.36658  1.0000
  O   O5        1.0  0.94770  0.59025  0.41912  1.0000
  O   O6        1.0  0.05230  0.09025  0.58088  1.0000
  O   O7        1.0  0.44770  0.59025  0.58088  1.0000
  O   O8        1.0  0.55230  0.09025  0.41912  1.0000
  O   O9        1.0  0.95175  0.64956  0.28608  1.0000
  O   O10       1.0  0.04825  0.14956  0.71392  1.0000
  O   O11       1.0  0.45175  0.64956  0.71392  1.0000
  O   O12       1.0  0.54825  0.14956  0.28608  1.0000
  O   O13       1.0  0.26932  0.60271  0.14265  1.0000
  O   O14       1.0  0.73069  0.10270  0.85735  1.0000
  O   O15       1.0  0.76932  0.60270  0.85735  1.0000
  O   O16       1.0  0.23068  0.10270  0.14265  1.0000
  O   O17       1.0  0.17621  0.79739  0.13952  1.0000
  O   O18       1.0  0.82378  0.29739  0.86047  1.0000
  O   O19       1.0  0.67622  0.79739  0.86047  1.0000
  O   O20       1.0  0.32379  0.29739  0.13952  1.0000
  O   O21       1.0  0.01626  0.65550  0.06986  1.0000
  O   O22       1.0  0.98374  0.15550  0.93014  1.0000
  O   O23       1.0  0.51626  0.65550  0.93014  1.0000
  O   O24       1.0  0.48374  0.15550  0.06986  1.0000
