data_image0
_chemical_formula_structural       Pr4H24C32N4O32
_chemical_formula_sum              "Pr4 H24 C32 N4 O32"
_cell_length_a       6.82574
_cell_length_b       11.8164
_cell_length_c       13.5311
_cell_angle_alpha    90
_cell_angle_beta     97.9127
_cell_angle_gamma    89.9996

_space_group_name_H-M_alt    "P 1"
_space_group_IT_number       1

loop_
  _space_group_symop_operation_xyz
  'x, y, z'

loop_
  _atom_site_type_symbol
  _atom_site_label
  _atom_site_symmetry_multiplicity
  _atom_site_fract_x
  _atom_site_fract_y
  _atom_site_fract_z
  _atom_site_occupancy
  Pr  Pr1       1.0  0.92374  0.17766  0.24467  1.0000
  Pr  Pr2       1.0  0.07626  0.67766  0.25533  1.0000
  Pr  Pr3       1.0  0.07626  0.82234  0.75533  1.0000
  Pr  Pr4       1.0  0.92374  0.32234  0.74467  1.0000
  H   H1        1.0  0.16784  0.06250  0.04730  1.0000
  H   H2        1.0  0.83216  0.56250  0.45271  1.0000
  H   H3        1.0  0.83216  0.93750  0.95270  1.0000
  H   H4        1.0  0.16784  0.43750  0.54730  1.0000
  H   H5        1.0  0.55387  0.19384  0.84653  1.0000
  H   H6        1.0  0.44612  0.69384  0.65347  1.0000
  H   H7        1.0  0.44613  0.80616  0.15347  1.0000
  H   H8        1.0  0.55388  0.30616  0.34653  1.0000
  H   H9        1.0  0.74988  0.44537  0.23651  1.0000
  H   H10       1.0  0.25013  0.94537  0.26349  1.0000
  H   H11       1.0  0.25012  0.55463  0.76349  1.0000
  H   H12       1.0  0.74988  0.05463  0.73651  1.0000
  H   H13       1.0  0.60986  0.36561  0.16595  1.0000
  H   H14       1.0  0.39014  0.86561  0.33405  1.0000
  H   H15       1.0  0.39014  0.63439  0.83405  1.0000
  H   H16       1.0  0.60986  0.13439  0.66594  1.0000
  H   H17       1.0  0.92218  0.93536  0.33845  1.0000
  H   H18       1.0  0.07783  0.43536  0.16154  1.0000
  H   H19       1.0  0.07779  0.06464  0.66154  1.0000
  H   H20       1.0  0.92219  0.56464  0.83846  1.0000
  H   H21       1.0  0.06878  0.99775  0.42022  1.0000
  H   H22       1.0  0.93123  0.49775  0.07977  1.0000
  H   H23       1.0  0.93123  0.00224  0.57976  1.0000
  H   H24       1.0  0.06876  0.50224  0.92024  1.0000
  C   C1        1.0  0.42922  0.11217  0.22018  1.0000
  C   C2        1.0  0.57079  0.61217  0.27982  1.0000
  C   C3        1.0  0.57078  0.88783  0.77982  1.0000
  C   C4        1.0  0.42922  0.38783  0.72018  1.0000
  C   C5        1.0  0.44857  0.13259  0.11182  1.0000
  C   C6        1.0  0.55144  0.63260  0.38819  1.0000
  C   C7        1.0  0.55143  0.86741  0.88819  1.0000
  C   C8        1.0  0.44857  0.36741  0.61181  1.0000
  C   C9        1.0  0.30385  0.10332  0.03280  1.0000
  C   C10       1.0  0.69615  0.60332  0.46721  1.0000
  C   C11       1.0  0.69615  0.89668  0.96720  1.0000
  C   C12       1.0  0.30385  0.39668  0.53280  1.0000
  C   C13       1.0  0.33978  0.12700  0.93560  1.0000
  C   C14       1.0  0.66021  0.62700  0.56440  1.0000
  C   C15       1.0  0.66021  0.87300  0.06440  1.0000
  C   C16       1.0  0.33979  0.37300  0.43560  1.0000
  C   C17       1.0  0.19255  0.09421  0.84688  1.0000
  C   C18       1.0  0.80745  0.59421  0.65312  1.0000
  C   C19       1.0  0.80745  0.90579  0.15312  1.0000
  C   C20       1.0  0.19255  0.40579  0.34688  1.0000
  C   C21       1.0  0.51992  0.17605  0.92100  1.0000
  C   C22       1.0  0.48008  0.67605  0.57900  1.0000
  C   C23       1.0  0.48008  0.82395  0.07900  1.0000
  C   C24       1.0  0.51993  0.32395  0.42100  1.0000
  C   C25       1.0  0.66112  0.19623  0.00385  1.0000
  C   C26       1.0  0.33888  0.69623  0.49615  1.0000
  C   C27       1.0  0.33887  0.80377  0.99615  1.0000
  C   C28       1.0  0.66113  0.30377  0.50385  1.0000
  C   C29       1.0  0.86906  0.23688  0.99689  1.0000
  C   C30       1.0  0.13093  0.73688  0.50311  1.0000
  C   C31       1.0  0.13094  0.76312  0.00311  1.0000
  C   C32       1.0  0.86907  0.26312  0.49689  1.0000
  N   N1        1.0  0.62382  0.17580  0.09689  1.0000
  N   N2        1.0  0.37618  0.67580  0.40311  1.0000
  N   N3        1.0  0.37618  0.82420  0.90311  1.0000
  N   N4        1.0  0.62383  0.32420  0.59689  1.0000
  O   O1        1.0  0.58684  0.11422  0.28121  1.0000
  O   O2        1.0  0.41316  0.61422  0.21879  1.0000
  O   O3        1.0  0.41316  0.88578  0.71879  1.0000
  O   O4        1.0  0.58684  0.38578  0.78121  1.0000
  O   O5        1.0  0.25770  0.09105  0.24348  1.0000
  O   O6        1.0  0.74231  0.59105  0.25652  1.0000
  O   O7        1.0  0.74230  0.90895  0.75652  1.0000
  O   O8        1.0  0.25770  0.40895  0.74348  1.0000
  O   O9        1.0  0.17053  0.15966  0.77109  1.0000
  O   O10       1.0  0.82947  0.65966  0.72891  1.0000
  O   O11       1.0  0.82947  0.84035  0.22891  1.0000
  O   O12       1.0  0.17053  0.34034  0.27109  1.0000
  O   O13       1.0  0.10415  0.00083  0.85282  1.0000
  O   O14       1.0  0.89586  0.50084  0.64718  1.0000
  O   O15       1.0  0.89585  0.99917  0.14717  1.0000
  O   O16       1.0  0.10415  0.49917  0.35282  1.0000
  O   O17       1.0  0.91971  0.25187  0.91142  1.0000
  O   O18       1.0  0.08028  0.75188  0.58858  1.0000
  O   O19       1.0  0.08028  0.74813  0.08857  1.0000
  O   O20       1.0  0.91972  0.24812  0.41142  1.0000
  O   O21       1.0  0.98241  0.25047  0.07872  1.0000
  O   O22       1.0  0.01759  0.75048  0.42127  1.0000
  O   O23       1.0  0.01759  0.74952  0.92127  1.0000
  O   O24       1.0  0.98241  0.24952  0.57872  1.0000
  O   O25       1.0  0.94960  0.00892  0.37288  1.0000
  O   O26       1.0  0.05040  0.50891  0.12712  1.0000
  O   O27       1.0  0.05037  0.99108  0.62712  1.0000
  O   O28       1.0  0.94960  0.49108  0.87288  1.0000
  O   O29       1.0  0.71940  0.36470  0.22000  1.0000
  O   O30       1.0  0.28061  0.86470  0.28000  1.0000
  O   O31       1.0  0.28060  0.63530  0.77999  1.0000
  O   O32       1.0  0.71939  0.13530  0.72001  1.0000
