data_image0
_chemical_formula_structural       CdH16C18N14O2
_chemical_formula_sum              "Cd1 H16 C18 N14 O2"
_cell_length_a       7.71722
_cell_length_b       7.83963
_cell_length_c       8.87388
_cell_angle_alpha    98.893
_cell_angle_beta     95.8794
_cell_angle_gamma    109.115

_space_group_name_H-M_alt    "P 1"
_space_group_IT_number       1

loop_
  _space_group_symop_operation_xyz
  'x, y, z'

loop_
  _atom_site_type_symbol
  _atom_site_label
  _atom_site_symmetry_multiplicity
  _atom_site_fract_x
  _atom_site_fract_y
  _atom_site_fract_z
  _atom_site_occupancy
  Cd  Cd1       1.0  0.00000  0.00000  0.00000  1.0000
  H   H1        1.0  0.33090  0.24593  0.87788  1.0000
  H   H2        1.0  0.66910  0.75407  0.12212  1.0000
  H   H3        1.0  0.23887  0.38244  0.95729  1.0000
  H   H4        1.0  0.76113  0.61756  0.04271  1.0000
  H   H5        1.0  0.87363  0.54304  0.77763  1.0000
  H   H6        1.0  0.12637  0.45696  0.22237  1.0000
  H   H7        1.0  0.82540  0.78825  0.38860  1.0000
  H   H8        1.0  0.17459  0.21175  0.61140  1.0000
  H   H9        1.0  0.65465  0.97442  0.41555  1.0000
  H   H10       1.0  0.34535  0.02558  0.58445  1.0000
  H   H11       1.0  0.83581  0.27242  0.58576  1.0000
  H   H12       1.0  0.16420  0.72757  0.41425  1.0000
  H   H13       1.0  0.56606  0.54279  0.29957  1.0000
  H   H14       1.0  0.43394  0.45721  0.70043  1.0000
  H   H15       1.0  0.39169  0.24444  0.12773  1.0000
  H   H16       1.0  0.60831  0.75556  0.87226  1.0000
  C   C1        1.0  0.39751  0.90964  0.16052  1.0000
  C   C2        1.0  0.60249  0.09036  0.83948  1.0000
  C   C3        1.0  0.87759  0.64290  0.70498  1.0000
  C   C4        1.0  0.12241  0.35710  0.29502  1.0000
  C   C5        1.0  0.84709  0.77115  0.50742  1.0000
  C   C6        1.0  0.15291  0.22885  0.49258  1.0000
  C   C7        1.0  0.50997  0.08740  0.25894  1.0000
  C   C8        1.0  0.49003  0.91260  0.74106  1.0000
  C   C9        1.0  0.63719  0.09889  0.38847  1.0000
  C   C10       1.0  0.36281  0.90111  0.61153  1.0000
  C   C11       1.0  0.73893  0.26754  0.48548  1.0000
  C   C12       1.0  0.26107  0.73246  0.51452  1.0000
  C   C13       1.0  0.71445  0.42758  0.45245  1.0000
  C   C14       1.0  0.28555  0.57242  0.54755  1.0000
  C   C15       1.0  0.58832  0.41884  0.32412  1.0000
  C   C16       1.0  0.41168  0.58116  0.67588  1.0000
  C   C17       1.0  0.48839  0.24991  0.22799  1.0000
  C   C18       1.0  0.51160  0.75009  0.77201  1.0000
  N   N1        1.0  0.23238  0.87370  0.06975  1.0000
  N   N2        1.0  0.76762  0.12629  0.93025  1.0000
  N   N3        1.0  0.17326  0.69416  0.00313  1.0000
  N   N4        1.0  0.82674  0.30584  0.99687  1.0000
  N   N5        1.0  0.29717  0.62380  0.05023  1.0000
  N   N6        1.0  0.70283  0.37620  0.94977  1.0000
  N   N7        1.0  0.44048  0.75520  0.14931  1.0000
  N   N8        1.0  0.55952  0.24480  0.85069  1.0000
  N   N9        1.0  0.94125  0.82351  0.75312  1.0000
  N   N10       1.0  0.05875  0.17649  0.24688  1.0000
  N   N11       1.0  0.92265  0.90544  0.62889  1.0000
  N   N12       1.0  0.07735  0.09456  0.37111  1.0000
  N   N13       1.0  0.81352  0.60272  0.54964  1.0000
  N   N14       1.0  0.18648  0.39728  0.45036  1.0000
  O   O1        1.0  0.20975  0.25221  0.90317  1.0000
  O   O2        1.0  0.79025  0.74778  0.09683  1.0000
