data_image0
_chemical_formula_structural       Sr2H28C12Cl4O12
_chemical_formula_sum              "Sr2 H28 C12 Cl4 O12"
_cell_length_a       6.73825
_cell_length_b       7.82182
_cell_length_c       12.9354
_cell_angle_alpha    71.5296
_cell_angle_beta     74.8989
_cell_angle_gamma    64.4784

_space_group_name_H-M_alt    "P 1"
_space_group_IT_number       1

loop_
  _space_group_symop_operation_xyz
  'x, y, z'

loop_
  _atom_site_type_symbol
  _atom_site_label
  _atom_site_symmetry_multiplicity
  _atom_site_fract_x
  _atom_site_fract_y
  _atom_site_fract_z
  _atom_site_occupancy
  Sr  Sr1       1.0  0.24223  0.74998  0.25001  1.0000
  Sr  Sr2       1.0  0.75777  0.25002  0.74999  1.0000
  H   H1        1.0  0.94862  0.82804  0.58144  1.0000
  H   H2        1.0  0.35784  0.67183  0.91858  1.0000
  H   H3        1.0  0.05139  0.17196  0.41856  1.0000
  H   H4        1.0  0.64216  0.32818  0.08142  1.0000
  H   H5        1.0  0.66095  0.05797  0.45994  1.0000
  H   H6        1.0  0.17887  0.44185  0.04024  1.0000
  H   H7        1.0  0.33905  0.94203  0.54006  1.0000
  H   H8        1.0  0.82113  0.55815  0.95977  1.0000
  H   H9        1.0  0.72933  0.70287  0.52400  1.0000
  H   H10       1.0  0.95620  0.79694  0.97609  1.0000
  H   H11       1.0  0.27066  0.29713  0.47600  1.0000
  H   H12       1.0  0.04380  0.20306  0.02391  1.0000
  H   H13       1.0  0.61225  0.82723  0.39800  1.0000
  H   H14       1.0  0.83742  0.67267  0.10209  1.0000
  H   H15       1.0  0.38774  0.17277  0.60200  1.0000
  H   H16       1.0  0.16258  0.32733  0.89791  1.0000
  H   H17       1.0  0.28268  0.68588  0.50957  1.0000
  H   H18       1.0  0.47797  0.81414  0.99035  1.0000
  H   H19       1.0  0.71732  0.31412  0.49043  1.0000
  H   H20       1.0  0.52203  0.18586  0.00965  1.0000
  H   H21       1.0  0.82392  0.17111  0.30234  1.0000
  H   H22       1.0  0.29752  0.32877  0.19773  1.0000
  H   H23       1.0  0.17608  0.82889  0.69766  1.0000
  H   H24       1.0  0.70248  0.67123  0.80227  1.0000
  H   H25       1.0  0.87560  0.57317  0.35183  1.0000
  H   H26       1.0  0.80062  0.92671  0.14824  1.0000
  H   H27       1.0  0.12440  0.42683  0.64817  1.0000
  H   H28       1.0  0.19937  0.07330  0.85176  1.0000
  C   C1        1.0  0.99270  0.90599  0.49703  1.0000
  C   C2        1.0  0.39562  0.59397  0.00299  1.0000
  C   C3        1.0  0.00730  0.09400  0.50297  1.0000
  C   C4        1.0  0.60438  0.40603  0.99701  1.0000
  C   C5        1.0  0.81554  0.94891  0.42855  1.0000
  C   C6        1.0  0.19300  0.55094  0.07157  1.0000
  C   C7        1.0  0.18446  0.05109  0.57145  1.0000
  C   C8        1.0  0.80700  0.44906  0.92843  1.0000
  C   C9        1.0  0.76227  0.77424  0.43646  1.0000
  C   C10       1.0  0.97295  0.72561  0.06364  1.0000
  C   C11       1.0  0.23773  0.22576  0.56354  1.0000
  C   C12       1.0  0.02706  0.27439  0.93637  1.0000
  Cl  Cl1       1.0  0.66224  0.45602  0.32423  1.0000
  Cl  Cl2       1.0  0.44258  0.04389  0.17573  1.0000
  Cl  Cl3       1.0  0.33776  0.54398  0.67577  1.0000
  Cl  Cl4       1.0  0.55742  0.95611  0.82427  1.0000
  O   O1        1.0  0.20474  0.78535  0.44844  1.0000
  O   O2        1.0  0.43832  0.71473  0.05151  1.0000
  O   O3        1.0  0.79526  0.21465  0.55156  1.0000
  O   O4        1.0  0.56168  0.28527  0.94849  1.0000
  O   O5        1.0  0.88202  0.02720  0.31431  1.0000
  O   O6        1.0  0.22363  0.47268  0.18579  1.0000
  O   O7        1.0  0.11797  0.97280  0.68569  1.0000
  O   O8        1.0  0.77637  0.52732  0.81421  1.0000
  O   O9        1.0  0.94174  0.63737  0.38008  1.0000
  O   O10       1.0  0.95922  0.86246  0.12000  1.0000
  O   O11       1.0  0.05826  0.36263  0.61992  1.0000
  O   O12       1.0  0.04078  0.13754  0.88000  1.0000
