data_image0
_chemical_formula_structural       Zn4H40C52N16Cl8
_chemical_formula_sum              "Zn4 H40 C52 N16 Cl8"
_cell_length_a       5.18444
_cell_length_b       12.2641
_cell_length_c       21.6479
_cell_angle_alpha    89.9998
_cell_angle_beta     89.9999
_cell_angle_gamma    100.645

_space_group_name_H-M_alt    "P 1"
_space_group_IT_number       1

loop_
  _space_group_symop_operation_xyz
  'x, y, z'

loop_
  _atom_site_type_symbol
  _atom_site_label
  _atom_site_symmetry_multiplicity
  _atom_site_fract_x
  _atom_site_fract_y
  _atom_site_fract_z
  _atom_site_occupancy
  Zn  Zn1       1.0  0.91229  0.36587  0.64744  1.0000
  Zn  Zn2       1.0  0.58772  0.13413  0.14744  1.0000
  Zn  Zn3       1.0  0.08771  0.63414  0.35256  1.0000
  Zn  Zn4       1.0  0.41229  0.86587  0.85256  1.0000
  H   H1        1.0  0.35979  0.53608  0.69441  1.0000
  H   H2        1.0  0.14023  0.96392  0.19442  1.0000
  H   H3        1.0  0.64023  0.46392  0.30558  1.0000
  H   H4        1.0  0.85977  0.03609  0.80558  1.0000
  H   H5        1.0  0.94615  0.55481  0.86253  1.0000
  H   H6        1.0  0.55386  0.94520  0.36252  1.0000
  H   H7        1.0  0.05384  0.44519  0.13748  1.0000
  H   H8        1.0  0.44614  0.05481  0.63748  1.0000
  H   H9        1.0  0.69969  0.54798  0.77566  1.0000
  H   H10       1.0  0.80031  0.95203  0.27566  1.0000
  H   H11       1.0  0.30032  0.45202  0.22434  1.0000
  H   H12       1.0  0.19969  0.04797  0.72434  1.0000
  H   H13       1.0  0.27582  0.23442  0.84647  1.0000
  H   H14       1.0  0.22419  0.26559  0.34646  1.0000
  H   H15       1.0  0.72417  0.76558  0.15353  1.0000
  H   H16       1.0  0.77582  0.73441  0.65354  1.0000
  H   H17       1.0  0.95278  0.23728  0.76154  1.0000
  H   H18       1.0  0.54724  0.26273  0.26153  1.0000
  H   H19       1.0  0.04721  0.76273  0.23846  1.0000
  H   H20       1.0  0.45277  0.73727  0.73847  1.0000
  H   H21       1.0  0.64053  0.21813  0.90576  1.0000
  H   H22       1.0  0.85945  0.28188  0.40576  1.0000
  H   H23       1.0  0.35944  0.78187  0.09424  1.0000
  H   H24       1.0  0.14055  0.71813  0.59424  1.0000
  H   H25       1.0  0.65999  0.34377  0.07811  1.0000
  H   H26       1.0  0.84000  0.15622  0.57812  1.0000
  H   H27       1.0  0.33999  0.65622  0.92188  1.0000
  H   H28       1.0  0.16002  0.84378  0.42189  1.0000
  H   H29       1.0  0.43022  0.43174  0.99673  1.0000
  H   H30       1.0  0.06975  0.06826  0.49673  1.0000
  H   H31       1.0  0.56975  0.56826  0.00327  1.0000
  H   H32       1.0  0.93026  0.93174  0.50328  1.0000
  H   H33       1.0  0.85033  0.13068  0.98860  1.0000
  H   H34       1.0  0.64966  0.36932  0.48860  1.0000
  H   H35       1.0  0.14966  0.86931  0.01140  1.0000
  H   H36       1.0  0.35033  0.63069  0.51140  1.0000
  H   H37       1.0  0.10968  0.05172  0.06706  1.0000
  H   H38       1.0  0.39033  0.44827  0.56706  1.0000
  H   H39       1.0  0.89033  0.94827  0.93294  1.0000
  H   H40       1.0  0.60968  0.55173  0.43294  1.0000
  C   C1        1.0  0.34800  0.47173  0.72957  1.0000
  C   C2        1.0  0.15201  0.02827  0.22957  1.0000
  C   C3        1.0  0.65202  0.52827  0.27043  1.0000
  C   C4        1.0  0.84799  0.97173  0.77042  1.0000
  C   C5        1.0  0.53674  0.47765  0.77552  1.0000
  C   C6        1.0  0.96327  0.02236  0.27551  1.0000
  C   C7        1.0  0.46328  0.52235  0.22448  1.0000
  C   C8        1.0  0.03673  0.97765  0.72448  1.0000
  C   C9        1.0  0.51771  0.39145  0.81907  1.0000
  C   C10       1.0  0.98229  0.10856  0.31906  1.0000
  C   C11       1.0  0.48229  0.60855  0.18093  1.0000
  C   C12       1.0  0.01772  0.89145  0.68093  1.0000
  C   C13       1.0  0.30170  0.30373  0.81424  1.0000
  C   C14       1.0  0.19832  0.19628  0.31424  1.0000
  C   C15       1.0  0.69829  0.69628  0.18576  1.0000
  C   C16       1.0  0.80169  0.80372  0.68576  1.0000
  C   C17       1.0  0.12214  0.30406  0.76706  1.0000
  C   C18       1.0  0.37788  0.19595  0.26706  1.0000
  C   C19       1.0  0.87786  0.69595  0.23294  1.0000
  C   C20       1.0  0.62212  0.80406  0.73294  1.0000
  C   C21       1.0  0.71416  0.38844  0.86659  1.0000
  C   C22       1.0  0.78583  0.11158  0.36659  1.0000
  C   C23       1.0  0.28582  0.61157  0.13341  1.0000
  C   C24       1.0  0.21418  0.88843  0.63342  1.0000
  C   C25       1.0  0.75486  0.30171  0.90497  1.0000
  C   C26       1.0  0.74513  0.19830  0.40497  1.0000
  C   C27       1.0  0.24511  0.69829  0.09503  1.0000
  C   C28       1.0  0.25488  0.80170  0.59503  1.0000
  C   C29       1.0  0.97994  0.34481  0.94002  1.0000
  C   C30       1.0  0.52006  0.15519  0.44002  1.0000
  C   C31       1.0  0.02005  0.65518  0.05998  1.0000
  C   C32       1.0  0.47995  0.84482  0.55998  1.0000
  C   C33       1.0  0.48053  0.29929  0.05702  1.0000
  C   C34       1.0  0.01947  0.20070  0.55702  1.0000
  C   C35       1.0  0.51946  0.70071  0.94299  1.0000
  C   C36       1.0  0.98054  0.79930  0.44299  1.0000
  C   C37       1.0  0.35064  0.34846  0.01234  1.0000
  C   C38       1.0  0.14936  0.15153  0.51234  1.0000
  C   C39       1.0  0.64935  0.65153  0.98766  1.0000
  C   C40       1.0  0.85065  0.84847  0.48767  1.0000
  C   C41       1.0  0.11720  0.29070  0.98632  1.0000
  C   C42       1.0  0.38277  0.20930  0.48632  1.0000
  C   C43       1.0  0.88278  0.70930  0.01368  1.0000
  C   C44       1.0  0.61722  0.79070  0.51368  1.0000
  C   C45       1.0  0.03006  0.18120  0.00641  1.0000
  C   C46       1.0  0.46994  0.31880  0.50641  1.0000
  C   C47       1.0  0.96993  0.81879  0.99359  1.0000
  C   C48       1.0  0.53007  0.68121  0.49358  1.0000
  C   C49       1.0  0.17455  0.13627  0.05060  1.0000
  C   C50       1.0  0.32545  0.36373  0.55061  1.0000
  C   C51       1.0  0.82545  0.86372  0.94940  1.0000
  C   C52       1.0  0.67455  0.63628  0.44939  1.0000
  N   N1        1.0  0.14456  0.38612  0.72474  1.0000
  N   N2        1.0  0.35546  0.11388  0.22474  1.0000
  N   N3        1.0  0.85545  0.61388  0.27526  1.0000
  N   N4        1.0  0.64454  0.88612  0.77526  1.0000
  N   N5        1.0  0.91096  0.47585  0.88078  1.0000
  N   N6        1.0  0.58904  0.02416  0.38077  1.0000
  N   N7        1.0  0.08903  0.52414  0.11922  1.0000
  N   N8        1.0  0.41097  0.97585  0.61922  1.0000
  N   N9        1.0  0.07236  0.45233  0.92470  1.0000
  N   N10       1.0  0.42764  0.04767  0.42469  1.0000
  N   N11       1.0  0.92763  0.54766  0.07531  1.0000
  N   N12       1.0  0.57237  0.95233  0.57531  1.0000
  N   N13       1.0  0.39472  0.19428  0.07627  1.0000
  N   N14       1.0  0.10528  0.30571  0.57627  1.0000
  N   N15       1.0  0.60528  0.80571  0.92373  1.0000
  N   N16       1.0  0.89473  0.69430  0.42373  1.0000
  Cl  Cl1       1.0  0.85702  0.53507  0.61755  1.0000
  Cl  Cl2       1.0  0.64299  0.96492  0.11755  1.0000
  Cl  Cl3       1.0  0.14299  0.46493  0.38245  1.0000
  Cl  Cl4       1.0  0.35701  0.03507  0.88244  1.0000
  Cl  Cl5       1.0  0.58030  0.22450  0.67279  1.0000
  Cl  Cl6       1.0  0.91971  0.27550  0.17278  1.0000
  Cl  Cl7       1.0  0.41970  0.77551  0.32721  1.0000
  Cl  Cl8       1.0  0.08030  0.72450  0.82721  1.0000
