data_image0
_chemical_formula_structural       Hg8H24C32I16N8
_chemical_formula_sum              "Hg8 H24 C32 I16 N8"
_cell_length_a       4.34762
_cell_length_b       14.7653
_cell_length_c       24.923
_cell_angle_alpha    89.9987
_cell_angle_beta     89.9993
_cell_angle_gamma    92.6545

_space_group_name_H-M_alt    "P 1"
_space_group_IT_number       1

loop_
  _space_group_symop_operation_xyz
  'x, y, z'

loop_
  _atom_site_type_symbol
  _atom_site_label
  _atom_site_symmetry_multiplicity
  _atom_site_fract_x
  _atom_site_fract_y
  _atom_site_fract_z
  _atom_site_occupancy
  Hg  Hg1       1.0  0.06491  0.70505  0.24991  1.0000
  Hg  Hg2       1.0  0.93512  0.79495  0.74991  1.0000
  Hg  Hg3       1.0  0.93510  0.29495  0.75009  1.0000
  Hg  Hg4       1.0  0.06490  0.20506  0.25009  1.0000
  Hg  Hg5       1.0  0.22057  0.69897  0.58212  1.0000
  Hg  Hg6       1.0  0.77942  0.80103  0.08212  1.0000
  Hg  Hg7       1.0  0.77943  0.30104  0.41788  1.0000
  Hg  Hg8       1.0  0.22059  0.19897  0.91788  1.0000
  H   H1        1.0  0.51591  0.85030  0.50931  1.0000
  H   H2        1.0  0.48410  0.64969  0.00931  1.0000
  H   H3        1.0  0.48406  0.14971  0.49070  1.0000
  H   H4        1.0  0.51593  0.35030  0.99069  1.0000
  H   H5        1.0  0.26652  0.87745  0.31403  1.0000
  H   H6        1.0  0.73349  0.62254  0.81403  1.0000
  H   H7        1.0  0.73347  0.12255  0.68597  1.0000
  H   H8        1.0  0.26652  0.37746  0.18597  1.0000
  H   H9        1.0  0.59454  0.99646  0.35948  1.0000
  H   H10       1.0  0.40543  0.50353  0.85949  1.0000
  H   H11       1.0  0.40543  0.00354  0.64052  1.0000
  H   H12       1.0  0.59458  0.49646  0.14051  1.0000
  H   H13       1.0  0.72115  0.98278  0.45621  1.0000
  H   H14       1.0  0.27883  0.51722  0.95621  1.0000
  H   H15       1.0  0.27880  0.01723  0.54379  1.0000
  H   H16       1.0  0.72120  0.48278  0.04379  1.0000
  H   H17       1.0  0.80268  0.60371  0.36856  1.0000
  H   H18       1.0  0.19734  0.89628  0.86855  1.0000
  H   H19       1.0  0.19733  0.39628  0.63144  1.0000
  H   H20       1.0  0.80266  0.10372  0.13145  1.0000
  H   H21       1.0  0.89580  0.59540  0.46820  1.0000
  H   H22       1.0  0.10420  0.90460  0.96819  1.0000
  H   H23       1.0  0.10420  0.40461  0.53181  1.0000
  H   H24       1.0  0.89580  0.09540  0.03181  1.0000
  C   C1        1.0  0.46179  0.85684  0.46682  1.0000
  C   C2        1.0  0.53821  0.64315  0.96682  1.0000
  C   C3        1.0  0.53819  0.14317  0.53318  1.0000
  C   C4        1.0  0.46180  0.35685  0.03318  1.0000
  C   C5        1.0  0.27510  0.78806  0.44181  1.0000
  C   C6        1.0  0.72491  0.71193  0.94181  1.0000
  C   C7        1.0  0.72489  0.21194  0.55819  1.0000
  C   C8        1.0  0.27510  0.28807  0.05819  1.0000
  C   C9        1.0  0.20855  0.79511  0.38544  1.0000
  C   C10       1.0  0.79147  0.70488  0.88544  1.0000
  C   C11       1.0  0.79144  0.20489  0.61456  1.0000
  C   C12       1.0  0.20853  0.29512  0.11456  1.0000
  C   C13       1.0  0.32286  0.87188  0.35646  1.0000
  C   C14       1.0  0.67715  0.62811  0.85647  1.0000
  C   C15       1.0  0.67713  0.12812  0.64354  1.0000
  C   C16       1.0  0.32286  0.37189  0.14353  1.0000
  C   C17       1.0  0.50353  0.93782  0.38202  1.0000
  C   C18       1.0  0.49647  0.56218  0.88203  1.0000
  C   C19       1.0  0.49645  0.06218  0.61798  1.0000
  C   C20       1.0  0.50355  0.43782  0.11797  1.0000
  C   C21       1.0  0.57485  0.92997  0.43723  1.0000
  C   C22       1.0  0.42513  0.57001  0.93723  1.0000
  C   C23       1.0  0.42512  0.07003  0.56277  1.0000
  C   C24       1.0  0.57489  0.42998  0.06277  1.0000
  C   C25       1.0  0.93601  0.65799  0.38905  1.0000
  C   C26       1.0  0.06400  0.84200  0.88905  1.0000
  C   C27       1.0  0.06399  0.34201  0.61095  1.0000
  C   C28       1.0  0.93600  0.15800  0.11095  1.0000
  C   C29       1.0  0.99302  0.65256  0.44494  1.0000
  C   C30       1.0  0.00698  0.84743  0.94494  1.0000
  C   C31       1.0  0.00698  0.34744  0.55506  1.0000
  C   C32       1.0  0.99302  0.15257  0.05506  1.0000
  I   I1        1.0  0.92301  0.84952  0.60432  1.0000
  I   I2        1.0  0.07700  0.65048  0.10432  1.0000
  I   I3        1.0  0.07699  0.15048  0.39568  1.0000
  I   I4        1.0  0.92301  0.34952  0.89568  1.0000
  I   I5        1.0  0.46496  0.57228  0.26030  1.0000
  I   I6        1.0  0.53506  0.92772  0.76030  1.0000
  I   I7        1.0  0.53505  0.42772  0.73970  1.0000
  I   I8        1.0  0.46495  0.07228  0.23970  1.0000
  I   I9        1.0  0.61476  0.56303  0.57634  1.0000
  I   I10       1.0  0.38524  0.93697  0.07634  1.0000
  I   I11       1.0  0.38524  0.43697  0.42366  1.0000
  I   I12       1.0  0.61476  0.06303  0.92366  1.0000
  I   I13       1.0  0.76592  0.85071  0.21939  1.0000
  I   I14       1.0  0.23410  0.64930  0.71939  1.0000
  I   I15       1.0  0.23409  0.14930  0.78060  1.0000
  I   I16       1.0  0.76591  0.35070  0.28061  1.0000
  N   N1        1.0  0.16051  0.71554  0.47076  1.0000
  N   N2        1.0  0.83950  0.78445  0.97076  1.0000
  N   N3        1.0  0.83949  0.28446  0.52924  1.0000
  N   N4        1.0  0.16051  0.21555  0.02924  1.0000
  N   N5        1.0  0.04005  0.72766  0.35995  1.0000
  N   N6        1.0  0.95996  0.77233  0.85995  1.0000
  N   N7        1.0  0.95995  0.27234  0.64005  1.0000
  N   N8        1.0  0.04004  0.22767  0.14005  1.0000
