data_image0
_chemical_formula_structural       Mn2H28C40N4O10
_chemical_formula_sum              "Mn2 H28 C40 N4 O10"
_cell_length_a       7.66574
_cell_length_b       10.3359
_cell_length_c       10.3496
_cell_angle_alpha    85.8276
_cell_angle_beta     88.29
_cell_angle_gamma    88.5211

_space_group_name_H-M_alt    "P 1"
_space_group_IT_number       1

loop_
  _space_group_symop_operation_xyz
  'x, y, z'

loop_
  _atom_site_type_symbol
  _atom_site_label
  _atom_site_symmetry_multiplicity
  _atom_site_fract_x
  _atom_site_fract_y
  _atom_site_fract_z
  _atom_site_occupancy
  Mn  Mn1       1.0  0.50000  0.00000  0.00000  1.0000
  Mn  Mn2       1.0  0.00000  1.00000  1.00000  1.0000
  H   H1        1.0  0.75324  0.92447  0.18674  1.0000
  H   H2        1.0  0.74685  0.81459  0.07886  1.0000
  H   H3        1.0  0.24676  0.07554  0.81326  1.0000
  H   H4        1.0  0.25315  0.18541  0.92114  1.0000
  H   H5        1.0  0.11532  0.56769  0.13454  1.0000
  H   H6        1.0  0.38316  0.86396  0.42826  1.0000
  H   H7        1.0  0.88467  0.43231  0.86546  1.0000
  H   H8        1.0  0.61683  0.13604  0.57174  1.0000
  H   H9        1.0  0.11683  0.32928  0.10414  1.0000
  H   H10       1.0  0.38261  0.89104  0.66700  1.0000
  H   H11       1.0  0.88316  0.67073  0.89586  1.0000
  H   H12       1.0  0.61739  0.10896  0.33300  1.0000
  H   H13       1.0  0.44105  0.25769  0.74045  1.0000
  H   H14       1.0  0.06243  0.25509  0.74457  1.0000
  H   H15       1.0  0.55894  0.74231  0.25955  1.0000
  H   H16       1.0  0.93757  0.74492  0.25542  1.0000
  H   H17       1.0  0.60919  0.39191  0.57369  1.0000
  H   H18       1.0  0.89497  0.42332  0.61349  1.0000
  H   H19       1.0  0.39080  0.60809  0.42631  1.0000
  H   H20       1.0  0.10504  0.57668  0.38650  1.0000
  H   H21       1.0  0.63941  0.62890  0.59505  1.0000
  H   H22       1.0  0.86518  0.40579  0.37602  1.0000
  H   H23       1.0  0.36059  0.37110  0.40495  1.0000
  H   H24       1.0  0.13483  0.59421  0.62397  1.0000
  H   H25       1.0  0.49341  0.73332  0.77928  1.0000
  H   H26       1.0  0.01013  0.22302  0.26864  1.0000
  H   H27       1.0  0.50660  0.26668  0.22072  1.0000
  H   H28       1.0  0.98988  0.77698  0.73135  1.0000
  C   C1        1.0  0.27000  0.75621  0.98291  1.0000
  C   C2        1.0  0.23172  0.01971  0.24241  1.0000
  C   C3        1.0  0.73000  0.24379  0.01710  1.0000
  C   C4        1.0  0.76828  0.98029  0.75759  1.0000
  C   C5        1.0  0.27865  0.61212  0.96613  1.0000
  C   C6        1.0  0.22215  0.03377  0.38675  1.0000
  C   C7        1.0  0.72135  0.38788  0.03387  1.0000
  C   C8        1.0  0.77785  0.96623  0.61325  1.0000
  C   C9        1.0  0.18912  0.52921  0.05382  1.0000
  C   C10       1.0  0.31063  0.94448  0.46815  1.0000
  C   C11       1.0  0.81088  0.47079  0.94618  1.0000
  C   C12       1.0  0.68937  0.05552  0.53185  1.0000
  C   C13       1.0  0.18887  0.39538  0.03655  1.0000
  C   C14       1.0  0.31115  0.95983  0.60216  1.0000
  C   C15       1.0  0.81112  0.60462  0.96345  1.0000
  C   C16       1.0  0.68884  0.04017  0.39783  1.0000
  C   C17       1.0  0.36125  0.42065  0.84968  1.0000
  C   C18       1.0  0.14067  0.14752  0.57997  1.0000
  C   C19       1.0  0.63874  0.57935  0.15032  1.0000
  C   C20       1.0  0.85933  0.85248  0.42002  1.0000
  C   C21       1.0  0.44884  0.36236  0.74539  1.0000
  C   C22       1.0  0.05430  0.25126  0.63997  1.0000
  C   C23       1.0  0.55115  0.63763  0.25461  1.0000
  C   C24       1.0  0.94571  0.74874  0.36003  1.0000
  C   C25       1.0  0.54407  0.43704  0.65447  1.0000
  C   C26       1.0  0.95974  0.34335  0.56688  1.0000
  C   C27       1.0  0.45593  0.56296  0.34553  1.0000
  C   C28       1.0  0.04027  0.65665  0.43312  1.0000
  C   C29       1.0  0.55942  0.57175  0.66581  1.0000
  C   C30       1.0  0.94435  0.33401  0.43208  1.0000
  C   C31       1.0  0.44058  0.42824  0.33419  1.0000
  C   C32       1.0  0.05566  0.66599  0.56792  1.0000
  C   C33       1.0  0.47688  0.63078  0.76699  1.0000
  C   C34       1.0  0.02614  0.23361  0.37134  1.0000
  C   C35       1.0  0.52312  0.36922  0.23301  1.0000
  C   C36       1.0  0.97387  0.76639  0.62866  1.0000
  C   C37       1.0  0.37343  0.55783  0.86095  1.0000
  C   C38       1.0  0.12846  0.13832  0.44274  1.0000
  C   C39       1.0  0.62657  0.44217  0.13905  1.0000
  C   C40       1.0  0.87155  0.86168  0.55726  1.0000
  N   N1        1.0  0.26776  0.34272  0.93716  1.0000
  N   N2        1.0  0.23326  0.05866  0.65645  1.0000
  N   N3        1.0  0.73223  0.65728  0.06284  1.0000
  N   N4        1.0  0.76674  0.94134  0.34355  1.0000
  O   O1        1.0  0.12193  0.80372  0.01424  1.0000
  O   O2        1.0  0.38003  0.98835  0.19525  1.0000
  O   O3        1.0  0.87807  0.19628  0.98578  1.0000
  O   O4        1.0  0.61997  0.01165  0.80475  1.0000
  O   O5        1.0  0.41184  0.81632  0.96367  1.0000
  O   O6        1.0  0.09121  0.04129  0.18168  1.0000
  O   O7        1.0  0.58817  0.18368  0.03633  1.0000
  O   O8        1.0  0.90879  0.95871  0.81832  1.0000
  O   O9        1.0  0.75067  0.91297  0.08876  1.0000
  O   O10       1.0  0.24933  0.08703  0.91123  1.0000
