data_image0
_chemical_formula_structural       Co2H28C40N4O10
_chemical_formula_sum              "Co2 H28 C40 N4 O10"
_cell_length_a       7.44997
_cell_length_b       10.1831
_cell_length_c       10.1982
_cell_angle_alpha    87.7551
_cell_angle_beta     89.3316
_cell_angle_gamma    88.9383

_space_group_name_H-M_alt    "P 1"
_space_group_IT_number       1

loop_
  _space_group_symop_operation_xyz
  'x, y, z'

loop_
  _atom_site_type_symbol
  _atom_site_label
  _atom_site_symmetry_multiplicity
  _atom_site_fract_x
  _atom_site_fract_y
  _atom_site_fract_z
  _atom_site_occupancy
  Co  Co1       1.0  0.50000  1.00000  0.00000  1.0000
  Co  Co2       1.0  1.00000  0.00000  0.00000  1.0000
  H   H1        1.0  0.75245  0.92848  0.18248  1.0000
  H   H2        1.0  0.74432  0.81704  0.07174  1.0000
  H   H3        1.0  0.24755  0.07152  0.81752  1.0000
  H   H4        1.0  0.25568  0.18296  0.92826  1.0000
  H   H5        1.0  0.11883  0.58684  0.14124  1.0000
  H   H6        1.0  0.38121  0.85752  0.41417  1.0000
  H   H7        1.0  0.88118  0.41316  0.85876  1.0000
  H   H8        1.0  0.61876  0.14248  0.58583  1.0000
  H   H9        1.0  0.11960  0.34374  0.11433  1.0000
  H   H10       1.0  0.38253  0.88461  0.65687  1.0000
  H   H11       1.0  0.88040  0.65626  0.88568  1.0000
  H   H12       1.0  0.61745  0.11538  0.34313  1.0000
  H   H13       1.0  0.43591  0.25508  0.74437  1.0000
  H   H14       1.0  0.06424  0.25546  0.74522  1.0000
  H   H15       1.0  0.56408  0.74492  0.25563  1.0000
  H   H16       1.0  0.93576  0.74455  0.25478  1.0000
  H   H17       1.0  0.60596  0.38357  0.57373  1.0000
  H   H18       1.0  0.89314  0.42711  0.61661  1.0000
  H   H19       1.0  0.39404  0.61642  0.42627  1.0000
  H   H20       1.0  0.10686  0.57290  0.38339  1.0000
  H   H21       1.0  0.63933  0.62537  0.59191  1.0000
  H   H22       1.0  0.85943  0.40966  0.37502  1.0000
  H   H23       1.0  0.36068  0.37463  0.40810  1.0000
  H   H24       1.0  0.14057  0.59034  0.62498  1.0000
  H   H25       1.0  0.49359  0.73987  0.77593  1.0000
  H   H26       1.0  0.00550  0.22514  0.26069  1.0000
  H   H27       1.0  0.50642  0.26013  0.22407  1.0000
  H   H28       1.0  0.99450  0.77487  0.73931  1.0000
  C   C1        1.0  0.26927  0.77205  0.98155  1.0000
  C   C2        1.0  0.22945  0.01828  0.22922  1.0000
  C   C3        1.0  0.73073  0.22794  0.01845  1.0000
  C   C4        1.0  0.77054  0.98173  0.77078  1.0000
  C   C5        1.0  0.27806  0.62523  0.96764  1.0000
  C   C6        1.0  0.22106  0.03187  0.37580  1.0000
  C   C7        1.0  0.72194  0.37477  0.03236  1.0000
  C   C8        1.0  0.77894  0.96813  0.62420  1.0000
  C   C9        1.0  0.19001  0.54463  0.05874  1.0000
  C   C10       1.0  0.30996  0.94029  0.45633  1.0000
  C   C11       1.0  0.80999  0.45537  0.94125  1.0000
  C   C12       1.0  0.69002  0.05971  0.54367  1.0000
  C   C13       1.0  0.18947  0.40786  0.04338  1.0000
  C   C14       1.0  0.31154  0.95572  0.59286  1.0000
  C   C15       1.0  0.81053  0.59214  0.95662  1.0000
  C   C16       1.0  0.68845  0.04427  0.40714  1.0000
  C   C17       1.0  0.35839  0.42536  0.85264  1.0000
  C   C18       1.0  0.14155  0.14711  0.57526  1.0000
  C   C19       1.0  0.64161  0.57464  0.14736  1.0000
  C   C20       1.0  0.85844  0.85289  0.42474  1.0000
  C   C21       1.0  0.44508  0.36160  0.74765  1.0000
  C   C22       1.0  0.05461  0.25237  0.63880  1.0000
  C   C23       1.0  0.55493  0.63840  0.25235  1.0000
  C   C24       1.0  0.94539  0.74764  0.36120  1.0000
  C   C25       1.0  0.54103  0.43323  0.65454  1.0000
  C   C26       1.0  0.95814  0.34601  0.56712  1.0000
  C   C27       1.0  0.45897  0.56677  0.34547  1.0000
  C   C28       1.0  0.04186  0.65399  0.43288  1.0000
  C   C29       1.0  0.55813  0.57051  0.66404  1.0000
  C   C30       1.0  0.94086  0.33692  0.42989  1.0000
  C   C31       1.0  0.44188  0.42949  0.33596  1.0000
  C   C32       1.0  0.05914  0.66308  0.57011  1.0000
  C   C33       1.0  0.47567  0.63509  0.76540  1.0000
  C   C34       1.0  0.02347  0.23530  0.36548  1.0000
  C   C35       1.0  0.52433  0.36490  0.23460  1.0000
  C   C36       1.0  0.97653  0.76471  0.63452  1.0000
  C   C37       1.0  0.37161  0.56527  0.86161  1.0000
  C   C38       1.0  0.12775  0.13838  0.43550  1.0000
  C   C39       1.0  0.62840  0.43473  0.13839  1.0000
  C   C40       1.0  0.87225  0.86162  0.56449  1.0000
  N   N1        1.0  0.26585  0.34957  0.94288  1.0000
  N   N2        1.0  0.23500  0.05651  0.65103  1.0000
  N   N3        1.0  0.73415  0.65042  0.05713  1.0000
  N   N4        1.0  0.76499  0.94349  0.34897  1.0000
  O   O1        1.0  0.11405  0.82052  0.00462  1.0000
  O   O2        1.0  0.38441  0.99593  0.18107  1.0000
  O   O3        1.0  0.88595  0.17948  0.99538  1.0000
  O   O4        1.0  0.61559  0.00407  0.81893  1.0000
  O   O5        1.0  0.42008  0.82866  0.96845  1.0000
  O   O6        1.0  0.07813  0.03109  0.17219  1.0000
  O   O7        1.0  0.57993  0.17133  0.03155  1.0000
  O   O8        1.0  0.92187  0.96891  0.82781  1.0000
  O   O9        1.0  0.74778  0.91594  0.08381  1.0000
  O   O10       1.0  0.25222  0.08406  0.91619  1.0000
