data_image0
_chemical_formula_structural       Cu2H24C40N4O8
_chemical_formula_sum              "Cu2 H24 C40 N4 O8"
_cell_length_a       8.74608
_cell_length_b       8.74265
_cell_length_c       12.8713
_cell_angle_alpha    101.098
_cell_angle_beta     108.166
_cell_angle_gamma    104.924

_space_group_name_H-M_alt    "P 1"
_space_group_IT_number       1

loop_
  _space_group_symop_operation_xyz
  'x, y, z'

loop_
  _atom_site_type_symbol
  _atom_site_label
  _atom_site_symmetry_multiplicity
  _atom_site_fract_x
  _atom_site_fract_y
  _atom_site_fract_z
  _atom_site_occupancy
  Cu  Cu1       1.0  0.42048  0.17067  0.24998  1.0000
  Cu  Cu2       1.0  0.57952  0.82933  0.75002  1.0000
  H   H1        1.0  0.56788  0.78837  0.36168  1.0000
  H   H2        1.0  0.92589  0.20563  0.13794  1.0000
  H   H3        1.0  0.43213  0.21163  0.63833  1.0000
  H   H4        1.0  0.07411  0.79437  0.86206  1.0000
  H   H5        1.0  0.58876  0.51709  0.38389  1.0000
  H   H6        1.0  0.63268  0.20459  0.11598  1.0000
  H   H7        1.0  0.41124  0.48291  0.61612  1.0000
  H   H8        1.0  0.36731  0.79540  0.88402  1.0000
  H   H9        1.0  0.25492  0.12014  0.03621  1.0000
  H   H10       1.0  0.58387  0.21829  0.46377  1.0000
  H   H11       1.0  0.74508  0.87986  0.96379  1.0000
  H   H12       1.0  0.41613  0.78170  0.53623  1.0000
  H   H13       1.0  0.04884  0.11340  0.85126  1.0000
  H   H14       1.0  0.76248  0.19800  0.64887  1.0000
  H   H15       1.0  0.95116  0.88661  0.14875  1.0000
  H   H16       1.0  0.23752  0.80199  0.35113  1.0000
  H   H17       1.0  0.01103  0.37689  0.81783  1.0000
  H   H18       1.0  0.05915  0.19338  0.68214  1.0000
  H   H19       1.0  0.98898  0.62312  0.18217  1.0000
  H   H20       1.0  0.94086  0.80661  0.31786  1.0000
  H   H21       1.0  0.17855  0.64441  0.96955  1.0000
  H   H22       1.0  0.17436  0.20830  0.53010  1.0000
  H   H23       1.0  0.82145  0.35560  0.03045  1.0000
  H   H24       1.0  0.82565  0.79170  0.46989  1.0000
  C   C1        1.0  0.38937  0.85232  0.17388  1.0000
  C   C2        1.0  0.17794  0.21548  0.32582  1.0000
  C   C3        1.0  0.61063  0.14768  0.82613  1.0000
  C   C4        1.0  0.82206  0.78452  0.67418  1.0000
  C   C5        1.0  0.40012  0.68586  0.18395  1.0000
  C   C6        1.0  0.00140  0.21589  0.31575  1.0000
  C   C7        1.0  0.59989  0.31414  0.81606  1.0000
  C   C8        1.0  0.99860  0.78411  0.68425  1.0000
  C   C9        1.0  0.50085  0.67750  0.28830  1.0000
  C   C10       1.0  0.88858  0.21217  0.21140  1.0000
  C   C11       1.0  0.49915  0.32251  0.71171  1.0000
  C   C12       1.0  0.11142  0.78783  0.78860  1.0000
  C   C13       1.0  0.51304  0.52474  0.30097  1.0000
  C   C14       1.0  0.72329  0.21181  0.19885  1.0000
  C   C15       1.0  0.48696  0.47526  0.69903  1.0000
  C   C16       1.0  0.27671  0.78818  0.80114  1.0000
  C   C17       1.0  0.32778  0.38551  0.11021  1.0000
  C   C18       1.0  0.77506  0.21736  0.38967  1.0000
  C   C19       1.0  0.67222  0.61449  0.88980  1.0000
  C   C20       1.0  0.22493  0.78263  0.61033  1.0000
  C   C21       1.0  0.23675  0.23416  0.02106  1.0000
  C   C22       1.0  0.71308  0.21558  0.47892  1.0000
  C   C23       1.0  0.76325  0.76584  0.97894  1.0000
  C   C24       1.0  0.28692  0.78442  0.52108  1.0000
  C   C25       1.0  0.12446  0.23156  0.91749  1.0000
  C   C26       1.0  0.81426  0.20723  0.58255  1.0000
  C   C27       1.0  0.87553  0.76844  0.08251  1.0000
  C   C28       1.0  0.18575  0.79276  0.41744  1.0000
  C   C29       1.0  0.10230  0.38008  0.89902  1.0000
  C   C30       1.0  0.98114  0.20348  0.60097  1.0000
  C   C31       1.0  0.89770  0.61993  0.10098  1.0000
  C   C32       1.0  0.01886  0.79652  0.39903  1.0000
  C   C33       1.0  0.19391  0.52954  0.98297  1.0000
  C   C34       1.0  0.04626  0.21059  0.51679  1.0000
  C   C35       1.0  0.80609  0.47046  0.01703  1.0000
  C   C36       1.0  0.95374  0.78941  0.48320  1.0000
  C   C37       1.0  0.30896  0.53714  0.09102  1.0000
  C   C38       1.0  0.94578  0.21767  0.40877  1.0000
  C   C39       1.0  0.69104  0.46286  0.90899  1.0000
  C   C40       1.0  0.05422  0.78233  0.59122  1.0000
  N   N1        1.0  0.42977  0.38448  0.21537  1.0000
  N   N2        1.0  0.66886  0.21433  0.28457  1.0000
  N   N3        1.0  0.57023  0.61552  0.78464  1.0000
  N   N4        1.0  0.33114  0.78566  0.71543  1.0000
  O   O1        1.0  0.39937  0.94821  0.26783  1.0000
  O   O2        1.0  0.18008  0.13170  0.23189  1.0000
  O   O3        1.0  0.60063  0.05179  0.73217  1.0000
  O   O4        1.0  0.81991  0.86829  0.76811  1.0000
  O   O5        1.0  0.37663  0.89098  0.08372  1.0000
  O   O6        1.0  0.30660  0.29286  0.41603  1.0000
  O   O7        1.0  0.62336  0.10902  0.91629  1.0000
  O   O8        1.0  0.69340  0.70714  0.58396  1.0000
