data_image0
_chemical_formula_structural       Fe2H32C28S4N28
_chemical_formula_sum              "Fe2 H32 C28 S4 N28"
_cell_length_a       8.7914
_cell_length_b       9.13672
_cell_length_c       12.3755
_cell_angle_alpha    90.4143
_cell_angle_beta     89.994
_cell_angle_gamma    89.9895

_space_group_name_H-M_alt    "P 1"
_space_group_IT_number       1

loop_
  _space_group_symop_operation_xyz
  'x, y, z'

loop_
  _atom_site_type_symbol
  _atom_site_label
  _atom_site_symmetry_multiplicity
  _atom_site_fract_x
  _atom_site_fract_y
  _atom_site_fract_z
  _atom_site_occupancy
  Fe  Fe1       1.0  0.49491  0.48208  0.50634  1.0000
  Fe  Fe2       1.0  0.00508  0.98188  0.00638  1.0000
  H   H1        1.0  0.03433  0.29104  0.57233  1.0000
  H   H2        1.0  0.52047  0.21570  0.92367  1.0000
  H   H3        1.0  0.97931  0.71562  0.42367  1.0000
  H   H4        1.0  0.46550  0.79126  0.07249  1.0000
  H   H5        1.0  0.75131  0.65187  0.64544  1.0000
  H   H6        1.0  0.26604  0.83343  0.85707  1.0000
  H   H7        1.0  0.23423  0.33355  0.35712  1.0000
  H   H8        1.0  0.74887  0.15178  0.14548  1.0000
  H   H9        1.0  0.19630  0.05721  0.65875  1.0000
  H   H10       1.0  0.69154  0.45480  0.84015  1.0000
  H   H11       1.0  0.80837  0.95506  0.34039  1.0000
  H   H12       1.0  0.30376  0.55727  0.15884  1.0000
  H   H13       1.0  0.64851  0.16834  0.57107  1.0000
  H   H14       1.0  0.14266  0.33541  0.92343  1.0000
  H   H15       1.0  0.35717  0.83567  0.42340  1.0000
  H   H16       1.0  0.85153  0.66824  0.07094  1.0000
  H   H17       1.0  0.14562  0.47512  0.69843  1.0000
  H   H18       1.0  0.64464  0.03393  0.79821  1.0000
  H   H19       1.0  0.85549  0.53403  0.29816  1.0000
  H   H20       1.0  0.35437  0.97542  0.19849  1.0000
  H   H21       1.0  0.08651  0.65615  0.66828  1.0000
  H   H22       1.0  0.59202  0.85060  0.82650  1.0000
  H   H23       1.0  0.90803  0.35067  0.32649  1.0000
  H   H24       1.0  0.41354  0.15639  0.16831  1.0000
  H   H25       1.0  0.90323  0.65726  0.82174  1.0000
  H   H26       1.0  0.40650  0.84888  0.67260  1.0000
  H   H27       1.0  0.09377  0.34889  0.17265  1.0000
  H   H28       1.0  0.59671  0.15748  0.32182  1.0000
  H   H29       1.0  0.08976  0.61414  0.86519  1.0000
  H   H30       1.0  0.59404  0.89240  0.63075  1.0000
  H   H31       1.0  0.90621  0.39229  0.13075  1.0000
  H   H32       1.0  0.41013  0.11447  0.36524  1.0000
  C   C1        1.0  0.56315  0.42861  0.26637  1.0000
  C   C2        1.0  0.06904  0.05984  0.24325  1.0000
  C   C3        1.0  0.43086  0.55981  0.74318  1.0000
  C   C4        1.0  0.93699  0.92841  0.76640  1.0000
  C   C5        1.0  0.93404  0.36031  0.57613  1.0000
  C   C6        1.0  0.42634  0.13868  0.92210  1.0000
  C   C7        1.0  0.07356  0.63871  0.42209  1.0000
  C   C8        1.0  0.56586  0.86040  0.07626  1.0000
  C   C9        1.0  0.78938  0.54676  0.61488  1.0000
  C   C10       1.0  0.29627  0.94131  0.88696  1.0000
  C   C11       1.0  0.20385  0.44142  0.38696  1.0000
  C   C12       1.0  0.71068  0.04671  0.11495  1.0000
  C   C13       1.0  0.04908  0.55099  0.70148  1.0000
  C   C14       1.0  0.55073  0.95510  0.79433  1.0000
  C   C15       1.0  0.94938  0.45513  0.29431  1.0000
  C   C16       1.0  0.45091  0.05123  0.20155  1.0000
  C   C17       1.0  0.78882  0.39169  0.86782  1.0000
  C   C18       1.0  0.29460  0.11899  0.63101  1.0000
  C   C19       1.0  0.20543  0.61899  0.13104  1.0000
  C   C20       1.0  0.71107  0.89194  0.36800  1.0000
  C   C21       1.0  0.52649  0.17399  0.58472  1.0000
  C   C22       1.0  0.02019  0.33211  0.91160  1.0000
  C   C23       1.0  0.47966  0.83235  0.41164  1.0000
  C   C24       1.0  0.97355  0.67388  0.08463  1.0000
  C   C25       1.0  0.99322  0.57459  0.81706  1.0000
  C   C26       1.0  0.49658  0.93161  0.67816  1.0000
  C   C27       1.0  0.00361  0.43157  0.17817  1.0000
  C   C28       1.0  0.50670  0.07485  0.31714  1.0000
  S   S1        1.0  0.59149  0.42972  0.13626  1.0000
  S   S2        1.0  0.09699  0.06991  0.37315  1.0000
  S   S3        1.0  0.40287  0.56959  0.87310  1.0000
  S   S4        1.0  0.90870  0.92974  0.63631  1.0000
  N   N1        1.0  0.54141  0.42606  0.36100  1.0000
  N   N2        1.0  0.04716  0.05301  0.14865  1.0000
  N   N3        1.0  0.45277  0.55316  0.64859  1.0000
  N   N4        1.0  0.95866  0.92581  0.86105  1.0000
  N   N5        1.0  0.71165  0.45567  0.55180  1.0000
  N   N6        1.0  0.21625  0.02403  0.95460  1.0000
  N   N7        1.0  0.28378  0.52421  0.45459  1.0000
  N   N8        1.0  0.78831  0.95552  0.05187  1.0000
  N   N9        1.0  0.80358  0.33790  0.52595  1.0000
  N   N10       1.0  0.29829  0.14939  0.97743  1.0000
  N   N11       1.0  0.20160  0.64953  0.47741  1.0000
  N   N12       1.0  0.69631  0.83783  0.02605  1.0000
  N   N13       1.0  0.93036  0.48988  0.63219  1.0000
  N   N14       1.0  0.42994  0.00998  0.86472  1.0000
  N   N15       1.0  0.07010  0.51000  0.36471  1.0000
  N   N16       1.0  0.56966  0.98998  0.13229  1.0000
  N   N17       1.0  0.92880  0.22474  0.94084  1.0000
  N   N18       1.0  0.43670  0.28594  0.55949  1.0000
  N   N19       1.0  0.06329  0.78586  0.05946  1.0000
  N   N20       1.0  0.57104  0.72495  0.44091  1.0000
  N   N21       1.0  0.78219  0.26116  0.91283  1.0000
  N   N22       1.0  0.28936  0.25124  0.58914  1.0000
  N   N23       1.0  0.21062  0.75123  0.08917  1.0000
  N   N24       1.0  0.71768  0.76139  0.41299  1.0000
  N   N25       1.0  0.93606  0.44046  0.86542  1.0000
  N   N26       1.0  0.44033  0.06657  0.62988  1.0000
  N   N27       1.0  0.05976  0.56651  0.12984  1.0000
  N   N28       1.0  0.56382  0.94072  0.36553  1.0000
