data_image0
_chemical_formula_structural       Hg4H36C44N12Cl8
_chemical_formula_sum              "Hg4 H36 C44 N12 Cl8"
_cell_length_a       7.50718
_cell_length_b       12.626
_cell_length_c       13.1057
_cell_angle_alpha    90
_cell_angle_beta     90
_cell_angle_gamma    96.0671

_space_group_name_H-M_alt    "P 1"
_space_group_IT_number       1

loop_
  _space_group_symop_operation_xyz
  'x, y, z'

loop_
  _atom_site_type_symbol
  _atom_site_label
  _atom_site_symmetry_multiplicity
  _atom_site_fract_x
  _atom_site_fract_y
  _atom_site_fract_z
  _atom_site_occupancy
  Hg  Hg1       1.0  0.74256  0.74976  0.84972  1.0000
  Hg  Hg2       1.0  0.75744  0.75024  0.34973  1.0000
  Hg  Hg3       1.0  0.25744  0.25024  0.15028  1.0000
  Hg  Hg4       1.0  0.24256  0.24976  0.65028  1.0000
  H   H1        1.0  0.61972  0.65289  0.08265  1.0000
  H   H2        1.0  0.88028  0.84711  0.58265  1.0000
  H   H3        1.0  0.38028  0.34711  0.91735  1.0000
  H   H4        1.0  0.11972  0.15289  0.41735  1.0000
  H   H5        1.0  0.61569  0.48963  0.18736  1.0000
  H   H6        1.0  0.88431  0.01036  0.68736  1.0000
  H   H7        1.0  0.38431  0.51036  0.81264  1.0000
  H   H8        1.0  0.11569  0.98964  0.31264  1.0000
  H   H9        1.0  0.74821  0.33060  0.11486  1.0000
  H   H10       1.0  0.75179  0.16940  0.61486  1.0000
  H   H11       1.0  0.25179  0.66940  0.88514  1.0000
  H   H12       1.0  0.24821  0.83060  0.38514  1.0000
  H   H13       1.0  0.86422  0.34186  0.93282  1.0000
  H   H14       1.0  0.63578  0.15814  0.43282  1.0000
  H   H15       1.0  0.13578  0.65814  0.06718  1.0000
  H   H16       1.0  0.36422  0.84186  0.56718  1.0000
  H   H17       1.0  0.92521  0.43862  0.78098  1.0000
  H   H18       1.0  0.57479  0.06138  0.28098  1.0000
  H   H19       1.0  0.07479  0.56138  0.21902  1.0000
  H   H20       1.0  0.42520  0.93861  0.71902  1.0000
  H   H21       1.0  0.19192  0.54194  0.69755  1.0000
  H   H22       1.0  0.30809  0.95806  0.19755  1.0000
  H   H23       1.0  0.80808  0.45806  0.30245  1.0000
  H   H24       1.0  0.69191  0.04194  0.80245  1.0000
  H   H25       1.0  0.31912  0.57590  0.52227  1.0000
  H   H26       1.0  0.18088  0.92411  0.02228  1.0000
  H   H27       1.0  0.68088  0.42411  0.47772  1.0000
  H   H28       1.0  0.81911  0.07589  0.97772  1.0000
  H   H29       1.0  0.13630  0.66010  0.39181  1.0000
  H   H30       1.0  0.36369  0.83990  0.89181  1.0000
  H   H31       1.0  0.86370  0.33990  0.60819  1.0000
  H   H32       1.0  0.63630  0.16010  0.10819  1.0000
  H   H33       1.0  0.71277  0.67137  0.59543  1.0000
  H   H34       1.0  0.78723  0.82863  0.09543  1.0000
  H   H35       1.0  0.28723  0.32863  0.40457  1.0000
  H   H36       1.0  0.21277  0.17137  0.90457  1.0000
  C   C1        1.0  0.67470  0.58298  0.05217  1.0000
  C   C2        1.0  0.82530  0.91702  0.55217  1.0000
  C   C3        1.0  0.32530  0.41702  0.94783  1.0000
  C   C4        1.0  0.17470  0.08298  0.44783  1.0000
  C   C5        1.0  0.67384  0.49069  0.11105  1.0000
  C   C6        1.0  0.82616  0.00931  0.61105  1.0000
  C   C7        1.0  0.32616  0.50931  0.88895  1.0000
  C   C8        1.0  0.17384  0.99069  0.38895  1.0000
  C   C9        1.0  0.74474  0.40268  0.06958  1.0000
  C   C10       1.0  0.75526  0.09732  0.56958  1.0000
  C   C11       1.0  0.25526  0.59732  0.93042  1.0000
  C   C12       1.0  0.24474  0.90268  0.43042  1.0000
  C   C13       1.0  0.80913  0.40875  0.96975  1.0000
  C   C14       1.0  0.69087  0.09125  0.46975  1.0000
  C   C15       1.0  0.19087  0.59125  0.03025  1.0000
  C   C16       1.0  0.30913  0.90875  0.53025  1.0000
  C   C17       1.0  0.80388  0.50385  0.91535  1.0000
  C   C18       1.0  0.69612  0.99615  0.41535  1.0000
  C   C19       1.0  0.19612  0.49615  0.08465  1.0000
  C   C20       1.0  0.30388  0.00385  0.58465  1.0000
  C   C21       1.0  0.87186  0.51066  0.81049  1.0000
  C   C22       1.0  0.62814  0.98934  0.31048  1.0000
  C   C23       1.0  0.12814  0.48934  0.18952  1.0000
  C   C24       1.0  0.37186  0.01066  0.68951  1.0000
  C   C25       1.0  0.94266  0.60508  0.65967  1.0000
  C   C26       1.0  0.55734  0.89492  0.15967  1.0000
  C   C27       1.0  0.05734  0.39492  0.34033  1.0000
  C   C28       1.0  0.44266  0.10508  0.84033  1.0000
  C   C29       1.0  0.11441  0.57668  0.63850  1.0000
  C   C30       1.0  0.38559  0.92333  0.13850  1.0000
  C   C31       1.0  0.88559  0.42333  0.36150  1.0000
  C   C32       1.0  0.61441  0.07668  0.86150  1.0000
  C   C33       1.0  0.18570  0.59592  0.54160  1.0000
  C   C34       1.0  0.31431  0.90408  0.04160  1.0000
  C   C35       1.0  0.81431  0.40408  0.45840  1.0000
  C   C36       1.0  0.68569  0.09592  0.95840  1.0000
  C   C37       1.0  0.08441  0.64240  0.46843  1.0000
  C   C38       1.0  0.41559  0.85760  0.96843  1.0000
  C   C39       1.0  0.91559  0.35760  0.53157  1.0000
  C   C40       1.0  0.58441  0.14240  0.03157  1.0000
  C   C41       1.0  0.84822  0.65059  0.58131  1.0000
  C   C42       1.0  0.65178  0.84941  0.08131  1.0000
  C   C43       1.0  0.15179  0.34941  0.41869  1.0000
  C   C44       1.0  0.34822  0.15059  0.91869  1.0000
  N   N1        1.0  0.73953  0.58998  0.95714  1.0000
  N   N2        1.0  0.76048  0.91002  0.45714  1.0000
  N   N3        1.0  0.26047  0.41002  0.04286  1.0000
  N   N4        1.0  0.23952  0.08998  0.54286  1.0000
  N   N5        1.0  0.86607  0.59529  0.75688  1.0000
  N   N6        1.0  0.63393  0.90471  0.25688  1.0000
  N   N7        1.0  0.13393  0.40471  0.24312  1.0000
  N   N8        1.0  0.36606  0.09529  0.74312  1.0000
  N   N9        1.0  0.91881  0.66873  0.48834  1.0000
  N   N10       1.0  0.58119  0.83127  0.98834  1.0000
  N   N11       1.0  0.08119  0.33127  0.51166  1.0000
  N   N12       1.0  0.41881  0.16873  0.01166  1.0000
  Cl  Cl1       1.0  0.00414  0.88490  0.83195  1.0000
  Cl  Cl2       1.0  0.49586  0.61510  0.33194  1.0000
  Cl  Cl3       1.0  0.99586  0.11510  0.16806  1.0000
  Cl  Cl4       1.0  0.50414  0.38490  0.66806  1.0000
  Cl  Cl5       1.0  0.48451  0.74363  0.72512  1.0000
  Cl  Cl6       1.0  0.01549  0.75637  0.22512  1.0000
  Cl  Cl7       1.0  0.51549  0.25637  0.27487  1.0000
  Cl  Cl8       1.0  0.98451  0.24363  0.77487  1.0000
