data_image0
_chemical_formula_structural       Cs4H28C28N8O32
_chemical_formula_sum              "Cs4 H28 C28 N8 O32"
_cell_length_a       4.61128
_cell_length_b       15.042
_cell_length_c       17.3727
_cell_angle_alpha    106.718
_cell_angle_beta     90.0002
_cell_angle_gamma    89.9998

_space_group_name_H-M_alt    "P 1"
_space_group_IT_number       1

loop_
  _space_group_symop_operation_xyz
  'x, y, z'

loop_
  _atom_site_type_symbol
  _atom_site_label
  _atom_site_symmetry_multiplicity
  _atom_site_fract_x
  _atom_site_fract_y
  _atom_site_fract_z
  _atom_site_occupancy
  Cs  Cs1       1.0  0.87608  0.36842  0.54171  1.0000
  Cs  Cs2       1.0  0.37608  0.13158  0.95829  1.0000
  Cs  Cs3       1.0  0.12392  0.63158  0.45829  1.0000
  Cs  Cs4       1.0  0.62392  0.86842  0.04170  1.0000
  H   H1        1.0  0.54262  0.37411  0.74568  1.0000
  H   H2        1.0  0.04263  0.12588  0.75432  1.0000
  H   H3        1.0  0.45738  0.62589  0.25432  1.0000
  H   H4        1.0  0.95738  0.87411  0.24568  1.0000
  H   H5        1.0  0.19162  0.44902  0.93298  1.0000
  H   H6        1.0  0.69161  0.05098  0.56702  1.0000
  H   H7        1.0  0.80838  0.55098  0.06702  1.0000
  H   H8        1.0  0.30839  0.94902  0.43298  1.0000
  H   H9        1.0  0.80547  0.66017  0.84210  1.0000
  H   H10       1.0  0.30547  0.83983  0.65790  1.0000
  H   H11       1.0  0.19453  0.33983  0.15790  1.0000
  H   H12       1.0  0.69453  0.16017  0.34210  1.0000
  H   H13       1.0  0.24840  0.37369  0.39882  1.0000
  H   H14       1.0  0.74840  0.12631  0.10118  1.0000
  H   H15       1.0  0.75160  0.62631  0.60118  1.0000
  H   H16       1.0  0.25160  0.87369  0.89882  1.0000
  H   H17       1.0  0.49065  0.45049  0.41165  1.0000
  H   H18       1.0  0.99065  0.04951  0.08835  1.0000
  H   H19       1.0  0.50934  0.54951  0.58835  1.0000
  H   H20       1.0  0.00934  0.95049  0.91165  1.0000
  H   H21       1.0  0.85734  0.32933  0.31477  1.0000
  H   H22       1.0  0.35734  0.17067  0.18523  1.0000
  H   H23       1.0  0.14267  0.67067  0.68523  1.0000
  H   H24       1.0  0.64266  0.82933  0.81477  1.0000
  H   H25       1.0  0.04417  0.23995  0.31262  1.0000
  H   H26       1.0  0.54417  0.26005  0.18738  1.0000
  H   H27       1.0  0.95583  0.76005  0.68738  1.0000
  H   H28       1.0  0.45583  0.73995  0.81262  1.0000
  C   C1        1.0  0.44998  0.54647  0.72803  1.0000
  C   C2        1.0  0.94998  0.95353  0.77197  1.0000
  C   C3        1.0  0.55002  0.45353  0.27197  1.0000
  C   C4        1.0  0.05003  0.04647  0.22803  1.0000
  C   C5        1.0  0.65349  0.51972  0.78665  1.0000
  C   C6        1.0  0.15349  0.98028  0.71335  1.0000
  C   C7        1.0  0.34650  0.48028  0.21335  1.0000
  C   C8        1.0  0.84651  0.01972  0.28665  1.0000
  C   C9        1.0  0.67353  0.42699  0.78714  1.0000
  C   C10       1.0  0.17353  0.07301  0.71286  1.0000
  C   C11       1.0  0.32647  0.57301  0.21286  1.0000
  C   C12       1.0  0.82647  0.92699  0.28714  1.0000
  C   C13       1.0  0.86273  0.40361  0.84082  1.0000
  C   C14       1.0  0.36273  0.09639  0.65918  1.0000
  C   C15       1.0  0.13727  0.59639  0.15918  1.0000
  C   C16       1.0  0.63727  0.90361  0.34082  1.0000
  C   C17       1.0  0.04046  0.46866  0.89277  1.0000
  C   C18       1.0  0.54046  0.03133  0.60723  1.0000
  C   C19       1.0  0.95954  0.53134  0.10723  1.0000
  C   C20       1.0  0.45954  0.96867  0.39277  1.0000
  C   C21       1.0  0.01232  0.56020  0.89151  1.0000
  C   C22       1.0  0.51232  0.93980  0.60849  1.0000
  C   C23       1.0  0.98767  0.43980  0.10849  1.0000
  C   C24       1.0  0.48768  0.06020  0.39151  1.0000
  C   C25       1.0  0.82135  0.58733  0.84023  1.0000
  C   C26       1.0  0.32134  0.91267  0.65977  1.0000
  C   C27       1.0  0.17865  0.41267  0.15977  1.0000
  C   C28       1.0  0.67866  0.08733  0.34023  1.0000
  N   N1        1.0  0.87785  0.30720  0.84391  1.0000
  N   N2        1.0  0.37785  0.19280  0.65610  1.0000
  N   N3        1.0  0.12215  0.69280  0.15609  1.0000
  N   N4        1.0  0.62216  0.80720  0.34390  1.0000
  N   N5        1.0  0.18926  0.63095  0.94743  1.0000
  N   N6        1.0  0.68925  0.86905  0.55257  1.0000
  N   N7        1.0  0.81074  0.36905  0.05257  1.0000
  N   N8        1.0  0.31075  0.13095  0.44743  1.0000
  O   O1        1.0  0.35958  0.62990  0.74841  1.0000
  O   O2        1.0  0.85957  0.87009  0.75159  1.0000
  O   O3        1.0  0.64042  0.37010  0.25159  1.0000
  O   O4        1.0  0.14043  0.12990  0.24841  1.0000
  O   O5        1.0  0.38899  0.48416  0.66383  1.0000
  O   O6        1.0  0.88899  0.01584  0.83617  1.0000
  O   O7        1.0  0.61101  0.51584  0.33617  1.0000
  O   O8        1.0  0.11101  0.98416  0.16383  1.0000
  O   O9        1.0  0.35969  0.42038  0.44111  1.0000
  O   O10       1.0  0.85969  0.07962  0.05889  1.0000
  O   O11       1.0  0.64031  0.57962  0.55889  1.0000
  O   O12       1.0  0.14031  0.92038  0.94111  1.0000
  O   O13       1.0  0.68920  0.25222  0.80793  1.0000
  O   O14       1.0  0.18920  0.24778  0.69207  1.0000
  O   O15       1.0  0.31080  0.74778  0.19207  1.0000
  O   O16       1.0  0.81080  0.75222  0.30793  1.0000
  O   O17       1.0  0.98057  0.30062  0.34837  1.0000
  O   O18       1.0  0.48057  0.19938  0.15163  1.0000
  O   O19       1.0  0.01943  0.69938  0.65163  1.0000
  O   O20       1.0  0.51943  0.80062  0.84837  1.0000
  O   O21       1.0  0.07966  0.28641  0.88282  1.0000
  O   O22       1.0  0.57966  0.21359  0.61718  1.0000
  O   O23       1.0  0.92034  0.71360  0.11718  1.0000
  O   O24       1.0  0.42035  0.78641  0.38282  1.0000
  O   O25       1.0  0.13637  0.71349  0.95368  1.0000
  O   O26       1.0  0.63637  0.78651  0.54632  1.0000
  O   O27       1.0  0.86363  0.28651  0.04632  1.0000
  O   O28       1.0  0.36363  0.21349  0.45368  1.0000
  O   O29       1.0  0.38199  0.60451  0.98598  1.0000
  O   O30       1.0  0.88199  0.89549  0.51402  1.0000
  O   O31       1.0  0.61801  0.39549  0.01402  1.0000
  O   O32       1.0  0.11802  0.10451  0.48598  1.0000
