data_image0
_chemical_formula_structural       Cd2H56C56N8O8
_chemical_formula_sum              "Cd2 H56 C56 N8 O8"
_cell_length_a       9.0219
_cell_length_b       11.3849
_cell_length_c       15.1189
_cell_angle_alpha    110.025
_cell_angle_beta     90
_cell_angle_gamma    113.342

_space_group_name_H-M_alt    "P 1"
_space_group_IT_number       1

loop_
  _space_group_symop_operation_xyz
  'x, y, z'

loop_
  _atom_site_type_symbol
  _atom_site_label
  _atom_site_symmetry_multiplicity
  _atom_site_fract_x
  _atom_site_fract_y
  _atom_site_fract_z
  _atom_site_occupancy
  Cd  Cd1       1.0  0.27669  0.99997  0.74995  1.0000
  Cd  Cd2       1.0  0.72331  0.00003  0.25005  1.0000
  H   H1        1.0  0.03044  0.09836  0.51759  1.0000
  H   H2        1.0  0.93212  0.90154  0.98236  1.0000
  H   H3        1.0  0.96956  0.90164  0.48241  1.0000
  H   H4        1.0  0.06788  0.09846  0.01763  1.0000
  H   H5        1.0  0.95275  0.24042  0.45411  1.0000
  H   H6        1.0  0.71248  0.75946  0.04587  1.0000
  H   H7        1.0  0.04725  0.75958  0.54589  1.0000
  H   H8        1.0  0.28751  0.24054  0.95413  1.0000
  H   H9        1.0  0.15409  0.58154  0.72448  1.0000
  H   H10       1.0  0.57243  0.41843  0.77538  1.0000
  H   H11       1.0  0.84591  0.41846  0.27552  1.0000
  H   H12       1.0  0.42757  0.58157  0.22462  1.0000
  H   H13       1.0  0.23136  0.43479  0.78881  1.0000
  H   H14       1.0  0.79657  0.56517  0.71112  1.0000
  H   H15       1.0  0.76864  0.56521  0.21119  1.0000
  H   H16       1.0  0.20343  0.43483  0.28888  1.0000
  H   H17       1.0  0.03646  0.61409  0.59990  1.0000
  H   H18       1.0  0.42220  0.38591  0.90011  1.0000
  H   H19       1.0  0.96353  0.38591  0.40010  1.0000
  H   H20       1.0  0.57780  0.61409  0.09989  1.0000
  H   H21       1.0  0.43786  0.08830  0.97858  1.0000
  H   H22       1.0  0.34963  0.91162  0.52142  1.0000
  H   H23       1.0  0.56214  0.91170  0.02142  1.0000
  H   H24       1.0  0.65037  0.08838  0.47858  1.0000
  H   H25       1.0  0.77348  0.22005  0.04655  1.0000
  H   H26       1.0  0.55362  0.78000  0.45349  1.0000
  H   H27       1.0  0.22652  0.77995  0.95345  1.0000
  H   H28       1.0  0.44639  0.22000  0.54651  1.0000
  H   H29       1.0  0.75371  0.13443  0.69930  1.0000
  H   H30       1.0  0.61928  0.86538  0.80063  1.0000
  H   H31       1.0  0.24629  0.86557  0.30070  1.0000
  H   H32       1.0  0.38072  0.13462  0.19937  1.0000
  H   H33       1.0  0.78692  0.30985  0.74787  1.0000
  H   H34       1.0  0.47707  0.68997  0.75211  1.0000
  H   H35       1.0  0.21308  0.69015  0.25213  1.0000
  H   H36       1.0  0.52293  0.31003  0.24789  1.0000
  H   H37       1.0  0.58665  0.17848  0.69568  1.0000
  H   H38       1.0  0.40818  0.82135  0.80431  1.0000
  H   H39       1.0  0.41335  0.82152  0.30432  1.0000
  H   H40       1.0  0.59183  0.17865  0.19570  1.0000
  H   H41       1.0  0.99220  0.27312  0.84398  1.0000
  H   H42       1.0  0.71917  0.72682  0.65602  1.0000
  H   H43       1.0  0.00780  0.72688  0.15602  1.0000
  H   H44       1.0  0.28083  0.27318  0.34398  1.0000
  H   H45       1.0  0.01862  0.28596  0.96249  1.0000
  H   H46       1.0  0.73275  0.71399  0.53751  1.0000
  H   H47       1.0  0.98139  0.71404  0.03751  1.0000
  H   H48       1.0  0.26725  0.28601  0.46249  1.0000
  H   H49       1.0  0.14737  0.51272  0.94668  1.0000
  H   H50       1.0  0.63460  0.48715  0.55326  1.0000
  H   H51       1.0  0.85263  0.48728  0.05332  1.0000
  H   H52       1.0  0.36540  0.51285  0.44673  1.0000
  H   H53       1.0  0.95660  0.49500  0.89992  1.0000
  H   H54       1.0  0.46166  0.50499  0.60009  1.0000
  H   H55       1.0  0.04340  0.50500  0.10008  1.0000
  H   H56       1.0  0.53834  0.49501  0.39991  1.0000
  C   C1        1.0  0.19079  0.17159  0.69322  1.0000
  C   C2        1.0  0.01922  0.82846  0.80674  1.0000
  C   C3        1.0  0.80920  0.82840  0.30678  1.0000
  C   C4        1.0  0.98078  0.17155  0.19326  1.0000
  C   C5        1.0  0.13856  0.25798  0.65709  1.0000
  C   C6        1.0  0.88061  0.74199  0.84285  1.0000
  C   C7        1.0  0.86144  0.74202  0.34291  1.0000
  C   C8        1.0  0.11939  0.25802  0.15715  1.0000
  C   C9        1.0  0.05794  0.20419  0.56321  1.0000
  C   C10       1.0  0.85376  0.79573  0.93674  1.0000
  C   C11       1.0  0.94206  0.79581  0.43679  1.0000
  C   C12       1.0  0.14623  0.20427  0.06326  1.0000
  C   C13       1.0  0.01368  0.28463  0.52750  1.0000
  C   C14       1.0  0.72914  0.71526  0.97246  1.0000
  C   C15       1.0  0.98632  0.71537  0.47250  1.0000
  C   C16       1.0  0.27086  0.28474  0.02754  1.0000
  C   C17       1.0  0.05194  0.42335  0.58410  1.0000
  C   C18       1.0  0.62855  0.57657  0.91583  1.0000
  C   C19       1.0  0.94806  0.57665  0.41589  1.0000
  C   C20       1.0  0.37145  0.42343  0.08417  1.0000
  C   C21       1.0  0.12710  0.47509  0.67960  1.0000
  C   C22       1.0  0.65195  0.52485  0.82031  1.0000
  C   C23       1.0  0.87290  0.52491  0.32040  1.0000
  C   C24       1.0  0.34805  0.47515  0.17969  1.0000
  C   C25       1.0  0.17017  0.39379  0.71564  1.0000
  C   C26       1.0  0.77637  0.60616  0.78430  1.0000
  C   C27       1.0  0.82983  0.60621  0.28436  1.0000
  C   C28       1.0  0.22363  0.39384  0.21570  1.0000
  C   C29       1.0  0.02109  0.51471  0.54682  1.0000
  C   C30       1.0  0.50629  0.48527  0.95316  1.0000
  C   C31       1.0  0.97891  0.48529  0.45318  1.0000
  C   C32       1.0  0.49371  0.51472  0.04684  1.0000
  C   C33       1.0  0.66556  0.19188  0.83244  1.0000
  C   C34       1.0  0.47363  0.80793  0.66752  1.0000
  C   C35       1.0  0.33444  0.80812  0.16756  1.0000
  C   C36       1.0  0.52637  0.19207  0.33248  1.0000
  C   C37       1.0  0.54057  0.13370  0.94539  1.0000
  C   C38       1.0  0.40695  0.86621  0.55460  1.0000
  C   C39       1.0  0.45943  0.86630  0.05461  1.0000
  C   C40       1.0  0.59305  0.13379  0.44540  1.0000
  C   C41       1.0  0.70477  0.19987  0.98013  1.0000
  C   C42       1.0  0.50504  0.80011  0.51989  1.0000
  C   C43       1.0  0.29523  0.80013  0.01987  1.0000
  C   C44       1.0  0.49496  0.19989  0.48011  1.0000
  C   C45       1.0  0.70064  0.20501  0.73932  1.0000
  C   C46       1.0  0.49560  0.79480  0.76064  1.0000
  C   C47       1.0  0.29936  0.79499  0.26068  1.0000
  C   C48       1.0  0.50440  0.20520  0.23936  1.0000
  C   C49       1.0  0.95815  0.31224  0.91415  1.0000
  C   C50       1.0  0.64601  0.68769  0.58584  1.0000
  C   C51       1.0  0.04185  0.68776  0.08585  1.0000
  C   C52       1.0  0.35399  0.31231  0.41416  1.0000
  C   C53       1.0  0.01540  0.46848  0.94946  1.0000
  C   C54       1.0  0.54695  0.53148  0.55052  1.0000
  C   C55       1.0  0.98460  0.53152  0.05054  1.0000
  C   C56       1.0  0.45305  0.46852  0.44947  1.0000
  N   N1        1.0  0.78217  0.23636  0.90831  1.0000
  N   N2        1.0  0.54590  0.76357  0.59169  1.0000
  N   N3        1.0  0.21783  0.76364  0.09169  1.0000
  N   N4        1.0  0.45410  0.23643  0.40831  1.0000
  N   N5        1.0  0.51789  0.12953  0.85380  1.0000
  N   N6        1.0  0.38830  0.87027  0.64616  1.0000
  N   N7        1.0  0.48211  0.87047  0.14620  1.0000
  N   N8        1.0  0.61170  0.12973  0.35384  1.0000
  O   O1        1.0  0.21302  0.20010  0.78276  1.0000
  O   O2        1.0  0.01299  0.79984  0.71718  1.0000
  O   O3        1.0  0.78698  0.79990  0.21724  1.0000
  O   O4        1.0  0.98701  0.20016  0.28282  1.0000
  O   O5        1.0  0.21235  0.07135  0.63219  1.0000
  O   O6        1.0  0.14092  0.92878  0.86777  1.0000
  O   O7        1.0  0.78764  0.92865  0.36781  1.0000
  O   O8        1.0  0.85908  0.07122  0.13223  1.0000
