data_image0
_chemical_formula_structural       Li8H32C24N8O28
_chemical_formula_sum              "Li8 H32 C24 N8 O28"
_cell_length_a       6.61575
_cell_length_b       11.7578
_cell_length_c       12.116
_cell_angle_alpha    90
_cell_angle_beta     98.8112
_cell_angle_gamma    90

_space_group_name_H-M_alt    "P 1"
_space_group_IT_number       1

loop_
  _space_group_symop_operation_xyz
  'x, y, z'

loop_
  _atom_site_type_symbol
  _atom_site_label
  _atom_site_symmetry_multiplicity
  _atom_site_fract_x
  _atom_site_fract_y
  _atom_site_fract_z
  _atom_site_occupancy
  Li  Li1       1.0  0.08258  0.17364  0.27071  1.0000
  Li  Li2       1.0  0.41742  0.67364  0.22929  1.0000
  Li  Li3       1.0  0.91742  0.82636  0.72929  1.0000
  Li  Li4       1.0  0.58259  0.32636  0.77071  1.0000
  Li  Li5       1.0  0.31941  0.49021  0.57959  1.0000
  Li  Li6       1.0  0.18059  0.99021  0.92041  1.0000
  Li  Li7       1.0  0.68059  0.50979  0.42041  1.0000
  Li  Li8       1.0  0.81941  0.00979  0.07959  1.0000
  H   H1        1.0  0.31969  0.88643  0.58010  1.0000
  H   H2        1.0  0.18031  0.38644  0.91989  1.0000
  H   H3        1.0  0.68031  0.11356  0.41990  1.0000
  H   H4        1.0  0.81969  0.61356  0.08011  1.0000
  H   H5        1.0  0.16894  0.91821  0.17585  1.0000
  H   H6        1.0  0.33106  0.41821  0.32415  1.0000
  H   H7        1.0  0.83106  0.08179  0.82415  1.0000
  H   H8        1.0  0.66894  0.58179  0.67586  1.0000
  H   H9        1.0  0.03826  0.45438  0.40489  1.0000
  H   H10       1.0  0.46174  0.95438  0.09511  1.0000
  H   H11       1.0  0.96174  0.54562  0.59511  1.0000
  H   H12       1.0  0.53826  0.04562  0.90489  1.0000
  H   H13       1.0  0.13313  0.33623  0.45665  1.0000
  H   H14       1.0  0.36687  0.83623  0.04335  1.0000
  H   H15       1.0  0.86687  0.66377  0.54335  1.0000
  H   H16       1.0  0.63313  0.16377  0.95665  1.0000
  H   H17       1.0  0.19230  0.52071  0.77684  1.0000
  H   H18       1.0  0.30770  0.02071  0.72316  1.0000
  H   H19       1.0  0.80770  0.47929  0.22316  1.0000
  H   H20       1.0  0.69230  0.97929  0.27684  1.0000
  H   H21       1.0  0.17869  0.39759  0.72427  1.0000
  H   H22       1.0  0.32131  0.89759  0.77573  1.0000
  H   H23       1.0  0.82131  0.60242  0.27573  1.0000
  H   H24       1.0  0.67870  0.10242  0.22427  1.0000
  H   H25       1.0  0.75839  0.28626  0.19855  1.0000
  H   H26       1.0  0.74161  0.78626  0.30145  1.0000
  H   H27       1.0  0.24161  0.71374  0.80145  1.0000
  H   H28       1.0  0.25839  0.21374  0.69855  1.0000
  H   H29       1.0  0.74133  0.27082  0.32807  1.0000
  H   H30       1.0  0.75867  0.77082  0.17194  1.0000
  H   H31       1.0  0.25867  0.72918  0.67194  1.0000
  H   H32       1.0  0.24133  0.22918  0.82806  1.0000
  C   C1        1.0  0.37891  0.68447  0.46372  1.0000
  C   C2        1.0  0.12109  0.18447  0.03628  1.0000
  C   C3        1.0  0.62109  0.31553  0.53628  1.0000
  C   C4        1.0  0.87891  0.81553  0.96372  1.0000
  C   C5        1.0  0.20807  0.10772  0.50064  1.0000
  C   C6        1.0  0.29193  0.60772  0.99935  1.0000
  C   C7        1.0  0.79192  0.89228  0.49936  1.0000
  C   C8        1.0  0.70807  0.39228  0.00065  1.0000
  C   C9        1.0  0.30691  0.80094  0.42034  1.0000
  C   C10       1.0  0.19309  0.30094  0.07966  1.0000
  C   C11       1.0  0.69309  0.19906  0.57966  1.0000
  C   C12       1.0  0.80691  0.69906  0.92034  1.0000
  C   C13       1.0  0.22633  0.99672  0.43786  1.0000
  C   C14       1.0  0.27367  0.49672  0.06213  1.0000
  C   C15       1.0  0.77367  0.00328  0.56213  1.0000
  C   C16       1.0  0.72633  0.50328  0.93787  1.0000
  C   C17       1.0  0.28631  0.89368  0.48978  1.0000
  C   C18       1.0  0.21369  0.39368  0.01022  1.0000
  C   C19       1.0  0.71369  0.10632  0.51022  1.0000
  C   C20       1.0  0.78631  0.60632  0.98978  1.0000
  C   C21       1.0  0.20289  0.91131  0.26642  1.0000
  C   C22       1.0  0.29711  0.41131  0.23358  1.0000
  C   C23       1.0  0.79711  0.08869  0.73358  1.0000
  C   C24       1.0  0.70289  0.58869  0.76642  1.0000
  N   N1        1.0  0.26872  0.81017  0.30836  1.0000
  N   N2        1.0  0.23128  0.31017  0.19164  1.0000
  N   N3        1.0  0.73128  0.18983  0.69164  1.0000
  N   N4        1.0  0.76872  0.68983  0.80836  1.0000
  N   N5        1.0  0.18155  0.00498  0.32605  1.0000
  N   N6        1.0  0.31844  0.50499  0.17394  1.0000
  N   N7        1.0  0.81844  0.99501  0.67395  1.0000
  N   N8        1.0  0.68156  0.49501  0.82606  1.0000
  O   O1        1.0  0.24299  0.10536  0.60651  1.0000
  O   O2        1.0  0.25701  0.60536  0.89349  1.0000
  O   O3        1.0  0.75700  0.89464  0.39349  1.0000
  O   O4        1.0  0.74299  0.39464  0.10651  1.0000
  O   O5        1.0  0.45791  0.62252  0.39610  1.0000
  O   O6        1.0  0.04209  0.12252  0.10390  1.0000
  O   O7        1.0  0.54209  0.37748  0.60390  1.0000
  O   O8        1.0  0.95791  0.87748  0.89610  1.0000
  O   O9        1.0  0.35236  0.65663  0.56170  1.0000
  O   O10       1.0  0.14764  0.15663  0.93830  1.0000
  O   O11       1.0  0.64764  0.34337  0.43830  1.0000
  O   O12       1.0  0.85236  0.84337  0.06170  1.0000
  O   O13       1.0  0.15943  0.19365  0.43962  1.0000
  O   O14       1.0  0.34057  0.69365  0.06038  1.0000
  O   O15       1.0  0.84057  0.80635  0.56038  1.0000
  O   O16       1.0  0.65943  0.30635  0.93962  1.0000
  O   O17       1.0  0.15891  0.47977  0.70482  1.0000
  O   O18       1.0  0.34109  0.97977  0.79518  1.0000
  O   O19       1.0  0.84109  0.52023  0.29518  1.0000
  O   O20       1.0  0.65891  0.02023  0.20482  1.0000
  O   O21       1.0  0.14214  0.42026  0.46203  1.0000
  O   O22       1.0  0.35786  0.92026  0.03797  1.0000
  O   O23       1.0  0.85786  0.57974  0.53797  1.0000
  O   O24       1.0  0.64214  0.07974  0.96203  1.0000
  O   O25       1.0  0.78779  0.23254  0.26315  1.0000
  O   O26       1.0  0.71221  0.73254  0.23685  1.0000
  O   O27       1.0  0.21221  0.76746  0.73685  1.0000
  O   O28       1.0  0.28779  0.26746  0.76315  1.0000
