data_image0
_chemical_formula_structural       Hg3H12C16N4Cl6
_chemical_formula_sum              "Hg3 H12 C16 N4 Cl6"
_cell_length_a       3.87846
_cell_length_b       9.85434
_cell_length_c       15.0053
_cell_angle_alpha    102.757
_cell_angle_beta     91.94
_cell_angle_gamma    97.1717

_space_group_name_H-M_alt    "P 1"
_space_group_IT_number       1

loop_
  _space_group_symop_operation_xyz
  'x, y, z'

loop_
  _atom_site_type_symbol
  _atom_site_label
  _atom_site_symmetry_multiplicity
  _atom_site_fract_x
  _atom_site_fract_y
  _atom_site_fract_z
  _atom_site_occupancy
  Hg  Hg1       1.0  0.50002  0.50000  1.00000  1.0000
  Hg  Hg2       1.0  0.00001  0.99999  0.50000  1.0000
  Hg  Hg3       1.0  0.00001  0.00000  1.00000  1.0000
  H   H1        1.0  0.37734  0.65621  0.83485  1.0000
  H   H2        1.0  0.62263  0.34379  0.16515  1.0000
  H   H3        1.0  0.31421  0.04779  0.71364  1.0000
  H   H4        1.0  0.68579  0.95221  0.28636  1.0000
  H   H5        1.0  0.54940  0.20917  0.86282  1.0000
  H   H6        1.0  0.45061  0.79083  0.13718  1.0000
  H   H7        1.0  0.07904  0.74813  0.71590  1.0000
  H   H8        1.0  0.92099  0.25188  0.28409  1.0000
  H   H9        1.0  0.80672  0.58657  0.57365  1.0000
  H   H10       1.0  0.19327  0.41343  0.42635  1.0000
  H   H11       1.0  0.83667  0.32857  0.54644  1.0000
  H   H12       1.0  0.16329  0.67143  0.45356  1.0000
  C   C1        1.0  0.12283  0.34642  0.67538  1.0000
  C   C2        1.0  0.87718  0.65358  0.32462  1.0000
  C   C3        1.0  0.27031  0.44021  0.75936  1.0000
  C   C4        1.0  0.72970  0.55980  0.24064  1.0000
  C   C5        1.0  0.25783  0.58585  0.77217  1.0000
  C   C6        1.0  0.74217  0.41415  0.22782  1.0000
  C   C7        1.0  0.29416  0.15975  0.72589  1.0000
  C   C8        1.0  0.70585  0.84026  0.27411  1.0000
  C   C9        1.0  0.43069  0.25080  0.80949  1.0000
  C   C10       1.0  0.56931  0.74920  0.19051  1.0000
  C   C11       1.0  0.09414  0.63612  0.70562  1.0000
  C   C12       1.0  0.90586  0.36388  0.29437  1.0000
  C   C13       1.0  0.94017  0.54374  0.62408  1.0000
  C   C14       1.0  0.05984  0.45626  0.37592  1.0000
  C   C15       1.0  0.95542  0.40140  0.60854  1.0000
  C   C16       1.0  0.04457  0.59859  0.39145  1.0000
  N   N1        1.0  0.41945  0.38757  0.82595  1.0000
  N   N2        1.0  0.58053  0.61244  0.17405  1.0000
  N   N3        1.0  0.14118  0.20586  0.66051  1.0000
  N   N4        1.0  0.85881  0.79414  0.33949  1.0000
  Cl  Cl1       1.0  0.00064  0.31452  0.00975  1.0000
  Cl  Cl2       1.0  0.99937  0.68549  0.99025  1.0000
  Cl  Cl3       1.0  0.59724  0.86697  0.57630  1.0000
  Cl  Cl4       1.0  0.40274  0.13303  0.42370  1.0000
  Cl  Cl5       1.0  0.61114  0.94388  0.87001  1.0000
  Cl  Cl6       1.0  0.38888  0.05612  0.12999  1.0000
