data_image0
_chemical_formula_structural       K8Cu4H24C24N16O36
_chemical_formula_sum              "K8 Cu4 H24 C24 N16 O36"
_cell_length_a       8.82633
_cell_length_b       12.3894
_cell_length_c       13.1215
_cell_angle_alpha    90
_cell_angle_beta     108.235
_cell_angle_gamma    90

_space_group_name_H-M_alt    "P 1"
_space_group_IT_number       1

loop_
  _space_group_symop_operation_xyz
  'x, y, z'

loop_
  _atom_site_type_symbol
  _atom_site_label
  _atom_site_symmetry_multiplicity
  _atom_site_fract_x
  _atom_site_fract_y
  _atom_site_fract_z
  _atom_site_occupancy
  K   K1        1.0  0.86177  0.88643  0.38575  1.0000
  K   K2        1.0  0.13822  0.38642  0.11425  1.0000
  K   K3        1.0  0.13823  0.11358  0.61424  1.0000
  K   K4        1.0  0.86177  0.61357  0.88574  1.0000
  K   K5        1.0  0.90027  0.88529  0.06361  1.0000
  K   K6        1.0  0.09972  0.38528  0.43639  1.0000
  K   K7        1.0  0.09972  0.11472  0.93639  1.0000
  K   K8        1.0  0.90028  0.61472  0.56362  1.0000
  Cu  Cu1       1.0  0.53243  0.97140  0.14102  1.0000
  Cu  Cu2       1.0  0.46758  0.47141  0.35903  1.0000
  Cu  Cu3       1.0  0.46758  0.02859  0.85899  1.0000
  Cu  Cu4       1.0  0.53244  0.52859  0.64099  1.0000
  H   H1        1.0  0.51062  0.90658  0.34283  1.0000
  H   H2        1.0  0.48941  0.40660  0.15719  1.0000
  H   H3        1.0  0.48939  0.09341  0.65718  1.0000
  H   H4        1.0  0.51059  0.59341  0.84282  1.0000
  H   H5        1.0  0.80123  0.64729  0.29645  1.0000
  H   H6        1.0  0.19877  0.14731  0.20355  1.0000
  H   H7        1.0  0.19877  0.35270  0.70356  1.0000
  H   H8        1.0  0.80123  0.85270  0.79645  1.0000
  H   H9        1.0  0.79886  0.85162  0.61801  1.0000
  H   H10       1.0  0.20115  0.35163  0.88199  1.0000
  H   H11       1.0  0.20114  0.14838  0.38199  1.0000
  H   H12       1.0  0.79886  0.64837  0.11800  1.0000
  H   H13       1.0  0.47199  0.03471  0.32672  1.0000
  H   H14       1.0  0.52801  0.53468  0.17327  1.0000
  H   H15       1.0  0.52800  0.96529  0.67328  1.0000
  H   H16       1.0  0.47199  0.46531  0.82673  1.0000
  H   H17       1.0  0.98526  0.63179  0.33120  1.0000
  H   H18       1.0  0.01473  0.13180  0.16880  1.0000
  H   H19       1.0  0.01474  0.36821  0.66880  1.0000
  H   H20       1.0  0.98527  0.86821  0.83121  1.0000
  H   H21       1.0  0.98283  0.87161  0.65238  1.0000
  H   H22       1.0  0.01717  0.37161  0.84762  1.0000
  H   H23       1.0  0.01719  0.12839  0.34762  1.0000
  H   H24       1.0  0.98284  0.62838  0.15238  1.0000
  C   C1        1.0  0.66623  0.17678  0.16722  1.0000
  C   C2        1.0  0.33379  0.67678  0.33279  1.0000
  C   C3        1.0  0.33377  0.82322  0.83279  1.0000
  C   C4        1.0  0.66622  0.32322  0.66722  1.0000
  C   C5        1.0  0.77126  0.26498  0.20153  1.0000
  C   C6        1.0  0.22875  0.76496  0.29850  1.0000
  C   C7        1.0  0.22874  0.73504  0.79849  1.0000
  C   C8        1.0  0.77125  0.23504  0.70151  1.0000
  C   C9        1.0  0.49184  0.19179  0.11286  1.0000
  C   C10       1.0  0.50813  0.69179  0.38711  1.0000
  C   C11       1.0  0.50813  0.80821  0.88713  1.0000
  C   C12       1.0  0.49186  0.30821  0.61288  1.0000
  C   C13       1.0  0.39724  0.76720  0.09673  1.0000
  C   C14       1.0  0.60272  0.26720  0.40327  1.0000
  C   C15       1.0  0.60275  0.23281  0.90328  1.0000
  C   C16       1.0  0.39727  0.73280  0.59673  1.0000
  C   C17       1.0  0.28613  0.68230  0.06367  1.0000
  C   C18       1.0  0.71387  0.18233  0.43633  1.0000
  C   C19       1.0  0.71388  0.31769  0.93632  1.0000
  C   C20       1.0  0.28613  0.81768  0.56367  1.0000
  C   C21       1.0  0.57050  0.74896  0.14671  1.0000
  C   C22       1.0  0.42952  0.24898  0.35329  1.0000
  C   C23       1.0  0.42951  0.25103  0.85330  1.0000
  C   C24       1.0  0.57049  0.75103  0.64671  1.0000
  N   N1        1.0  0.71676  0.07518  0.17984  1.0000
  N   N2        1.0  0.28323  0.57520  0.32016  1.0000
  N   N3        1.0  0.28323  0.92481  0.82016  1.0000
  N   N4        1.0  0.71678  0.42481  0.67984  1.0000
  N   N5        1.0  0.86101  0.33640  0.23095  1.0000
  N   N6        1.0  0.13902  0.83637  0.26906  1.0000
  N   N7        1.0  0.13900  0.66362  0.76906  1.0000
  N   N8        1.0  0.86100  0.16362  0.73095  1.0000
  N   N9        1.0  0.35171  0.87089  0.08145  1.0000
  N   N10       1.0  0.64829  0.37087  0.41856  1.0000
  N   N11       1.0  0.64829  0.12912  0.91856  1.0000
  N   N12       1.0  0.35171  0.62912  0.58145  1.0000
  N   N13       1.0  0.19169  0.61342  0.03526  1.0000
  N   N14       1.0  0.80828  0.11345  0.46472  1.0000
  N   N15       1.0  0.80830  0.38657  0.96473  1.0000
  N   N16       1.0  0.19171  0.88656  0.53527  1.0000
  O   O1        1.0  0.86472  0.05046  0.22326  1.0000
  O   O2        1.0  0.13526  0.55050  0.27674  1.0000
  O   O3        1.0  0.13527  0.94952  0.77674  1.0000
  O   O4        1.0  0.86474  0.44952  0.72326  1.0000
  O   O5        1.0  0.41066  0.10423  0.08391  1.0000
  O   O6        1.0  0.58937  0.60426  0.41608  1.0000
  O   O7        1.0  0.58934  0.89575  0.91609  1.0000
  O   O8        1.0  0.41064  0.39575  0.58393  1.0000
  O   O9        1.0  0.43303  0.28471  0.09640  1.0000
  O   O10       1.0  0.56693  0.78470  0.40358  1.0000
  O   O11       1.0  0.56695  0.71529  0.90360  1.0000
  O   O12       1.0  0.43305  0.21529  0.59641  1.0000
  O   O13       1.0  0.20810  0.89816  0.03779  1.0000
  O   O14       1.0  0.79190  0.39814  0.46221  1.0000
  O   O15       1.0  0.79190  0.10185  0.96221  1.0000
  O   O16       1.0  0.20810  0.60185  0.53780  1.0000
  O   O17       1.0  0.65924  0.83384  0.16815  1.0000
  O   O18       1.0  0.34074  0.33382  0.33183  1.0000
  O   O19       1.0  0.34074  0.16618  0.83185  1.0000
  O   O20       1.0  0.65926  0.66617  0.66816  1.0000
  O   O21       1.0  0.62503  0.65394  0.16633  1.0000
  O   O22       1.0  0.37500  0.15396  0.33366  1.0000
  O   O23       1.0  0.37498  0.34605  0.83367  1.0000
  O   O24       1.0  0.62502  0.84605  0.66634  1.0000
  O   O25       1.0  0.52952  0.97349  0.30713  1.0000
  O   O26       1.0  0.47048  0.47349  0.19281  1.0000
  O   O27       1.0  0.47049  0.02650  0.69286  1.0000
  O   O28       1.0  0.52952  0.52651  0.80717  1.0000
  O   O29       1.0  0.89902  0.65718  0.35754  1.0000
  O   O30       1.0  0.10098  0.15716  0.14245  1.0000
  O   O31       1.0  0.10098  0.34283  0.64246  1.0000
  O   O32       1.0  0.89902  0.84283  0.85755  1.0000
  O   O33       1.0  0.89345  0.84249  0.59407  1.0000
  O   O34       1.0  0.10655  0.34249  0.90592  1.0000
  O   O35       1.0  0.10655  0.15751  0.40593  1.0000
  O   O36       1.0  0.89346  0.65751  0.09408  1.0000
