data_image0
_chemical_formula_structural       ZnH30C32S2N20
_chemical_formula_sum              "Zn1 H30 C32 S2 N20"
_cell_length_a       8.45417
_cell_length_b       9.40925
_cell_length_c       11.6237
_cell_angle_alpha    81.2463
_cell_angle_beta     84.9974
_cell_angle_gamma    89.5431

_space_group_name_H-M_alt    "P 1"
_space_group_IT_number       1

loop_
  _space_group_symop_operation_xyz
  'x, y, z'

loop_
  _atom_site_type_symbol
  _atom_site_label
  _atom_site_symmetry_multiplicity
  _atom_site_fract_x
  _atom_site_fract_y
  _atom_site_fract_z
  _atom_site_occupancy
  Zn  Zn1       1.0  1.00000  1.00000  0.00000  1.0000
  H   H1        1.0  0.09297  0.96284  0.28698  1.0000
  H   H2        1.0  0.90703  0.03716  0.71301  1.0000
  H   H3        1.0  0.37865  0.87158  0.99221  1.0000
  H   H4        1.0  0.62135  0.12842  0.00780  1.0000
  H   H5        1.0  0.31528  0.90618  0.43444  1.0000
  H   H6        1.0  0.68472  0.09383  0.56556  1.0000
  H   H7        1.0  0.49569  0.83736  0.37971  1.0000
  H   H8        1.0  0.50431  0.16264  0.62029  1.0000
  H   H9        1.0  0.40997  0.71777  0.60092  1.0000
  H   H10       1.0  0.59003  0.28223  0.39908  1.0000
  H   H11       1.0  0.19121  0.30165  0.61766  1.0000
  H   H12       1.0  0.80879  0.69836  0.38234  1.0000
  H   H13       1.0  0.20841  0.60424  0.29972  1.0000
  H   H14       1.0  0.79159  0.39576  0.70028  1.0000
  H   H15       1.0  0.07378  0.23832  0.45757  1.0000
  H   H16       1.0  0.92622  0.76168  0.54242  1.0000
  H   H17       1.0  0.01041  0.37810  0.35059  1.0000
  H   H18       1.0  0.98959  0.62190  0.64941  1.0000
  H   H19       1.0  0.45308  0.40912  0.75537  1.0000
  H   H20       1.0  0.54692  0.59087  0.24463  1.0000
  H   H21       1.0  0.36311  0.57235  0.78502  1.0000
  H   H22       1.0  0.63689  0.42765  0.21498  1.0000
  H   H23       1.0  0.88979  0.34597  0.97384  1.0000
  H   H24       1.0  0.11021  0.65402  0.02617  1.0000
  H   H25       1.0  0.32519  0.17945  0.85173  1.0000
  H   H26       1.0  0.67481  0.82055  0.14827  1.0000
  H   H27       1.0  0.53731  0.13475  0.21946  1.0000
  H   H28       1.0  0.46269  0.86525  0.78054  1.0000
  H   H29       1.0  0.13261  0.38222  0.14443  1.0000
  H   H30       1.0  0.86739  0.61778  0.85557  1.0000
  C   C1        1.0  0.18822  0.92809  0.22873  1.0000
  C   C2        1.0  0.81178  0.07191  0.77126  1.0000
  C   C3        1.0  0.33567  0.88027  0.08152  1.0000
  C   C4        1.0  0.66433  0.11973  0.91848  1.0000
  C   C5        1.0  0.36592  0.82471  0.38360  1.0000
  C   C6        1.0  0.63409  0.17529  0.61640  1.0000
  C   C7        1.0  0.31476  0.67634  0.44355  1.0000
  C   C8        1.0  0.68524  0.32367  0.55645  1.0000
  C   C9        1.0  0.34741  0.64033  0.56041  1.0000
  C   C10       1.0  0.65260  0.35967  0.43959  1.0000
  C   C11       1.0  0.30224  0.50732  0.62420  1.0000
  C   C12       1.0  0.69775  0.49268  0.37580  1.0000
  C   C13       1.0  0.22497  0.40769  0.56997  1.0000
  C   C14       1.0  0.77503  0.59231  0.43003  1.0000
  C   C15       1.0  0.19265  0.44183  0.45331  1.0000
  C   C16       1.0  0.80735  0.55818  0.54669  1.0000
  C   C17       1.0  0.23632  0.57727  0.39044  1.0000
  C   C18       1.0  0.76368  0.42273  0.60956  1.0000
  C   C19       1.0  0.11356  0.33227  0.39402  1.0000
  C   C20       1.0  0.88644  0.66773  0.60598  1.0000
  C   C21       1.0  0.34371  0.47297  0.74947  1.0000
  C   C22       1.0  0.65629  0.52703  0.25053  1.0000
  C   C23       1.0  0.00566  0.33705  0.92755  1.0000
  C   C24       1.0  0.99434  0.66295  0.07245  1.0000
  C   C25       1.0  0.22431  0.24773  0.86803  1.0000
  C   C26       1.0  0.77569  0.75226  0.13197  1.0000
  C   C27       1.0  0.83033  0.05147  0.23912  1.0000
  C   C28       1.0  0.16966  0.94853  0.76088  1.0000
  C   C29       1.0  0.42704  0.19403  0.22750  1.0000
  C   C30       1.0  0.57296  0.80597  0.77250  1.0000
  C   C31       1.0  0.22644  0.31993  0.18601  1.0000
  C   C32       1.0  0.77356  0.68008  0.81399  1.0000
  S   S1        1.0  0.79148  0.99644  0.37756  1.0000
  S   S2        1.0  0.20850  0.00356  0.62244  1.0000
  N   N1        1.0  0.85984  0.08753  0.13676  1.0000
  N   N2        1.0  0.14015  0.91247  0.86324  1.0000
  N   N3        1.0  0.19461  0.94156  0.11228  1.0000
  N   N4        1.0  0.80540  0.05844  0.88771  1.0000
  N   N5        1.0  0.32025  0.86171  0.26539  1.0000
  N   N6        1.0  0.67975  0.13829  0.73461  1.0000
  N   N7        1.0  0.41598  0.83017  0.17245  1.0000
  N   N8        1.0  0.58402  0.16982  0.82755  1.0000
  N   N9        1.0  0.22221  0.28309  0.30347  1.0000
  N   N10       1.0  0.77779  0.71691  0.69653  1.0000
  N   N11       1.0  0.08828  0.21154  0.93239  1.0000
  N   N12       1.0  0.91172  0.78846  0.06761  1.0000
  N   N13       1.0  0.08266  0.44843  0.86327  1.0000
  N   N14       1.0  0.91734  0.55156  0.13673  1.0000
  N   N15       1.0  0.22229  0.38890  0.82643  1.0000
  N   N16       1.0  0.77771  0.61110  0.17357  1.0000
  N   N17       1.0  0.35089  0.20178  0.33194  1.0000
  N   N18       1.0  0.64911  0.79822  0.66806  1.0000
  N   N19       1.0  0.35546  0.26501  0.13477  1.0000
  N   N20       1.0  0.64454  0.73499  0.86523  1.0000
