data_image0
_chemical_formula_structural       Cd2H12C16I4N4
_chemical_formula_sum              "Cd2 H12 C16 I4 N4"
_cell_length_a       7.80456
_cell_length_b       7.80456
_cell_length_c       10.7
_cell_angle_alpha    72.4717
_cell_angle_beta     72.4722
_cell_angle_gamma    60.8351

_space_group_name_H-M_alt    "P 1"
_space_group_IT_number       1

loop_
  _space_group_symop_operation_xyz
  'x, y, z'

loop_
  _atom_site_type_symbol
  _atom_site_label
  _atom_site_symmetry_multiplicity
  _atom_site_fract_x
  _atom_site_fract_y
  _atom_site_fract_z
  _atom_site_occupancy
  Cd  Cd1       1.0  0.55918  0.55918  0.63658  1.0000
  Cd  Cd2       1.0  0.44082  0.44082  0.36342  1.0000
  H   H1        1.0  0.31168  0.99573  0.45708  1.0000
  H   H2        1.0  0.00429  0.68832  0.54291  1.0000
  H   H3        1.0  0.68832  0.00427  0.54292  1.0000
  H   H4        1.0  0.99571  0.31168  0.45709  1.0000
  H   H5        1.0  0.24206  0.60923  0.87929  1.0000
  H   H6        1.0  0.39077  0.75794  0.12071  1.0000
  H   H7        1.0  0.75794  0.39077  0.12071  1.0000
  H   H8        1.0  0.60923  0.24206  0.87929  1.0000
  H   H9        1.0  0.97407  0.65745  0.07818  1.0000
  H   H10       1.0  0.34256  0.02593  0.92182  1.0000
  H   H11       1.0  0.02593  0.34255  0.92182  1.0000
  H   H12       1.0  0.65744  0.97407  0.07818  1.0000
  C   C1        1.0  0.19484  0.01594  0.54633  1.0000
  C   C2        1.0  0.98406  0.80516  0.45367  1.0000
  C   C3        1.0  0.80516  0.98406  0.45367  1.0000
  C   C4        1.0  0.01594  0.19484  0.54633  1.0000
  C   C5        1.0  0.07781  0.89536  0.76197  1.0000
  C   C6        1.0  0.10464  0.92219  0.23804  1.0000
  C   C7        1.0  0.92219  0.10464  0.23803  1.0000
  C   C8        1.0  0.89536  0.07781  0.76196  1.0000
  C   C9        1.0  0.10265  0.74542  0.87795  1.0000
  C   C10       1.0  0.25459  0.89737  0.12203  1.0000
  C   C11       1.0  0.89735  0.25459  0.12205  1.0000
  C   C12       1.0  0.74541  0.10263  0.87797  1.0000
  C   C13       1.0  0.95269  0.77382  0.98899  1.0000
  C   C14       1.0  0.22618  0.04730  0.01103  1.0000
  C   C15       1.0  0.04731  0.22618  0.01102  1.0000
  C   C16       1.0  0.77382  0.95270  0.98897  1.0000
  I   I1        1.0  0.66060  0.66061  0.35130  1.0000
  I   I2        1.0  0.33939  0.33939  0.64870  1.0000
  I   I3        1.0  0.67547  0.67547  0.80189  1.0000
  I   I4        1.0  0.32453  0.32453  0.19811  1.0000
  N   N1        1.0  0.22498  0.86835  0.65065  1.0000
  N   N2        1.0  0.13166  0.77502  0.34934  1.0000
  N   N3        1.0  0.77502  0.13165  0.34935  1.0000
  N   N4        1.0  0.86834  0.22498  0.65066  1.0000
