data_image0
_chemical_formula_structural       Na4H64C40N4O8
_chemical_formula_sum              "Na4 H64 C40 N4 O8"
_cell_length_a       6.90425
_cell_length_b       12.3407
_cell_length_c       13.1609
_cell_angle_alpha    90
_cell_angle_beta     90
_cell_angle_gamma    101.119

_space_group_name_H-M_alt    "P 1"
_space_group_IT_number       1

loop_
  _space_group_symop_operation_xyz
  'x, y, z'

loop_
  _atom_site_type_symbol
  _atom_site_label
  _atom_site_symmetry_multiplicity
  _atom_site_fract_x
  _atom_site_fract_y
  _atom_site_fract_z
  _atom_site_occupancy
  Na  Na1       1.0  0.25794  0.46987  0.99844  1.0000
  Na  Na2       1.0  0.74206  0.03013  0.49844  1.0000
  Na  Na3       1.0  0.74206  0.53013  0.00156  1.0000
  Na  Na4       1.0  0.25794  0.96987  0.50156  1.0000
  H   H1        1.0  0.48496  0.43295  0.80843  1.0000
  H   H2        1.0  0.51504  0.06705  0.30843  1.0000
  H   H3        1.0  0.51504  0.56705  0.19157  1.0000
  H   H4        1.0  0.48497  0.93295  0.69157  1.0000
  H   H5        1.0  0.42356  0.41358  0.62354  1.0000
  H   H6        1.0  0.57645  0.08642  0.12354  1.0000
  H   H7        1.0  0.57644  0.58642  0.37646  1.0000
  H   H8        1.0  0.42356  0.91358  0.87646  1.0000
  H   H9        1.0  0.36606  0.57249  0.51959  1.0000
  H   H10       1.0  0.63394  0.92751  0.01959  1.0000
  H   H11       1.0  0.63394  0.42751  0.48041  1.0000
  H   H12       1.0  0.36606  0.07249  0.98041  1.0000
  H   H13       1.0  0.37546  0.75535  0.60522  1.0000
  H   H14       1.0  0.62454  0.74465  0.10522  1.0000
  H   H15       1.0  0.62453  0.24465  0.39478  1.0000
  H   H16       1.0  0.37546  0.25535  0.89478  1.0000
  H   H17       1.0  0.44179  0.77680  0.78876  1.0000
  H   H18       1.0  0.55821  0.72320  0.28876  1.0000
  H   H19       1.0  0.55820  0.22320  0.21124  1.0000
  H   H20       1.0  0.44179  0.27680  0.71125  1.0000
  H   H21       1.0  0.18129  0.22234  0.10321  1.0000
  H   H22       1.0  0.81872  0.27766  0.60321  1.0000
  H   H23       1.0  0.81872  0.77766  0.89679  1.0000
  H   H24       1.0  0.18128  0.72234  0.39679  1.0000
  H   H25       1.0  0.04046  0.12220  0.01884  1.0000
  H   H26       1.0  0.95954  0.37780  0.51884  1.0000
  H   H27       1.0  0.95955  0.87780  0.98116  1.0000
  H   H28       1.0  0.04045  0.62220  0.48116  1.0000
  H   H29       1.0  0.91597  0.19781  0.10532  1.0000
  H   H30       1.0  0.08403  0.30219  0.60532  1.0000
  H   H31       1.0  0.08403  0.80219  0.89468  1.0000
  H   H32       1.0  0.91597  0.69781  0.39468  1.0000
  H   H33       1.0  0.75843  0.28661  0.96734  1.0000
  H   H34       1.0  0.24157  0.21339  0.46734  1.0000
  H   H35       1.0  0.24157  0.71339  0.03266  1.0000
  H   H36       1.0  0.75843  0.78661  0.53266  1.0000
  H   H37       1.0  0.85262  0.19117  0.88851  1.0000
  H   H38       1.0  0.14738  0.30883  0.38851  1.0000
  H   H39       1.0  0.14738  0.80883  0.11149  1.0000
  H   H40       1.0  0.85262  0.69117  0.61149  1.0000
  H   H41       1.0  0.04937  0.34609  0.78903  1.0000
  H   H42       1.0  0.95063  0.15391  0.28903  1.0000
  H   H43       1.0  0.95063  0.65391  0.21097  1.0000
  H   H44       1.0  0.04937  0.84609  0.71097  1.0000
  H   H45       1.0  0.78893  0.34486  0.78662  1.0000
  H   H46       1.0  0.21107  0.15514  0.28662  1.0000
  H   H47       1.0  0.21107  0.65514  0.21338  1.0000
  H   H48       1.0  0.78893  0.84486  0.71338  1.0000
  H   H49       1.0  0.08371  0.53160  0.73750  1.0000
  H   H50       1.0  0.91629  0.96840  0.23750  1.0000
  H   H51       1.0  0.91629  0.46840  0.26250  1.0000
  H   H52       1.0  0.08371  0.03160  0.76250  1.0000
  H   H53       1.0  0.03659  0.62901  0.82964  1.0000
  H   H54       1.0  0.96341  0.87099  0.32964  1.0000
  H   H55       1.0  0.96341  0.37099  0.17036  1.0000
  H   H56       1.0  0.03659  0.12901  0.67036  1.0000
  H   H57       1.0  0.83319  0.54861  0.76072  1.0000
  H   H58       1.0  0.16682  0.95139  0.26072  1.0000
  H   H59       1.0  0.16681  0.45139  0.23928  1.0000
  H   H60       1.0  0.83319  0.04861  0.73928  1.0000
  H   H61       1.0  0.49806  0.69341  0.94035  1.0000
  H   H62       1.0  0.50194  0.80659  0.44036  1.0000
  H   H63       1.0  0.50194  0.30659  0.05964  1.0000
  H   H64       1.0  0.49806  0.19341  0.55965  1.0000
  C   C1        1.0  0.46806  0.60696  0.81575  1.0000
  C   C2        1.0  0.53194  0.89304  0.31575  1.0000
  C   C3        1.0  0.53194  0.39304  0.18425  1.0000
  C   C4        1.0  0.46806  0.10696  0.68425  1.0000
  C   C5        1.0  0.46219  0.50427  0.76392  1.0000
  C   C6        1.0  0.53781  0.99573  0.26393  1.0000
  C   C7        1.0  0.53781  0.49573  0.23608  1.0000
  C   C8        1.0  0.46219  0.00427  0.73607  1.0000
  C   C9        1.0  0.42695  0.49345  0.65998  1.0000
  C   C10       1.0  0.57305  0.00655  0.15998  1.0000
  C   C11       1.0  0.57304  0.50655  0.34002  1.0000
  C   C12       1.0  0.42695  0.99345  0.84002  1.0000
  C   C13       1.0  0.39474  0.58263  0.60070  1.0000
  C   C14       1.0  0.60526  0.91737  0.10070  1.0000
  C   C15       1.0  0.60526  0.41737  0.39930  1.0000
  C   C16       1.0  0.39474  0.08263  0.89930  1.0000
  C   C17       1.0  0.40231  0.68463  0.64908  1.0000
  C   C18       1.0  0.59769  0.81537  0.14907  1.0000
  C   C19       1.0  0.59769  0.31537  0.35092  1.0000
  C   C20       1.0  0.40231  0.18463  0.85093  1.0000
  C   C21       1.0  0.43980  0.69695  0.75261  1.0000
  C   C22       1.0  0.56019  0.80305  0.25261  1.0000
  C   C23       1.0  0.56019  0.30305  0.24740  1.0000
  C   C24       1.0  0.43981  0.19695  0.74739  1.0000
  C   C25       1.0  0.04748  0.20263  0.05662  1.0000
  C   C26       1.0  0.95252  0.29737  0.55662  1.0000
  C   C27       1.0  0.95252  0.79737  0.94338  1.0000
  C   C28       1.0  0.04748  0.70263  0.44338  1.0000
  C   C29       1.0  0.88652  0.27525  0.92095  1.0000
  C   C30       1.0  0.11348  0.22475  0.42095  1.0000
  C   C31       1.0  0.11349  0.72475  0.07905  1.0000
  C   C32       1.0  0.88652  0.77525  0.57905  1.0000
  C   C33       1.0  0.92141  0.35769  0.83535  1.0000
  C   C34       1.0  0.07859  0.14231  0.33535  1.0000
  C   C35       1.0  0.07859  0.64231  0.16465  1.0000
  C   C36       1.0  0.92141  0.85769  0.66465  1.0000
  C   C37       1.0  0.97856  0.54866  0.79527  1.0000
  C   C38       1.0  0.02144  0.95134  0.29527  1.0000
  C   C39       1.0  0.02144  0.45134  0.20473  1.0000
  C   C40       1.0  0.97856  0.04866  0.70473  1.0000
  N   N1        1.0  0.49576  0.61357  0.91803  1.0000
  N   N2        1.0  0.50424  0.88643  0.41803  1.0000
  N   N3        1.0  0.50424  0.38643  0.08197  1.0000
  N   N4        1.0  0.49576  0.11357  0.58197  1.0000
  O   O1        1.0  0.95966  0.46800  0.87596  1.0000
  O   O2        1.0  0.04034  0.03200  0.37596  1.0000
  O   O3        1.0  0.04034  0.53200  0.12404  1.0000
  O   O4        1.0  0.95966  0.96800  0.62404  1.0000
  O   O5        1.0  0.05909  0.28899  0.98339  1.0000
  O   O6        1.0  0.94091  0.21101  0.48339  1.0000
  O   O7        1.0  0.94091  0.71101  0.01661  1.0000
  O   O8        1.0  0.05909  0.78899  0.51661  1.0000
