data_image0
_chemical_formula_structural       Ag4H20C16N8
_chemical_formula_sum              "Ag4 H20 C16 N8"
_cell_length_a       5.82506
_cell_length_b       7.54508
_cell_length_c       10.9571
_cell_angle_alpha    93.5955
_cell_angle_beta     89.9998
_cell_angle_gamma    89.9996

_space_group_name_H-M_alt    "P 1"
_space_group_IT_number       1

loop_
  _space_group_symop_operation_xyz
  'x, y, z'

loop_
  _atom_site_type_symbol
  _atom_site_label
  _atom_site_symmetry_multiplicity
  _atom_site_fract_x
  _atom_site_fract_y
  _atom_site_fract_z
  _atom_site_occupancy
  Ag  Ag1       1.0  0.50001  0.50002  0.50000  1.0000
  Ag  Ag2       1.0  0.00000  0.00002  0.00001  1.0000
  Ag  Ag3       1.0  1.00000  0.49999  0.00000  1.0000
  Ag  Ag4       1.0  0.49996  0.99998  0.50000  1.0000
  H   H1        1.0  0.90505  0.63953  0.25034  1.0000
  H   H2        1.0  0.40504  0.86049  0.24964  1.0000
  H   H3        1.0  0.09498  0.36050  0.74966  1.0000
  H   H4        1.0  0.59495  0.13951  0.75033  1.0000
  H   H5        1.0  0.97603  0.55740  0.39391  1.0000
  H   H6        1.0  0.47605  0.94262  0.10609  1.0000
  H   H7        1.0  0.02398  0.44259  0.60608  1.0000
  H   H8        1.0  0.52397  0.05739  0.89391  1.0000
  H   H9        1.0  0.10139  0.75832  0.34845  1.0000
  H   H10       1.0  0.60139  0.74169  0.15154  1.0000
  H   H11       1.0  0.89863  0.24166  0.65157  1.0000
  H   H12       1.0  0.39861  0.25831  0.84844  1.0000
  H   H13       1.0  0.73024  0.32913  0.25096  1.0000
  H   H14       1.0  0.23025  0.17090  0.24905  1.0000
  H   H15       1.0  0.26976  0.67090  0.74902  1.0000
  H   H16       1.0  0.76976  0.82910  0.75100  1.0000
  H   H17       1.0  0.50541  0.32606  0.02902  1.0000
  H   H18       1.0  0.00538  0.17391  0.47099  1.0000
  H   H19       1.0  0.49458  0.67392  0.97097  1.0000
  H   H20       1.0  0.99454  0.82606  0.52905  1.0000
  C   C1        1.0  0.04497  0.62460  0.31543  1.0000
  C   C2        1.0  0.54496  0.87543  0.18456  1.0000
  C   C3        1.0  0.95504  0.37542  0.68457  1.0000
  C   C4        1.0  0.45503  0.12460  0.81542  1.0000
  C   C5        1.0  0.23604  0.52234  0.25596  1.0000
  C   C6        1.0  0.73604  0.97766  0.24404  1.0000
  C   C7        1.0  0.76396  0.47766  0.74403  1.0000
  C   C8        1.0  0.26393  0.02232  0.75596  1.0000
  C   C9        1.0  0.56458  0.38338  0.22828  1.0000
  C   C10       1.0  0.06457  0.11663  0.27172  1.0000
  C   C11       1.0  0.43546  0.61663  0.77170  1.0000
  C   C12       1.0  0.93543  0.88337  0.72830  1.0000
  C   C13       1.0  0.45215  0.38183  0.11784  1.0000
  C   C14       1.0  0.95214  0.11817  0.38216  1.0000
  C   C15       1.0  0.54786  0.61819  0.88216  1.0000
  C   C16       1.0  0.04782  0.88179  0.61784  1.0000
  N   N1        1.0  0.42724  0.47187  0.31510  1.0000
  N   N2        1.0  0.92723  0.02816  0.18490  1.0000
  N   N3        1.0  0.57279  0.52815  0.68489  1.0000
  N   N4        1.0  0.07277  0.97185  0.81511  1.0000
  N   N5        1.0  0.24545  0.47049  0.13549  1.0000
  N   N6        1.0  0.74544  0.02950  0.36451  1.0000
  N   N7        1.0  0.75458  0.52949  0.86450  1.0000
  N   N8        1.0  0.25454  0.97049  0.63550  1.0000
