data_image0
_chemical_formula_structural       Zn4H16C16N8O12
_chemical_formula_sum              "Zn4 H16 C16 N8 O12"
_cell_length_a       5.92063
_cell_length_b       8.90071
_cell_length_c       12.5313
_cell_angle_alpha    110.791
_cell_angle_beta     103.65
_cell_angle_gamma    90.0107

_space_group_name_H-M_alt    "P 1"
_space_group_IT_number       1

loop_
  _space_group_symop_operation_xyz
  'x, y, z'

loop_
  _atom_site_type_symbol
  _atom_site_label
  _atom_site_symmetry_multiplicity
  _atom_site_fract_x
  _atom_site_fract_y
  _atom_site_fract_z
  _atom_site_occupancy
  Zn  Zn1       1.0  0.64690  0.78569  0.76867  1.0000
  Zn  Zn2       1.0  0.35302  0.01693  0.23130  1.0000
  Zn  Zn3       1.0  0.62205  0.28583  0.76875  1.0000
  Zn  Zn4       1.0  0.37800  0.51707  0.23131  1.0000
  H   H1        1.0  0.49996  0.01664  0.99996  1.0000
  H   H2        1.0  0.99990  0.51664  0.00002  1.0000
  H   H3        1.0  0.49992  0.46599  0.00003  1.0000
  H   H4        1.0  0.00032  0.96590  0.99993  1.0000
  H   H5        1.0  0.63567  0.57344  0.49988  1.0000
  H   H6        1.0  0.36411  0.07347  0.50006  1.0000
  H   H7        1.0  0.93773  0.86797  0.50006  1.0000
  H   H8        1.0  0.06219  0.36786  0.49988  1.0000
  H   H9        1.0  0.07625  0.77287  0.75691  1.0000
  H   H10       1.0  0.92363  0.01599  0.24303  1.0000
  H   H11       1.0  0.18091  0.27297  0.75685  1.0000
  H   H12       1.0  0.81913  0.51607  0.24318  1.0000
  H   H13       1.0  0.99444  0.59314  0.75389  1.0000
  H   H14       1.0  0.00529  0.83928  0.24607  1.0000
  H   H15       1.0  0.25958  0.09329  0.75396  1.0000
  H   H16       1.0  0.74044  0.33925  0.24608  1.0000
  C   C1        1.0  0.50002  0.89410  0.00002  1.0000
  C   C2        1.0  0.99999  0.39408  0.99999  1.0000
  C   C3        1.0  0.53874  0.62064  0.90382  1.0000
  C   C4        1.0  0.46150  0.71685  0.09628  1.0000
  C   C5        1.0  0.86515  0.12061  0.90383  1.0000
  C   C6        1.0  0.13511  0.21678  0.09617  1.0000
  C   C7        1.0  0.49993  0.58809  0.99999  1.0000
  C   C8        1.0  0.00021  0.08804  0.99998  1.0000
  C   C9        1.0  0.47843  0.63788  0.49993  1.0000
  C   C10       1.0  0.52135  0.13791  0.50001  1.0000
  C   C11       1.0  0.24446  0.81196  0.60736  1.0000
  C   C12       1.0  0.75549  0.20460  0.39263  1.0000
  C   C13       1.0  0.86274  0.31198  0.60725  1.0000
  C   C14       1.0  0.13703  0.70471  0.39273  1.0000
  C   C15       1.0  0.09346  0.80300  0.50009  1.0000
  C   C16       1.0  0.90641  0.30291  0.49990  1.0000
  N   N1        1.0  0.54601  0.77838  0.90848  1.0000
  N   N2        1.0  0.45413  0.86989  0.09154  1.0000
  N   N3        1.0  0.86261  0.27834  0.90849  1.0000
  N   N4        1.0  0.13750  0.36988  0.09154  1.0000
  N   N5        1.0  0.44237  0.72629  0.60419  1.0000
  N   N6        1.0  0.55758  0.12199  0.39576  1.0000
  N   N7        1.0  0.66173  0.22634  0.60419  1.0000
  N   N8        1.0  0.33793  0.62204  0.39576  1.0000
  O   O1        1.0  0.57278  0.51874  0.80725  1.0000
  O   O2        1.0  0.42792  0.71148  0.19293  1.0000
  O   O3        1.0  0.73450  0.01866  0.80732  1.0000
  O   O4        1.0  0.26575  0.21133  0.19267  1.0000
  O   O5        1.0  0.21463  0.89270  0.71003  1.0000
  O   O6        1.0  0.78545  0.18267  0.28997  1.0000
  O   O7        1.0  0.99541  0.39269  0.70987  1.0000
  O   O8        1.0  0.00440  0.68294  0.29016  1.0000
  O   O9        1.0  0.97095  0.71113  0.78179  1.0000
  O   O10       1.0  0.02886  0.92935  0.21814  1.0000
  O   O11       1.0  0.31099  0.21126  0.78183  1.0000
  O   O12       1.0  0.68903  0.42941  0.21827  1.0000
