data_image0
_chemical_formula_structural       Na4Li4H32C16O32
_chemical_formula_sum              "Na4 Li4 H32 C16 O32"
_cell_length_a       7.86106
_cell_length_b       9.91621
_cell_length_c       11.77
_cell_angle_alpha    81.8545
_cell_angle_beta     70.469
_cell_angle_gamma    66.6282

_space_group_name_H-M_alt    "P 1"
_space_group_IT_number       1

loop_
  _space_group_symop_operation_xyz
  'x, y, z'

loop_
  _atom_site_type_symbol
  _atom_site_label
  _atom_site_symmetry_multiplicity
  _atom_site_fract_x
  _atom_site_fract_y
  _atom_site_fract_z
  _atom_site_occupancy
  Na  Na1       1.0  0.99310  0.25010  0.74997  1.0000
  Na  Na2       1.0  0.00690  0.74990  0.25003  1.0000
  Na  Na3       1.0  0.00000  0.50000  0.50000  1.0000
  Na  Na4       1.0  0.00000  0.00000  1.00000  1.0000
  Li  Li1       1.0  0.30280  0.16502  0.46745  1.0000
  Li  Li2       1.0  0.93548  0.33506  0.03240  1.0000
  Li  Li3       1.0  0.69720  0.83497  0.53255  1.0000
  Li  Li4       1.0  0.06451  0.66494  0.96760  1.0000
  H   H1        1.0  0.24412  0.85285  0.40700  1.0000
  H   H2        1.0  0.50337  0.64736  0.09305  1.0000
  H   H3        1.0  0.75588  0.14715  0.59301  1.0000
  H   H4        1.0  0.49663  0.35264  0.90695  1.0000
  H   H5        1.0  0.35246  0.65161  0.53596  1.0000
  H   H6        1.0  0.53958  0.84870  0.96443  1.0000
  H   H7        1.0  0.64755  0.34839  0.46404  1.0000
  H   H8        1.0  0.46042  0.15130  0.03557  1.0000
  H   H9        1.0  0.70271  0.07958  0.84102  1.0000
  H   H10       1.0  0.62323  0.42073  0.65885  1.0000
  H   H11       1.0  0.29729  0.92042  0.15897  1.0000
  H   H12       1.0  0.37678  0.57927  0.34116  1.0000
  H   H13       1.0  0.92129  0.99641  0.76574  1.0000
  H   H14       1.0  0.68313  0.50378  0.73434  1.0000
  H   H15       1.0  0.07871  0.00359  0.23426  1.0000
  H   H16       1.0  0.31687  0.49622  0.26566  1.0000
  H   H17       1.0  0.18083  0.30412  0.28510  1.0000
  H   H18       1.0  0.77034  0.19594  0.21484  1.0000
  H   H19       1.0  0.81918  0.69588  0.71490  1.0000
  H   H20       1.0  0.22966  0.80406  0.78516  1.0000
  H   H21       1.0  0.03933  0.23324  0.37011  1.0000
  H   H22       1.0  0.64295  0.26674  0.12985  1.0000
  H   H23       1.0  0.96066  0.76676  0.62989  1.0000
  H   H24       1.0  0.35705  0.73326  0.87016  1.0000
  H   H25       1.0  0.47151  0.94136  0.31799  1.0000
  H   H26       1.0  0.73032  0.55866  0.18216  1.0000
  H   H27       1.0  0.52849  0.05863  0.68201  1.0000
  H   H28       1.0  0.26968  0.44134  0.81784  1.0000
  H   H29       1.0  0.57709  0.64414  0.62676  1.0000
  H   H30       1.0  0.84766  0.85603  0.87335  1.0000
  H   H31       1.0  0.42291  0.35585  0.37324  1.0000
  H   H32       1.0  0.15233  0.14397  0.12665  1.0000
  C   C1        1.0  0.15316  0.95438  0.57764  1.0000
  C   C2        1.0  0.68505  0.54593  0.92239  1.0000
  C   C3        1.0  0.84684  0.04562  0.42236  1.0000
  C   C4        1.0  0.31495  0.45407  0.07761  1.0000
  C   C5        1.0  0.31479  0.87186  0.46667  1.0000
  C   C6        1.0  0.65287  0.62829  0.03347  1.0000
  C   C7        1.0  0.68520  0.12814  0.53333  1.0000
  C   C8        1.0  0.34713  0.37171  0.96653  1.0000
  C   C9        1.0  0.43993  0.72087  0.50641  1.0000
  C   C10       1.0  0.66693  0.77926  0.99380  1.0000
  C   C11       1.0  0.56007  0.27913  0.49359  1.0000
  C   C12       1.0  0.33307  0.22074  0.00620  1.0000
  C   C13       1.0  0.61932  0.65007  0.39838  1.0000
  C   C14       1.0  0.66783  0.84976  0.10179  1.0000
  C   C15       1.0  0.38068  0.34993  0.60162  1.0000
  C   C16       1.0  0.33217  0.15025  0.89821  1.0000
  O   O1        1.0  0.12478  0.08646  0.59020  1.0000
  O   O2        1.0  0.80181  0.41399  0.90961  1.0000
  O   O3        1.0  0.87523  0.91354  0.40980  1.0000
  O   O4        1.0  0.19820  0.58601  0.09039  1.0000
  O   O5        1.0  0.05676  0.88377  0.65180  1.0000
  O   O6        1.0  0.59202  0.61651  0.84832  1.0000
  O   O7        1.0  0.94324  0.11622  0.34820  1.0000
  O   O8        1.0  0.40797  0.38349  0.15168  1.0000
  O   O9        1.0  0.42707  0.95840  0.40757  1.0000
  O   O10       1.0  0.79249  0.54156  0.09259  1.0000
  O   O11       1.0  0.57292  0.04159  0.59243  1.0000
  O   O12       1.0  0.20751  0.45844  0.90741  1.0000
  O   O13       1.0  0.49543  0.74303  0.60413  1.0000
  O   O14       1.0  0.84229  0.75715  0.89593  1.0000
  O   O15       1.0  0.50457  0.25697  0.39587  1.0000
  O   O16       1.0  0.15771  0.24285  0.10407  1.0000
  O   O17       1.0  0.58999  0.59359  0.31943  1.0000
  O   O18       1.0  0.50309  0.90629  0.18086  1.0000
  O   O19       1.0  0.41001  0.40641  0.68057  1.0000
  O   O20       1.0  0.49691  0.09371  0.81914  1.0000
  O   O21       1.0  0.77853  0.65662  0.39416  1.0000
  O   O22       1.0  0.82958  0.84294  0.10588  1.0000
  O   O23       1.0  0.22147  0.34338  0.60584  1.0000
  O   O24       1.0  0.17042  0.15706  0.89412  1.0000
  O   O25       1.0  0.83879  0.04781  0.84499  1.0000
  O   O26       1.0  0.73134  0.45260  0.65501  1.0000
  O   O27       1.0  0.16121  0.95219  0.15501  1.0000
  O   O28       1.0  0.26866  0.54740  0.34499  1.0000
  O   O29       1.0  0.12011  0.28915  0.37081  1.0000
  O   O30       1.0  0.78041  0.21088  0.12913  1.0000
  O   O31       1.0  0.87989  0.71085  0.62919  1.0000
  O   O32       1.0  0.21959  0.78912  0.87087  1.0000
