data_image0
_chemical_formula_structural       Cs4Li4H24C16O28
_chemical_formula_sum              "Cs4 Li4 H24 C16 O28"
_cell_length_a       9.82584
_cell_length_b       9.84895
_cell_length_c       10.5818
_cell_angle_alpha    117.735
_cell_angle_beta     112.278
_cell_angle_gamma    89.9992

_space_group_name_H-M_alt    "P 1"
_space_group_IT_number       1

loop_
  _space_group_symop_operation_xyz
  'x, y, z'

loop_
  _atom_site_type_symbol
  _atom_site_label
  _atom_site_symmetry_multiplicity
  _atom_site_fract_x
  _atom_site_fract_y
  _atom_site_fract_z
  _atom_site_occupancy
  Cs  Cs1       1.0  0.75000  0.97151  0.00000  1.0000
  Cs  Cs2       1.0  0.25000  0.02850  1.00000  1.0000
  Cs  Cs3       1.0  0.74999  0.49379  1.00000  1.0000
  Cs  Cs4       1.0  0.25001  0.50621  0.00000  1.0000
  Li  Li1       1.0  0.93679  0.42754  0.33809  1.0000
  Li  Li2       1.0  0.56320  0.08943  0.66190  1.0000
  Li  Li3       1.0  0.06321  0.57246  0.66191  1.0000
  Li  Li4       1.0  0.43680  0.91057  0.33810  1.0000
  H   H1        1.0  0.90208  0.74408  0.74110  1.0000
  H   H2        1.0  0.59792  0.00297  0.25889  1.0000
  H   H3        1.0  0.09793  0.25592  0.25890  1.0000
  H   H4        1.0  0.40208  0.99703  0.74111  1.0000
  H   H5        1.0  0.09591  0.11849  0.66610  1.0000
  H   H6        1.0  0.40409  0.45240  0.33391  1.0000
  H   H7        1.0  0.90409  0.88151  0.33390  1.0000
  H   H8        1.0  0.59591  0.54760  0.66609  1.0000
  H   H9        1.0  0.03630  0.35620  0.11364  1.0000
  H   H10       1.0  0.46369  0.24256  0.88636  1.0000
  H   H11       1.0  0.96370  0.64380  0.88636  1.0000
  H   H12       1.0  0.53631  0.75744  0.11364  1.0000
  H   H13       1.0  0.15667  0.49775  0.28360  1.0000
  H   H14       1.0  0.34333  0.21415  0.71640  1.0000
  H   H15       1.0  0.84333  0.50225  0.71640  1.0000
  H   H16       1.0  0.65667  0.78585  0.28360  1.0000
  H   H17       1.0  0.72753  0.84903  0.58420  1.0000
  H   H18       1.0  0.77246  0.26483  0.41580  1.0000
  H   H19       1.0  0.27247  0.15097  0.41580  1.0000
  H   H20       1.0  0.22754  0.73517  0.58420  1.0000
  H   H21       1.0  0.84544  0.04568  0.56676  1.0000
  H   H22       1.0  0.65456  0.47891  0.43323  1.0000
  H   H23       1.0  0.15456  0.95432  0.43324  1.0000
  H   H24       1.0  0.34544  0.52109  0.56677  1.0000
  C   C1        1.0  0.87900  0.73764  0.48786  1.0000
  C   C2        1.0  0.62101  0.24978  0.51214  1.0000
  C   C3        1.0  0.12100  0.26236  0.51214  1.0000
  C   C4        1.0  0.37899  0.75022  0.48786  1.0000
  C   C5        1.0  0.85109  0.86372  0.62566  1.0000
  C   C6        1.0  0.64890  0.23805  0.37434  1.0000
  C   C7        1.0  0.14891  0.13628  0.37434  1.0000
  C   C8        1.0  0.35110  0.76195  0.62566  1.0000
  C   C9        1.0  0.91544  0.02812  0.66556  1.0000
  C   C10       1.0  0.58456  0.36255  0.33443  1.0000
  C   C11       1.0  0.08456  0.97188  0.33444  1.0000
  C   C12       1.0  0.41544  0.63745  0.66557  1.0000
  C   C13       1.0  0.89806  0.15202  0.81392  1.0000
  C   C14       1.0  0.60193  0.33809  0.18607  1.0000
  C   C15       1.0  0.10194  0.84798  0.18608  1.0000
  C   C16       1.0  0.39807  0.66191  0.81393  1.0000
  O   O1        1.0  0.82261  0.73763  0.35766  1.0000
  O   O2        1.0  0.67740  0.37998  0.64234  1.0000
  O   O3        1.0  0.17739  0.26237  0.64234  1.0000
  O   O4        1.0  0.32260  0.62002  0.35766  1.0000
  O   O5        1.0  0.95227  0.63796  0.50835  1.0000
  O   O6        1.0  0.54773  0.12961  0.49166  1.0000
  O   O7        1.0  0.04773  0.36204  0.49165  1.0000
  O   O8        1.0  0.45227  0.87039  0.50834  1.0000
  O   O9        1.0  0.91687  0.85489  0.76574  1.0000
  O   O10       1.0  0.58313  0.08915  0.23426  1.0000
  O   O11       1.0  0.08313  0.14511  0.23426  1.0000
  O   O12       1.0  0.41687  0.91085  0.76574  1.0000
  O   O13       1.0  0.06668  0.03521  0.68396  1.0000
  O   O14       1.0  0.43332  0.35125  0.31603  1.0000
  O   O15       1.0  0.93332  0.96479  0.31603  1.0000
  O   O16       1.0  0.56668  0.64875  0.68397  1.0000
  O   O17       1.0  0.01531  0.25147  0.93170  1.0000
  O   O18       1.0  0.48468  0.31977  0.06830  1.0000
  O   O19       1.0  0.98469  0.74853  0.06830  1.0000
  O   O20       1.0  0.51532  0.68023  0.93170  1.0000
  O   O21       1.0  0.76668  0.14580  0.80782  1.0000
  O   O22       1.0  0.73331  0.33797  0.19217  1.0000
  O   O23       1.0  0.23332  0.85420  0.19218  1.0000
  O   O24       1.0  0.26669  0.66203  0.80783  1.0000
  O   O25       1.0  0.06094  0.41858  0.22993  1.0000
  O   O26       1.0  0.43907  0.18865  0.77007  1.0000
  O   O27       1.0  0.93906  0.58142  0.77007  1.0000
  O   O28       1.0  0.56093  0.81135  0.22993  1.0000
