data_image0
_chemical_formula_structural       CdH12C22S2N14O2
_chemical_formula_sum              "Cd1 H12 C22 S2 N14 O2"
_cell_length_a       5.63871
_cell_length_b       8.56291
_cell_length_c       13.3881
_cell_angle_alpha    70.8904
_cell_angle_beta     83.0529
_cell_angle_gamma    86.7185

_space_group_name_H-M_alt    "P 1"
_space_group_IT_number       1

loop_
  _space_group_symop_operation_xyz
  'x, y, z'

loop_
  _atom_site_type_symbol
  _atom_site_label
  _atom_site_symmetry_multiplicity
  _atom_site_fract_x
  _atom_site_fract_y
  _atom_site_fract_z
  _atom_site_occupancy
  Cd  Cd1       1.0  0.50000  0.99999  1.00000  1.0000
  H   H1        1.0  0.71804  0.31196  0.80741  1.0000
  H   H2        1.0  0.28197  0.68803  0.19259  1.0000
  H   H3        1.0  0.68547  0.48234  0.61463  1.0000
  H   H4        1.0  0.31453  0.51766  0.38537  1.0000
  H   H5        1.0  0.14834  0.02769  0.80290  1.0000
  H   H6        1.0  0.85166  0.97231  0.19710  1.0000
  H   H7        1.0  0.50357  0.12113  0.38561  1.0000
  H   H8        1.0  0.49644  0.87887  0.61440  1.0000
  H   H9        1.0  0.62787  0.45636  0.08054  1.0000
  H   H10       1.0  0.37213  0.54363  0.91946  1.0000
  H   H11       1.0  0.97687  0.56820  0.13407  1.0000
  H   H12       1.0  0.02313  0.43180  0.86593  1.0000
  C   C1        1.0  0.58352  0.28740  0.76275  1.0000
  C   C2        1.0  0.41648  0.71260  0.23725  1.0000
  C   C3        1.0  0.56466  0.38069  0.65649  1.0000
  C   C4        1.0  0.43534  0.61931  0.34351  1.0000
  C   C5        1.0  0.25236  0.22425  0.65492  1.0000
  C   C6        1.0  0.74764  0.77575  0.34509  1.0000
  C   C7        1.0  0.26952  0.12905  0.76156  1.0000
  C   C8        1.0  0.73048  0.87095  0.23845  1.0000
  C   C9        1.0  0.07165  0.18893  0.59672  1.0000
  C   C10       1.0  0.92835  0.81108  0.40328  1.0000
  C   C11       1.0  0.87123  0.21800  0.46587  1.0000
  C   C12       1.0  0.12876  0.78200  0.53413  1.0000
  C   C13       1.0  0.80304  0.28659  0.35844  1.0000
  C   C14       1.0  0.19696  0.71342  0.64156  1.0000
  C   C15       1.0  0.60897  0.22205  0.32886  1.0000
  C   C16       1.0  0.39103  0.77795  0.67115  1.0000
  C   C17       1.0  0.67730  0.40570  0.16150  1.0000
  C   C18       1.0  0.32271  0.59430  0.83850  1.0000
  C   C19       1.0  0.87141  0.46856  0.19126  1.0000
  C   C20       1.0  0.12859  0.53144  0.80873  1.0000
  C   C21       1.0  0.97996  0.18346  0.02348  1.0000
  C   C22       1.0  0.02002  0.81654  0.97651  1.0000
  S   S1        1.0  0.20771  0.20502  0.08132  1.0000
  S   S2        1.0  0.79229  0.79498  0.91867  1.0000
  N   N1        1.0  0.43583  0.16186  0.81482  1.0000
  N   N2        1.0  0.56418  0.83814  0.18518  1.0000
  N   N3        1.0  0.39953  0.34985  0.60221  1.0000
  N   N4        1.0  0.60046  0.65016  0.39779  1.0000
  N   N5        1.0  0.91132  0.07267  0.62944  1.0000
  N   N6        1.0  0.08868  0.92733  0.37056  1.0000
  N   N7        1.0  0.78158  0.09136  0.54468  1.0000
  N   N8        1.0  0.21841  0.90864  0.45532  1.0000
  N   N9        1.0  0.93520  0.41064  0.28976  1.0000
  N   N10       1.0  0.06480  0.58936  0.71024  1.0000
  N   N11       1.0  0.54675  0.28204  0.22985  1.0000
  N   N12       1.0  0.45325  0.71796  0.77015  1.0000
  N   N13       1.0  0.80948  0.17195  0.98229  1.0000
  N   N14       1.0  0.19054  0.82806  0.01771  1.0000
  O   O1        1.0  0.05620  0.28587  0.49359  1.0000
  O   O2        1.0  0.94379  0.71413  0.50642  1.0000
