data_image0
_chemical_formula_structural       Zn2H28C26Br4N4
_chemical_formula_sum              "Zn2 H28 C26 Br4 N4"
_cell_length_a       5.39475
_cell_length_b       10.1398
_cell_length_c       13.0256
_cell_angle_alpha    89.9961
_cell_angle_beta     90.0027
_cell_angle_gamma    90.6773

_space_group_name_H-M_alt    "P 1"
_space_group_IT_number       1

loop_
  _space_group_symop_operation_xyz
  'x, y, z'

loop_
  _atom_site_type_symbol
  _atom_site_label
  _atom_site_symmetry_multiplicity
  _atom_site_fract_x
  _atom_site_fract_y
  _atom_site_fract_z
  _atom_site_occupancy
  Zn  Zn1       1.0  0.43419  0.70809  0.75001  1.0000
  Zn  Zn2       1.0  0.56581  0.29189  0.24999  1.0000
  H   H1        1.0  0.12460  0.80912  0.25000  1.0000
  H   H2        1.0  0.87540  0.19094  0.75000  1.0000
  H   H3        1.0  0.95098  0.66027  0.25001  1.0000
  H   H4        1.0  0.04911  0.33976  0.75000  1.0000
  H   H5        1.0  0.77033  0.91967  0.34295  1.0000
  H   H6        1.0  0.22963  0.08033  0.84298  1.0000
  H   H7        1.0  0.22964  0.08033  0.65705  1.0000
  H   H8        1.0  0.77035  0.91967  0.15701  1.0000
  H   H9        1.0  0.61647  0.76390  0.35153  1.0000
  H   H10       1.0  0.38352  0.23609  0.85155  1.0000
  H   H11       1.0  0.38353  0.23609  0.64847  1.0000
  H   H12       1.0  0.61648  0.76390  0.14845  1.0000
  H   H13       1.0  0.21401  0.94076  0.41557  1.0000
  H   H14       1.0  0.78599  0.05925  0.91557  1.0000
  H   H15       1.0  0.78599  0.05925  0.58444  1.0000
  H   H16       1.0  0.21402  0.94075  0.08442  1.0000
  H   H17       1.0  0.45793  0.88986  0.57483  1.0000
  H   H18       1.0  0.54208  0.11013  0.07483  1.0000
  H   H19       1.0  0.54208  0.11013  0.42517  1.0000
  H   H20       1.0  0.45793  0.88986  0.92517  1.0000
  H   H21       1.0  0.98959  0.57673  0.64786  1.0000
  H   H22       1.0  0.01040  0.42326  0.14785  1.0000
  H   H23       1.0  0.01038  0.42327  0.35214  1.0000
  H   H24       1.0  0.98960  0.57673  0.85215  1.0000
  H   H25       1.0  0.72857  0.61461  0.49395  1.0000
  H   H26       1.0  0.27141  0.38540  0.99395  1.0000
  H   H27       1.0  0.27141  0.38540  0.50605  1.0000
  H   H28       1.0  0.72859  0.61460  0.00605  1.0000
  C   C1        1.0  0.93464  0.76822  0.24999  1.0000
  C   C2        1.0  0.06539  0.23180  0.75000  1.0000
  C   C3        1.0  0.79946  0.81244  0.34756  1.0000
  C   C4        1.0  0.20053  0.18756  0.84758  1.0000
  C   C5        1.0  0.20053  0.18757  0.65244  1.0000
  C   C6        1.0  0.79947  0.81244  0.15242  1.0000
  C   C7        1.0  0.94791  0.78257  0.44187  1.0000
  C   C8        1.0  0.05209  0.21744  0.94188  1.0000
  C   C9        1.0  0.05208  0.21744  0.55813  1.0000
  C   C10       1.0  0.94792  0.78256  0.05812  1.0000
  C   C11       1.0  0.15852  0.85925  0.46558  1.0000
  C   C12       1.0  0.84147  0.14076  0.96558  1.0000
  C   C13       1.0  0.84148  0.14076  0.53442  1.0000
  C   C14       1.0  0.15853  0.85924  0.03441  1.0000
  C   C15       1.0  0.29463  0.83192  0.55295  1.0000
  C   C16       1.0  0.70538  0.16806  0.05295  1.0000
  C   C17       1.0  0.70536  0.16807  0.44705  1.0000
  C   C18       1.0  0.29462  0.83192  0.94705  1.0000
  C   C19       1.0  0.03515  0.65623  0.59447  1.0000
  C   C20       1.0  0.96484  0.34376  0.09447  1.0000
  C   C21       1.0  0.96484  0.34377  0.40553  1.0000
  C   C22       1.0  0.03516  0.65623  0.90554  1.0000
  C   C23       1.0  0.88935  0.67816  0.50820  1.0000
  C   C24       1.0  0.11064  0.32184  0.00820  1.0000
  C   C25       1.0  0.11064  0.32185  0.49180  1.0000
  C   C26       1.0  0.88936  0.67815  0.99180  1.0000
  Br  Br1       1.0  0.55958  0.48304  0.75005  1.0000
  Br  Br2       1.0  0.44043  0.51694  0.24996  1.0000
  Br  Br3       1.0  0.72728  0.88971  0.75000  1.0000
  Br  Br4       1.0  0.27271  0.11027  0.25000  1.0000
  N   N1        1.0  0.23352  0.73256  0.61739  1.0000
  N   N2        1.0  0.76648  0.26742  0.11738  1.0000
  N   N3        1.0  0.76648  0.26743  0.38261  1.0000
  N   N4        1.0  0.23352  0.73257  0.88262  1.0000
