data_image0
_chemical_formula_structural       ZnH30C26N4O6
_chemical_formula_sum              "Zn1 H30 C26 N4 O6"
_cell_length_a       6.78228
_cell_length_b       8.0639
_cell_length_c       12.6447
_cell_angle_alpha    108.222
_cell_angle_beta     105.561
_cell_angle_gamma    90.0152

_space_group_name_H-M_alt    "P 1"
_space_group_IT_number       1

loop_
  _space_group_symop_operation_xyz
  'x, y, z'

loop_
  _atom_site_type_symbol
  _atom_site_label
  _atom_site_symmetry_multiplicity
  _atom_site_fract_x
  _atom_site_fract_y
  _atom_site_fract_z
  _atom_site_occupancy
  Zn  Zn1       1.0  0.27809  0.49992  0.99999  1.0000
  H   H1        1.0  0.30371  0.87683  0.38264  1.0000
  H   H2        1.0  0.92138  0.12299  0.61730  1.0000
  H   H3        1.0  0.87807  0.68036  0.25127  1.0000
  H   H4        1.0  0.62722  0.31945  0.74864  1.0000
  H   H5        1.0  0.40814  0.59109  0.40288  1.0000
  H   H6        1.0  0.00571  0.40853  0.59682  1.0000
  H   H7        1.0  0.15270  0.49460  0.33344  1.0000
  H   H8        1.0  0.81979  0.50521  0.66622  1.0000
  H   H9        1.0  0.86657  0.61082  0.43801  1.0000
  H   H10       1.0  0.42922  0.38941  0.56186  1.0000
  H   H11       1.0  0.93905  0.78153  0.57320  1.0000
  H   H12       1.0  0.36592  0.21869  0.42670  1.0000
  H   H13       1.0  0.02249  0.98819  0.47760  1.0000
  H   H14       1.0  0.54460  0.01184  0.52217  1.0000
  H   H15       1.0  0.76674  0.88986  0.40967  1.0000
  H   H16       1.0  0.35709  0.11041  0.59022  1.0000
  H   H17       1.0  0.21846  0.57924  0.54736  1.0000
  H   H18       1.0  0.67159  0.42054  0.45236  1.0000
  H   H19       1.0  0.30002  0.79614  0.56469  1.0000
  H   H20       1.0  0.73537  0.20357  0.43502  1.0000
  H   H21       1.0  0.63125  0.87833  0.22167  1.0000
  H   H22       1.0  0.40998  0.12137  0.77822  1.0000
  H   H23       1.0  0.92104  0.19541  0.13960  1.0000
  H   H24       1.0  0.78205  0.80465  0.86051  1.0000
  H   H25       1.0  0.34829  0.02572  0.18004  1.0000
  H   H26       1.0  0.16914  0.97467  0.82065  1.0000
  H   H27       1.0  0.18171  0.23828  0.08827  1.0000
  H   H28       1.0  0.09448  0.76210  0.91249  1.0000
  H   H29       1.0  0.73164  0.40329  0.05028  1.0000
  H   H30       1.0  0.68218  0.59689  0.95000  1.0000
  C   C1        1.0  0.27158  0.69366  0.21680  1.0000
  C   C2        1.0  0.05502  0.30634  0.78309  1.0000
  C   C3        1.0  0.20476  0.75652  0.32707  1.0000
  C   C4        1.0  0.87800  0.24334  0.67276  1.0000
  C   C5        1.0  0.98075  0.79910  0.30747  1.0000
  C   C6        1.0  0.67352  0.20077  0.69233  1.0000
  C   C7        1.0  0.24603  0.61841  0.38970  1.0000
  C   C8        1.0  0.85672  0.38133  0.61000  1.0000
  C   C9        1.0  0.97248  0.72972  0.48898  1.0000
  C   C10       1.0  0.48375  0.27035  0.51087  1.0000
  C   C11       1.0  0.92895  0.86327  0.42446  1.0000
  C   C12       1.0  0.50455  0.13681  0.57539  1.0000
  C   C13       1.0  0.19387  0.68118  0.50549  1.0000
  C   C14       1.0  0.68864  0.31859  0.49423  1.0000
  C   C15       1.0  0.94060  0.93916  0.24884  1.0000
  C   C16       1.0  0.69203  0.06062  0.75095  1.0000
  C   C17       1.0  0.64988  0.08807  0.16428  1.0000
  C   C18       1.0  0.48623  0.91202  0.83595  1.0000
  C   C19       1.0  0.75730  0.20016  0.12840  1.0000
  C   C20       1.0  0.62954  0.79995  0.87180  1.0000
  C   C21       1.0  0.43872  0.10440  0.15072  1.0000
  C   C22       1.0  0.28882  0.89585  0.84979  1.0000
  C   C23       1.0  0.34521  0.22382  0.10038  1.0000
  C   C24       1.0  0.24577  0.77651  0.90022  1.0000
  C   C25       1.0  0.65033  0.31634  0.07874  1.0000
  C   C26       1.0  0.57238  0.68380  0.92157  1.0000
  N   N1        1.0  0.73551  0.96247  0.21148  1.0000
  N   N2        1.0  0.52442  0.03730  0.78843  1.0000
  N   N3        1.0  0.44673  0.32843  0.06319  1.0000
  N   N4        1.0  0.38437  0.67175  0.93723  1.0000
  O   O1        1.0  0.45747  0.72129  0.22152  1.0000
  O   O2        1.0  0.23624  0.27874  0.77851  1.0000
  O   O3        1.0  0.13467  0.60453  0.12266  1.0000
  O   O4        1.0  0.01208  0.39559  0.87715  1.0000
  O   O5        1.0  0.07948  0.02941  0.24028  1.0000
  O   O6        1.0  0.83951  0.97047  0.75950  1.0000
