data_image0
_chemical_formula_structural       Cu4H24C24N8O24
_chemical_formula_sum              "Cu4 H24 C24 N8 O24"
_cell_length_a       6.66901
_cell_length_b       6.76745
_cell_length_c       18.564
_cell_angle_alpha    90
_cell_angle_beta     89.9999
_cell_angle_gamma    110.589

_space_group_name_H-M_alt    "P 1"
_space_group_IT_number       1

loop_
  _space_group_symop_operation_xyz
  'x, y, z'

loop_
  _atom_site_type_symbol
  _atom_site_label
  _atom_site_symmetry_multiplicity
  _atom_site_fract_x
  _atom_site_fract_y
  _atom_site_fract_z
  _atom_site_occupancy
  Cu  Cu1       1.0  0.15837  0.99112  0.37316  1.0000
  Cu  Cu2       1.0  0.34163  0.00889  0.87316  1.0000
  Cu  Cu3       1.0  0.84162  0.00888  0.62684  1.0000
  Cu  Cu4       1.0  0.65838  0.99112  0.12684  1.0000
  H   H1        1.0  0.24516  0.33526  0.48220  1.0000
  H   H2        1.0  0.25484  0.66474  0.98220  1.0000
  H   H3        1.0  0.75484  0.66474  0.51780  1.0000
  H   H4        1.0  0.74516  0.33526  0.01780  1.0000
  H   H5        1.0  0.06838  0.27732  0.26414  1.0000
  H   H6        1.0  0.43162  0.72269  0.76414  1.0000
  H   H7        1.0  0.93161  0.72268  0.73586  1.0000
  H   H8        1.0  0.56838  0.27731  0.23586  1.0000
  H   H9        1.0  0.74832  0.76643  0.37388  1.0000
  H   H10       1.0  0.75169  0.23357  0.87388  1.0000
  H   H11       1.0  0.25168  0.23357  0.62612  1.0000
  H   H12       1.0  0.24831  0.76643  0.12612  1.0000
  H   H13       1.0  0.79721  0.94890  0.43913  1.0000
  H   H14       1.0  0.70279  0.05110  0.93913  1.0000
  H   H15       1.0  0.20279  0.05110  0.56087  1.0000
  H   H16       1.0  0.29721  0.94890  0.06087  1.0000
  H   H17       1.0  0.56384  0.19247  0.37856  1.0000
  H   H18       1.0  0.93617  0.80753  0.87856  1.0000
  H   H19       1.0  0.43616  0.80753  0.62144  1.0000
  H   H20       1.0  0.06384  0.19247  0.12144  1.0000
  H   H21       1.0  0.51555  0.00991  0.31368  1.0000
  H   H22       1.0  0.98446  0.99008  0.81368  1.0000
  H   H23       1.0  0.48446  0.99008  0.68632  1.0000
  H   H24       1.0  0.01554  0.00991  0.18632  1.0000
  C   C1        1.0  0.26844  0.74922  0.50055  1.0000
  C   C2        1.0  0.23156  0.25078  0.00055  1.0000
  C   C3        1.0  0.73156  0.25078  0.49945  1.0000
  C   C4        1.0  0.76844  0.74922  0.99945  1.0000
  C   C5        1.0  0.21600  0.61367  0.43312  1.0000
  C   C6        1.0  0.28400  0.38633  0.93312  1.0000
  C   C7        1.0  0.78400  0.38633  0.56688  1.0000
  C   C8        1.0  0.71600  0.61367  0.06688  1.0000
  C   C9        1.0  0.20956  0.40507  0.43320  1.0000
  C   C10       1.0  0.29044  0.59493  0.93321  1.0000
  C   C11       1.0  0.79044  0.59492  0.56680  1.0000
  C   C12       1.0  0.70956  0.40507  0.06680  1.0000
  C   C13       1.0  0.11119  0.37260  0.31305  1.0000
  C   C14       1.0  0.38881  0.62740  0.81305  1.0000
  C   C15       1.0  0.88881  0.62740  0.68695  1.0000
  C   C16       1.0  0.61119  0.37259  0.18695  1.0000
  C   C17       1.0  0.12334  0.58318  0.31234  1.0000
  C   C18       1.0  0.37666  0.41682  0.81234  1.0000
  C   C19       1.0  0.87666  0.41681  0.68766  1.0000
  C   C20       1.0  0.62334  0.58318  0.18766  1.0000
  C   C21       1.0  0.09883  0.69475  0.24368  1.0000
  C   C22       1.0  0.40117  0.30525  0.74368  1.0000
  C   C23       1.0  0.90117  0.30524  0.75632  1.0000
  C   C24       1.0  0.59883  0.69475  0.25632  1.0000
  N   N1        1.0  0.17037  0.69750  0.37280  1.0000
  N   N2        1.0  0.32963  0.30250  0.87280  1.0000
  N   N3        1.0  0.82962  0.30250  0.62720  1.0000
  N   N4        1.0  0.67038  0.69750  0.12720  1.0000
  N   N5        1.0  0.15264  0.28553  0.37369  1.0000
  N   N6        1.0  0.34736  0.71447  0.87369  1.0000
  N   N7        1.0  0.84736  0.71447  0.62631  1.0000
  N   N8        1.0  0.65264  0.28553  0.12631  1.0000
  O   O1        1.0  0.31166  0.66508  0.55612  1.0000
  O   O2        1.0  0.18833  0.33493  0.05612  1.0000
  O   O3        1.0  0.68833  0.33492  0.44388  1.0000
  O   O4        1.0  0.81167  0.66508  0.94388  1.0000
  O   O5        1.0  0.25863  0.93252  0.49437  1.0000
  O   O6        1.0  0.24137  0.06748  0.99437  1.0000
  O   O7        1.0  0.74136  0.06748  0.50563  1.0000
  O   O8        1.0  0.75864  0.93252  0.00563  1.0000
  O   O9        1.0  0.07648  0.87246  0.25149  1.0000
  O   O10       1.0  0.42352  0.12754  0.75149  1.0000
  O   O11       1.0  0.92352  0.12754  0.74851  1.0000
  O   O12       1.0  0.57648  0.87246  0.24851  1.0000
  O   O13       1.0  0.10803  0.60318  0.18538  1.0000
  O   O14       1.0  0.39197  0.39682  0.68538  1.0000
  O   O15       1.0  0.89197  0.39681  0.81462  1.0000
  O   O16       1.0  0.60803  0.60318  0.31462  1.0000
  O   O17       1.0  0.85808  0.86082  0.40822  1.0000
  O   O18       1.0  0.64192  0.13918  0.90822  1.0000
  O   O19       1.0  0.14192  0.13918  0.59178  1.0000
  O   O20       1.0  0.35808  0.86082  0.09178  1.0000
  O   O21       1.0  0.46217  0.11347  0.33876  1.0000
  O   O22       1.0  0.03783  0.88654  0.83876  1.0000
  O   O23       1.0  0.53783  0.88653  0.66124  1.0000
  O   O24       1.0  0.96217  0.11346  0.16124  1.0000
