data_image0
_chemical_formula_structural       Bi4H6C14N2O12
_chemical_formula_sum              "Bi4 H6 C14 N2 O12"
_cell_length_a       4.25892
_cell_length_b       9.67878
_cell_length_c       12.0637
_cell_angle_alpha    109.757
_cell_angle_beta     89.9988
_cell_angle_gamma    89.9999

_space_group_name_H-M_alt    "P 1"
_space_group_IT_number       1

loop_
  _space_group_symop_operation_xyz
  'x, y, z'

loop_
  _atom_site_type_symbol
  _atom_site_label
  _atom_site_symmetry_multiplicity
  _atom_site_fract_x
  _atom_site_fract_y
  _atom_site_fract_z
  _atom_site_occupancy
  Bi  Bi1       1.0  0.79469  0.65065  0.86624  1.0000
  Bi  Bi2       1.0  0.29459  0.34937  0.13373  1.0000
  Bi  Bi3       1.0  0.32676  0.96001  0.87130  1.0000
  Bi  Bi4       1.0  0.82676  0.03999  0.12870  1.0000
  H   H1        1.0  0.03443  0.12405  0.71221  1.0000
  H   H2        1.0  0.53443  0.87595  0.28780  1.0000
  H   H3        1.0  0.02064  0.07200  0.49350  1.0000
  H   H4        1.0  0.52063  0.92800  0.50651  1.0000
  H   H5        1.0  0.58034  0.46103  0.54987  1.0000
  H   H6        1.0  0.08035  0.53896  0.45013  1.0000
  C   C1        1.0  0.33845  0.31296  0.74218  1.0000
  C   C2        1.0  0.83846  0.68705  0.25782  1.0000
  C   C3        1.0  0.15896  0.19417  0.67289  1.0000
  C   C4        1.0  0.65898  0.80582  0.32711  1.0000
  C   C5        1.0  0.14718  0.16639  0.55208  1.0000
  C   C6        1.0  0.64717  0.83361  0.44794  1.0000
  C   C7        1.0  0.30212  0.26090  0.50468  1.0000
  C   C8        1.0  0.80213  0.73910  0.49533  1.0000
  C   C9        1.0  0.46101  0.38227  0.58194  1.0000
  C   C10       1.0  0.96102  0.61773  0.41806  1.0000
  C   C11       1.0  0.38724  0.34173  0.87164  1.0000
  C   C12       1.0  0.88724  0.65828  0.12836  1.0000
  C   C13       1.0  0.30400  0.22840  0.37340  1.0000
  C   C14       1.0  0.80402  0.77160  0.62660  1.0000
  N   N1        1.0  0.48466  0.40600  0.69746  1.0000
  N   N2        1.0  0.98468  0.59400  0.30253  1.0000
  O   O1        1.0  0.56480  0.44430  0.92926  1.0000
  O   O2        1.0  0.06480  0.55570  0.07074  1.0000
  O   O3        1.0  0.24375  0.25691  0.91745  1.0000
  O   O4        1.0  0.74377  0.74309  0.08256  1.0000
  O   O5        1.0  0.35546  0.33555  0.33685  1.0000
  O   O6        1.0  0.85547  0.66444  0.66315  1.0000
  O   O7        1.0  0.25662  0.09572  0.30970  1.0000
  O   O8        1.0  0.75665  0.90428  0.69031  1.0000
  O   O9        1.0  0.32748  0.73817  0.86845  1.0000
  O   O10       1.0  0.82743  0.26183  0.13153  1.0000
  O   O11       1.0  0.82651  0.92407  0.93526  1.0000
  O   O12       1.0  0.32650  0.07591  0.06472  1.0000
