data_image0
_chemical_formula_structural       Ag5H16C25N9
_chemical_formula_sum              "Ag5 H16 C25 N9"
_cell_length_a       8.59572
_cell_length_b       8.89249
_cell_length_c       9.22463
_cell_angle_alpha    73.1579
_cell_angle_beta     76.2516
_cell_angle_gamma    80.517

_space_group_name_H-M_alt    "P 1"
_space_group_IT_number       1

loop_
  _space_group_symop_operation_xyz
  'x, y, z'

loop_
  _atom_site_type_symbol
  _atom_site_label
  _atom_site_symmetry_multiplicity
  _atom_site_fract_x
  _atom_site_fract_y
  _atom_site_fract_z
  _atom_site_occupancy
  Ag  Ag1       1.0  0.32370  0.23140  0.31608  1.0000
  Ag  Ag2       1.0  0.97552  0.23177  0.52577  1.0000
  Ag  Ag3       1.0  0.22885  0.62752  0.67315  1.0000
  Ag  Ag4       1.0  0.87913  0.61301  0.89368  1.0000
  Ag  Ag5       1.0  0.60125  0.42175  0.10385  1.0000
  H   H1        1.0  0.14132  0.33317  0.03429  1.0000
  H   H2        1.0  0.09603  0.22351  0.83016  1.0000
  H   H3        1.0  0.20708  0.94309  0.83033  1.0000
  H   H4        1.0  0.36535  0.79016  0.02890  1.0000
  H   H5        1.0  0.43003  0.66060  0.23597  1.0000
  H   H6        1.0  0.60548  0.53524  0.42638  1.0000
  H   H7        1.0  0.70797  0.70577  0.54976  1.0000
  H   H8        1.0  0.62849  0.99952  0.47295  1.0000
  H   H9        1.0  0.05677  0.50907  0.17852  1.0000
  H   H10       1.0  0.10951  0.62210  0.37767  1.0000
  H   H11       1.0  0.00557  0.90552  0.37153  1.0000
  H   H12       1.0  0.84798  0.05771  0.17328  1.0000
  H   H13       1.0  0.77519  0.18515  0.97156  1.0000
  H   H14       1.0  0.60247  0.31056  0.77904  1.0000
  H   H15       1.0  0.50396  0.14097  0.65211  1.0000
  H   H16       1.0  0.58395  0.84717  0.72844  1.0000
  C   C1        1.0  0.30264  0.36186  0.46764  1.0000
  C   C2        1.0  0.75788  0.32849  0.24788  1.0000
  C   C3        1.0  0.44629  0.50930  0.95736  1.0000
  C   C4        1.0  0.12658  0.85652  0.61550  1.0000
  C   C5        1.0  0.89986  0.48065  0.74472  1.0000
  C   C6        1.0  0.18943  0.21296  0.03004  1.0000
  C   C7        1.0  0.16341  0.15086  0.91654  1.0000
  C   C8        1.0  0.22576  0.99591  0.91691  1.0000
  C   C9        1.0  0.31343  0.91039  0.02859  1.0000
  C   C10       1.0  0.33799  0.98112  0.13743  1.0000
  C   C11       1.0  0.43730  0.89712  0.25372  1.0000
  C   C12       1.0  0.47684  0.73330  0.28934  1.0000
  C   C13       1.0  0.57361  0.66249  0.39760  1.0000
  C   C14       1.0  0.62881  0.75694  0.46755  1.0000
  C   C15       1.0  0.58411  0.91937  0.42586  1.0000
  C   C16       1.0  0.01269  0.63082  0.18003  1.0000
  C   C17       1.0  0.04263  0.69452  0.29076  1.0000
  C   C18       1.0  0.98432  0.85103  0.28724  1.0000
  C   C19       1.0  0.89670  0.93639  0.17548  1.0000
  C   C20       1.0  0.86853  0.86431  0.06922  1.0000
  C   C21       1.0  0.77023  0.94872  0.95211  1.0000
  C   C22       1.0  0.73027  0.11245  0.91681  1.0000
  C   C23       1.0  0.63504  0.18347  0.80726  1.0000
  C   C24       1.0  0.58167  0.08949  0.73558  1.0000
  C   C25       1.0  0.62656  0.92714  0.77707  1.0000
  N   N1        1.0  0.29724  0.43481  0.55668  1.0000
  N   N2        1.0  0.84912  0.27927  0.33095  1.0000
  N   N3        1.0  0.36022  0.54867  0.86893  1.0000
  N   N4        1.0  0.07439  0.99004  0.59144  1.0000
  N   N5        1.0  0.90996  0.40951  0.65320  1.0000
  N   N6        1.0  0.27448  0.13113  0.13805  1.0000
  N   N7        1.0  0.49036  0.98770  0.32296  1.0000
  N   N8        1.0  0.92826  0.71280  0.07160  1.0000
  N   N9        1.0  0.71846  0.85862  0.88150  1.0000
