data_image0
_chemical_formula_structural       Ni4H20C20N8Cl4O12
_chemical_formula_sum              "Ni4 H20 C20 N8 Cl4 O12"
_cell_length_a       7.55722
_cell_length_b       10.398
_cell_length_c       11.1106
_cell_angle_alpha    89.9996
_cell_angle_beta     89.9997
_cell_angle_gamma    90.001

_space_group_name_H-M_alt    "P 1"
_space_group_IT_number       1

loop_
  _space_group_symop_operation_xyz
  'x, y, z'

loop_
  _atom_site_type_symbol
  _atom_site_label
  _atom_site_symmetry_multiplicity
  _atom_site_fract_x
  _atom_site_fract_y
  _atom_site_fract_z
  _atom_site_occupancy
  Ni  Ni1       1.0  0.26851  0.77588  0.67517  1.0000
  Ni  Ni2       1.0  0.76852  0.22412  0.32483  1.0000
  Ni  Ni3       1.0  0.26852  0.27588  0.82483  1.0000
  Ni  Ni4       1.0  0.76850  0.72412  0.17517  1.0000
  H   H1        1.0  0.50235  0.82379  0.86121  1.0000
  H   H2        1.0  0.00235  0.17621  0.13879  1.0000
  H   H3        1.0  0.50238  0.32380  0.63880  1.0000
  H   H4        1.0  0.00236  0.67622  0.36120  1.0000
  H   H5        1.0  0.44688  0.94644  0.78619  1.0000
  H   H6        1.0  0.94688  0.05356  0.21380  1.0000
  H   H7        1.0  0.44689  0.44645  0.71381  1.0000
  H   H8        1.0  0.94688  0.55357  0.28619  1.0000
  H   H9        1.0  0.01100  0.96897  0.81595  1.0000
  H   H10       1.0  0.51101  0.03103  0.18405  1.0000
  H   H11       1.0  0.01103  0.46897  0.68404  1.0000
  H   H12       1.0  0.51101  0.53102  0.31595  1.0000
  H   H13       1.0  0.03667  0.57045  0.04565  1.0000
  H   H14       1.0  0.53669  0.42956  0.95436  1.0000
  H   H15       1.0  0.03670  0.07044  0.45435  1.0000
  H   H16       1.0  0.53668  0.92955  0.54564  1.0000
  H   H17       1.0  0.83576  0.94104  0.00528  1.0000
  H   H18       1.0  0.33577  0.05896  0.99471  1.0000
  H   H19       1.0  0.83580  0.44105  0.49471  1.0000
  H   H20       1.0  0.33577  0.55895  0.50529  1.0000
  C   C1        1.0  0.23112  0.56581  0.83656  1.0000
  C   C2        1.0  0.73112  0.43420  0.16344  1.0000
  C   C3        1.0  0.23114  0.06580  0.66343  1.0000
  C   C4        1.0  0.73114  0.93420  0.33657  1.0000
  C   C5        1.0  0.01718  0.87920  0.86590  1.0000
  C   C6        1.0  0.51719  0.12079  0.13409  1.0000
  C   C7        1.0  0.01719  0.37920  0.63411  1.0000
  C   C8        1.0  0.51719  0.62079  0.36590  1.0000
  C   C9        1.0  0.12435  0.67349  0.88805  1.0000
  C   C10       1.0  0.62436  0.32652  0.11196  1.0000
  C   C11       1.0  0.12436  0.17348  0.61196  1.0000
  C   C12       1.0  0.62435  0.82651  0.38805  1.0000
  C   C13       1.0  0.03052  0.65948  0.99457  1.0000
  C   C14       1.0  0.53053  0.34053  0.00543  1.0000
  C   C15       1.0  0.03054  0.15948  0.50543  1.0000
  C   C16       1.0  0.53054  0.84051  0.49457  1.0000
  C   C17       1.0  0.92102  0.86473  0.97188  1.0000
  C   C18       1.0  0.42104  0.13526  0.02811  1.0000
  C   C19       1.0  0.92105  0.36474  0.52812  1.0000
  C   C20       1.0  0.42104  0.63525  0.47189  1.0000
  N   N1        1.0  0.11795  0.78333  0.82389  1.0000
  N   N2        1.0  0.61797  0.21668  0.17611  1.0000
  N   N3        1.0  0.11796  0.28332  0.67611  1.0000
  N   N4        1.0  0.61796  0.71666  0.32389  1.0000
  N   N5        1.0  0.92755  0.75491  0.03535  1.0000
  N   N6        1.0  0.42757  0.24509  0.96465  1.0000
  N   N7        1.0  0.92757  0.25491  0.46465  1.0000
  N   N8        1.0  0.42757  0.74508  0.53536  1.0000
  Cl  Cl1       1.0  0.01665  0.70341  0.55745  1.0000
  Cl  Cl2       1.0  0.51666  0.29659  0.44256  1.0000
  Cl  Cl3       1.0  0.01664  0.20341  0.94254  1.0000
  Cl  Cl4       1.0  0.51663  0.79659  0.05746  1.0000
  O   O1        1.0  0.32131  0.59088  0.74184  1.0000
  O   O2        1.0  0.82133  0.40913  0.25816  1.0000
  O   O3        1.0  0.32133  0.09088  0.75816  1.0000
  O   O4        1.0  0.82132  0.90912  0.24183  1.0000
  O   O5        1.0  0.48671  0.85591  0.77764  1.0000
  O   O6        1.0  0.98671  0.14409  0.22236  1.0000
  O   O7        1.0  0.48672  0.35592  0.72237  1.0000
  O   O8        1.0  0.98672  0.64409  0.27763  1.0000
  O   O9        1.0  0.21914  0.45835  0.88887  1.0000
  O   O10       1.0  0.71913  0.54165  0.11114  1.0000
  O   O11       1.0  0.21915  0.95836  0.61113  1.0000
  O   O12       1.0  0.71915  0.04165  0.38887  1.0000
