data_image0
_chemical_formula_structural       Ni4H20C20N8Cl4O12
_chemical_formula_sum              "Ni4 H20 C20 N8 Cl4 O12"
_cell_length_a       6.71986
_cell_length_b       10.4176
_cell_length_c       11.4416
_cell_angle_alpha    89.9994
_cell_angle_beta     87.7814
_cell_angle_gamma    89.9995

_space_group_name_H-M_alt    "P 1"
_space_group_IT_number       1

loop_
  _space_group_symop_operation_xyz
  'x, y, z'

loop_
  _atom_site_type_symbol
  _atom_site_label
  _atom_site_symmetry_multiplicity
  _atom_site_fract_x
  _atom_site_fract_y
  _atom_site_fract_z
  _atom_site_occupancy
  Ni  Ni1       1.0  0.27485  0.77928  0.70238  1.0000
  Ni  Ni2       1.0  0.77881  0.22577  0.30151  1.0000
  Ni  Ni3       1.0  0.27880  0.27422  0.80151  1.0000
  Ni  Ni4       1.0  0.77485  0.72073  0.20237  1.0000
  H   H1        1.0  0.00544  0.55724  0.04532  1.0000
  H   H2        1.0  0.50966  0.44794  0.95706  1.0000
  H   H3        1.0  0.00965  0.05205  0.45707  1.0000
  H   H4        1.0  0.50546  0.94277  0.54533  1.0000
  H   H5        1.0  0.85733  0.94605  0.05152  1.0000
  H   H6        1.0  0.39225  0.05495  0.95071  1.0000
  H   H7        1.0  0.89226  0.44504  0.45069  1.0000
  H   H8        1.0  0.35731  0.55397  0.55153  1.0000
  H   H9        1.0  0.03473  0.97762  0.85918  1.0000
  H   H10       1.0  0.54074  0.02940  0.14565  1.0000
  H   H11       1.0  0.04075  0.47060  0.64563  1.0000
  H   H12       1.0  0.53471  0.52239  0.35919  1.0000
  H   H13       1.0  0.97483  0.69426  0.49495  1.0000
  H   H14       1.0  0.52313  0.29150  0.49714  1.0000
  H   H15       1.0  0.02314  0.20849  0.99714  1.0000
  H   H16       1.0  0.47482  0.80574  0.99496  1.0000
  H   H17       1.0  0.86141  0.73894  0.61243  1.0000
  H   H18       1.0  0.40529  0.23068  0.39389  1.0000
  H   H19       1.0  0.90529  0.26932  0.89389  1.0000
  H   H20       1.0  0.36141  0.76104  0.11243  1.0000
  C   C1        1.0  0.20323  0.56243  0.82907  1.0000
  C   C2        1.0  0.69829  0.44824  0.17301  1.0000
  C   C3        1.0  0.19828  0.05176  0.67302  1.0000
  C   C4        1.0  0.70324  0.93757  0.32908  1.0000
  C   C5        1.0  0.10469  0.66757  0.89589  1.0000
  C   C6        1.0  0.60382  0.34082  0.10715  1.0000
  C   C7        1.0  0.10381  0.15918  0.60715  1.0000
  C   C8        1.0  0.60471  0.83242  0.39590  1.0000
  C   C9        1.0  0.00749  0.65061  0.00303  1.0000
  C   C10       1.0  0.51702  0.35487  0.99979  1.0000
  C   C11       1.0  0.01701  0.14513  0.49979  1.0000
  C   C12       1.0  0.50751  0.84940  0.50304  1.0000
  C   C13       1.0  0.92677  0.86546  0.00574  1.0000
  C   C14       1.0  0.45080  0.13750  0.99650  1.0000
  C   C15       1.0  0.95081  0.36249  0.49650  1.0000
  C   C16       1.0  0.42678  0.63455  0.50575  1.0000
  C   C17       1.0  0.02708  0.88274  0.89812  1.0000
  C   C18       1.0  0.53577  0.12365  0.10506  1.0000
  C   C19       1.0  0.03577  0.37635  0.60505  1.0000
  C   C20       1.0  0.52708  0.61726  0.39813  1.0000
  N   N1        1.0  0.11682  0.78412  0.84258  1.0000
  N   N2        1.0  0.61235  0.22465  0.15955  1.0000
  N   N3        1.0  0.11234  0.27535  0.65954  1.0000
  N   N4        1.0  0.61682  0.71588  0.34259  1.0000
  N   N5        1.0  0.91589  0.74991  0.05791  1.0000
  N   N6        1.0  0.43954  0.25286  0.94504  1.0000
  N   N7        1.0  0.93954  0.24713  0.44504  1.0000
  N   N8        1.0  0.41589  0.75010  0.55792  1.0000
  Cl  Cl1       1.0  0.59154  0.82381  0.80678  1.0000
  Cl  Cl2       1.0  0.06124  0.17573  0.18076  1.0000
  Cl  Cl3       1.0  0.56123  0.32427  0.68076  1.0000
  Cl  Cl4       1.0  0.09155  0.67619  0.30677  1.0000
  O   O1        1.0  0.29517  0.59778  0.73456  1.0000
  O   O2        1.0  0.79750  0.41707  0.25995  1.0000
  O   O3        1.0  0.29750  0.08293  0.75995  1.0000
  O   O4        1.0  0.79517  0.90223  0.23456  1.0000
  O   O5        1.0  0.18791  0.44865  0.86652  1.0000
  O   O6        1.0  0.66988  0.56262  0.13640  1.0000
  O   O7        1.0  0.16987  0.93738  0.63641  1.0000
  O   O8        1.0  0.68791  0.05135  0.36652  1.0000
  O   O9        1.0  0.93019  0.66691  0.57439  1.0000
  O   O10       1.0  0.50948  0.29239  0.41045  1.0000
  O   O11       1.0  0.00949  0.20761  0.91045  1.0000
  O   O12       1.0  0.43019  0.83308  0.07440  1.0000
