data_image0
_chemical_formula_structural       Cd2H40C40N28O4
_chemical_formula_sum              "Cd2 H40 C40 N28 O4"
_cell_length_a       5.53527
_cell_length_b       14.8389
_cell_length_c       15.599
_cell_angle_alpha    116.772
_cell_angle_beta     90
_cell_angle_gamma    90

_space_group_name_H-M_alt    "P 1"
_space_group_IT_number       1

loop_
  _space_group_symop_operation_xyz
  'x, y, z'

loop_
  _atom_site_type_symbol
  _atom_site_label
  _atom_site_symmetry_multiplicity
  _atom_site_fract_x
  _atom_site_fract_y
  _atom_site_fract_z
  _atom_site_occupancy
  Cd  Cd1       1.0  0.00001  0.00000  1.00000  1.0000
  Cd  Cd2       1.0  0.50000  0.50000  0.50000  1.0000
  H   H1        1.0  0.61421  0.08046  0.86340  1.0000
  H   H2        1.0  0.11421  0.41954  0.63660  1.0000
  H   H3        1.0  0.38582  0.91954  0.13660  1.0000
  H   H4        1.0  0.88580  0.58046  0.36340  1.0000
  H   H5        1.0  0.81570  0.78200  0.79192  1.0000
  H   H6        1.0  0.31570  0.71800  0.70808  1.0000
  H   H7        1.0  0.18431  0.21800  0.20807  1.0000
  H   H8        1.0  0.68429  0.28200  0.29193  1.0000
  H   H9        1.0  0.17067  0.99386  0.74310  1.0000
  H   H10       1.0  0.67068  0.50614  0.75690  1.0000
  H   H11       1.0  0.82934  0.00614  0.25691  1.0000
  H   H12       1.0  0.32931  0.49386  0.24310  1.0000
  H   H13       1.0  0.27447  0.89244  0.63453  1.0000
  H   H14       1.0  0.77448  0.60755  0.86547  1.0000
  H   H15       1.0  0.72553  0.10756  0.36547  1.0000
  H   H16       1.0  0.22550  0.39245  0.13453  1.0000
  H   H17       1.0  0.11282  0.13664  0.72047  1.0000
  H   H18       1.0  0.61284  0.36335  0.77953  1.0000
  H   H19       1.0  0.88717  0.86335  0.27953  1.0000
  H   H20       1.0  0.38716  0.63665  0.22046  1.0000
  H   H21       1.0  0.24756  0.25876  0.66254  1.0000
  H   H22       1.0  0.74759  0.24124  0.83746  1.0000
  H   H23       1.0  0.75242  0.74124  0.33746  1.0000
  H   H24       1.0  0.25242  0.75876  0.16254  1.0000
  H   H25       1.0  0.88833  0.08140  0.54419  1.0000
  H   H26       1.0  0.38835  0.41860  0.95582  1.0000
  H   H27       1.0  0.11166  0.91860  0.45582  1.0000
  H   H28       1.0  0.61164  0.58140  0.04418  1.0000
  H   H29       1.0  0.74923  0.95677  0.59879  1.0000
  H   H30       1.0  0.24923  0.54323  0.90121  1.0000
  H   H31       1.0  0.25077  0.04323  0.40122  1.0000
  H   H32       1.0  0.75077  0.45677  0.09878  1.0000
  H   H33       1.0  0.60056  0.15349  0.06005  1.0000
  H   H34       1.0  0.10053  0.34651  0.43995  1.0000
  H   H35       1.0  0.39947  0.84651  0.93995  1.0000
  H   H36       1.0  0.89946  0.65349  0.56005  1.0000
  H   H37       1.0  0.83589  0.20368  0.11871  1.0000
  H   H38       1.0  0.33586  0.29633  0.38130  1.0000
  H   H39       1.0  0.16412  0.79633  0.88130  1.0000
  H   H40       1.0  0.66413  0.70367  0.61870  1.0000
  C   C1        1.0  0.62749  0.99898  0.82927  1.0000
  C   C2        1.0  0.12748  0.50103  0.67073  1.0000
  C   C3        1.0  0.37255  0.00102  0.17073  1.0000
  C   C4        1.0  0.87251  0.49898  0.32928  1.0000
  C   C5        1.0  0.73065  0.84742  0.79090  1.0000
  C   C6        1.0  0.23064  0.65259  0.70910  1.0000
  C   C7        1.0  0.26937  0.15258  0.20909  1.0000
  C   C8        1.0  0.76935  0.34742  0.29091  1.0000
  C   C9        1.0  0.32867  0.96340  0.69600  1.0000
  C   C10       1.0  0.82868  0.53660  0.80400  1.0000
  C   C11       1.0  0.67134  0.03660  0.30400  1.0000
  C   C12       1.0  0.17133  0.46340  0.19600  1.0000
  C   C13       1.0  0.42103  0.03884  0.66385  1.0000
  C   C14       1.0  0.92104  0.46116  0.83614  1.0000
  C   C15       1.0  0.57896  0.96116  0.33614  1.0000
  C   C16       1.0  0.07893  0.53884  0.16386  1.0000
  C   C17       1.0  0.28268  0.12424  0.68147  1.0000
  C   C18       1.0  0.78270  0.37575  0.81852  1.0000
  C   C19       1.0  0.71730  0.87575  0.31852  1.0000
  C   C20       1.0  0.21731  0.62425  0.18148  1.0000
  C   C21       1.0  0.35888  0.19321  0.64930  1.0000
  C   C22       1.0  0.85892  0.30679  0.85070  1.0000
  C   C23       1.0  0.64111  0.80678  0.35069  1.0000
  C   C24       1.0  0.14109  0.69321  0.14930  1.0000
  C   C25       1.0  0.57825  0.17835  0.59966  1.0000
  C   C26       1.0  0.07826  0.32165  0.90034  1.0000
  C   C27       1.0  0.42173  0.82164  0.40033  1.0000
  C   C28       1.0  0.92173  0.67836  0.09966  1.0000
  C   C29       1.0  0.71817  0.09284  0.58270  1.0000
  C   C30       1.0  0.21818  0.40716  0.91731  1.0000
  C   C31       1.0  0.28183  0.90716  0.41731  1.0000
  C   C32       1.0  0.78183  0.59284  0.08270  1.0000
  C   C33       1.0  0.64016  0.02363  0.61402  1.0000
  C   C34       1.0  0.14017  0.47638  0.88598  1.0000
  C   C35       1.0  0.35983  0.97637  0.38598  1.0000
  C   C36       1.0  0.85980  0.52362  0.11402  1.0000
  C   C37       1.0  0.66011  0.25030  0.56569  1.0000
  C   C38       1.0  0.16012  0.24969  0.93431  1.0000
  C   C39       1.0  0.33988  0.74969  0.43431  1.0000
  C   C40       1.0  0.83989  0.75031  0.06569  1.0000
  N   N1        1.0  0.76709  0.94443  0.85829  1.0000
  N   N2        1.0  0.26709  0.55558  0.64171  1.0000
  N   N3        1.0  0.23292  0.05557  0.14170  1.0000
  N   N4        1.0  0.73292  0.44443  0.35830  1.0000
  N   N5        1.0  0.51179  0.93695  0.74843  1.0000
  N   N6        1.0  0.01179  0.56305  0.75157  1.0000
  N   N7        1.0  0.48823  0.06305  0.25157  1.0000
  N   N8        1.0  0.98821  0.43695  0.24843  1.0000
  N   N9        1.0  0.57791  0.83949  0.72219  1.0000
  N   N10       1.0  0.07790  0.66051  0.77781  1.0000
  N   N11       1.0  0.42210  0.16051  0.27780  1.0000
  N   N12       1.0  0.92208  0.33949  0.22219  1.0000
  N   N13       1.0  0.54888  0.33866  0.58598  1.0000
  N   N14       1.0  0.04890  0.16134  0.91402  1.0000
  N   N15       1.0  0.45111  0.66133  0.41402  1.0000
  N   N16       1.0  0.95111  0.83867  0.08598  1.0000
  N   N17       1.0  0.85445  0.23615  0.50799  1.0000
  N   N18       1.0  0.35446  0.26385  0.99201  1.0000
  N   N19       1.0  0.14554  0.76385  0.49201  1.0000
  N   N20       1.0  0.64554  0.73616  0.00798  1.0000
  N   N21       1.0  0.67822  0.37866  0.53921  1.0000
  N   N22       1.0  0.17824  0.12134  0.96079  1.0000
  N   N23       1.0  0.32177  0.62134  0.46080  1.0000
  N   N24       1.0  0.82177  0.87866  0.03920  1.0000
  N   N25       1.0  0.85989  0.31733  0.49225  1.0000
  N   N26       1.0  0.35992  0.18267  0.00775  1.0000
  N   N27       1.0  0.14009  0.68266  0.50775  1.0000
  N   N28       1.0  0.64010  0.81734  0.99224  1.0000
  O   O1        1.0  0.74571  0.13967  0.09164  1.0000
  O   O2        1.0  0.24567  0.36032  0.40837  1.0000
  O   O3        1.0  0.25432  0.86033  0.90836  1.0000
  O   O4        1.0  0.75432  0.63967  0.59163  1.0000
