data_image0
_chemical_formula_structural       Cu8H12C20N44O8
_chemical_formula_sum              "Cu8 H12 C20 N44 O8"
_cell_length_a       7.93705
_cell_length_b       11.8336
_cell_length_c       11.8835
_cell_angle_alpha    90.0012
_cell_angle_beta     100.753
_cell_angle_gamma    89.9988

_space_group_name_H-M_alt    "P 1"
_space_group_IT_number       1

loop_
  _space_group_symop_operation_xyz
  'x, y, z'

loop_
  _atom_site_type_symbol
  _atom_site_label
  _atom_site_symmetry_multiplicity
  _atom_site_fract_x
  _atom_site_fract_y
  _atom_site_fract_z
  _atom_site_occupancy
  Cu  Cu1       1.0  0.81464  0.91053  0.27073  1.0000
  Cu  Cu2       1.0  0.18541  0.41061  0.22925  1.0000
  Cu  Cu3       1.0  0.18637  0.08988  0.73079  1.0000
  Cu  Cu4       1.0  0.81366  0.58996  0.76918  1.0000
  Cu  Cu5       1.0  0.99988  0.49976  0.49986  1.0000
  Cu  Cu6       1.0  0.00005  0.99979  0.00024  1.0000
  Cu  Cu7       1.0  0.99876  0.99892  0.49871  1.0000
  Cu  Cu8       1.0  0.00136  0.49901  0.00122  1.0000
  H   H1        1.0  0.72845  0.31072  0.50981  1.0000
  H   H2        1.0  0.27143  0.81082  0.99021  1.0000
  H   H3        1.0  0.27113  0.68886  0.48957  1.0000
  H   H4        1.0  0.72873  0.18898  0.01043  1.0000
  H   H5        1.0  0.42282  0.29022  0.40411  1.0000
  H   H6        1.0  0.57707  0.79024  0.09587  1.0000
  H   H7        1.0  0.57642  0.70977  0.59562  1.0000
  H   H8        1.0  0.42348  0.20983  0.90432  1.0000
  H   H9        1.0  0.45991  0.59823  0.23891  1.0000
  H   H10       1.0  0.54017  0.09826  0.26110  1.0000
  H   H11       1.0  0.53968  0.40176  0.76096  1.0000
  H   H12       1.0  0.46036  0.90176  0.73911  1.0000
  C   C1        1.0  0.66839  0.37398  0.44865  1.0000
  C   C2        1.0  0.33153  0.87404  0.05139  1.0000
  C   C3        1.0  0.33110  0.62577  0.55096  1.0000
  C   C4        1.0  0.66880  0.12584  0.94908  1.0000
  C   C5        1.0  0.49914  0.36368  0.39094  1.0000
  C   C6        1.0  0.50078  0.86371  0.10908  1.0000
  C   C7        1.0  0.50023  0.63625  0.60881  1.0000
  C   C8        1.0  0.49968  0.13629  0.89121  1.0000
  C   C9        1.0  0.80132  0.64504  0.34539  1.0000
  C   C10       1.0  0.19867  0.14510  0.15468  1.0000
  C   C11       1.0  0.19854  0.35492  0.65475  1.0000
  C   C12       1.0  0.80142  0.85496  0.84534  1.0000
  C   C13       1.0  0.51923  0.53414  0.29940  1.0000
  C   C14       1.0  0.48079  0.03416  0.20066  1.0000
  C   C15       1.0  0.48041  0.46589  0.70051  1.0000
  C   C16       1.0  0.51957  0.96590  0.79958  1.0000
  C   C17       1.0  0.68791  0.54523  0.35749  1.0000
  C   C18       1.0  0.31207  0.04527  0.14261  1.0000
  C   C19       1.0  0.31175  0.45472  0.64241  1.0000
  C   C20       1.0  0.68820  0.95474  0.85773  1.0000
  N   N1        1.0  0.28824  0.81601  0.33212  1.0000
  N   N2        1.0  0.71180  0.31614  0.16777  1.0000
  N   N3        1.0  0.71083  0.18228  0.66690  1.0000
  N   N4        1.0  0.28913  0.68248  0.83301  1.0000
  N   N5        1.0  0.17305  0.87158  0.34556  1.0000
  N   N6        1.0  0.82702  0.37169  0.15433  1.0000
  N   N7        1.0  0.82721  0.12785  0.65362  1.0000
  N   N8        1.0  0.17281  0.62799  0.84629  1.0000
  N   N9        1.0  0.05373  0.93239  0.35606  1.0000
  N   N10       1.0  0.94636  0.43246  0.14384  1.0000
  N   N11       1.0  0.94873  0.06926  0.64231  1.0000
  N   N12       1.0  0.05136  0.56932  0.85759  1.0000
  N   N13       1.0  0.96977  0.18948  0.38649  1.0000
  N   N14       1.0  0.03037  0.68942  0.11348  1.0000
  N   N15       1.0  0.03104  0.81108  0.61287  1.0000
  N   N16       1.0  0.96903  0.31102  0.88709  1.0000
  N   N17       1.0  0.03789  0.27538  0.37720  1.0000
  N   N18       1.0  0.96216  0.77530  0.12277  1.0000
  N   N19       1.0  0.96255  0.72521  0.62195  1.0000
  N   N20       1.0  0.03744  0.22513  0.87801  1.0000
  N   N21       1.0  0.10548  0.36655  0.37274  1.0000
  N   N22       1.0  0.89451  0.86645  0.12724  1.0000
  N   N23       1.0  0.89418  0.63435  0.62625  1.0000
  N   N24       1.0  0.10574  0.13424  0.87370  1.0000
  N   N25       1.0  0.75712  0.97269  0.41978  1.0000
  N   N26       1.0  0.24300  0.47277  0.08019  1.0000
  N   N27       1.0  0.24014  0.02803  0.57983  1.0000
  N   N28       1.0  0.75998  0.52811  0.92013  1.0000
  N   N29       1.0  0.66632  0.92268  0.47518  1.0000
  N   N30       1.0  0.33378  0.42276  0.02478  1.0000
  N   N31       1.0  0.33282  0.07679  0.52482  1.0000
  N   N32       1.0  0.66727  0.57687  0.97512  1.0000
  N   N33       1.0  0.57762  0.87953  0.52947  1.0000
  N   N34       1.0  0.42245  0.37961  0.97047  1.0000
  N   N35       1.0  0.42203  0.11978  0.47079  1.0000
  N   N36       1.0  0.57801  0.61987  0.02912  1.0000
  N   N37       1.0  0.76058  0.46464  0.43090  1.0000
  N   N38       1.0  0.23936  0.96469  0.06920  1.0000
  N   N39       1.0  0.23900  0.53512  0.56887  1.0000
  N   N40       1.0  0.76091  0.03517  0.93124  1.0000
  N   N41       1.0  0.42595  0.44300  0.31685  1.0000
  N   N42       1.0  0.57403  0.94301  0.18318  1.0000
  N   N43       1.0  0.57356  0.55706  0.68302  1.0000
  N   N44       1.0  0.42639  0.05708  0.81701  1.0000
  O   O1        1.0  0.73297  0.73013  0.29352  1.0000
  O   O2        1.0  0.26700  0.23018  0.20656  1.0000
  O   O3        1.0  0.26690  0.27030  0.70743  1.0000
  O   O4        1.0  0.73305  0.77033  0.79269  1.0000
  O   O5        1.0  0.96008  0.63316  0.39150  1.0000
  O   O6        1.0  0.03993  0.13325  0.10848  1.0000
  O   O7        1.0  0.03990  0.36637  0.60801  1.0000
  O   O8        1.0  0.96009  0.86645  0.89197  1.0000
