data_image0
_chemical_formula_structural       Cd3H22C20N14Cl2O4
_chemical_formula_sum              "Cd3 H22 C20 N14 Cl2 O4"
_cell_length_a       6.92566
_cell_length_b       9.00452
_cell_length_c       12.8926
_cell_angle_alpha    76.312
_cell_angle_beta     87.0371
_cell_angle_gamma    73.5187

_space_group_name_H-M_alt    "P 1"
_space_group_IT_number       1

loop_
  _space_group_symop_operation_xyz
  'x, y, z'

loop_
  _atom_site_type_symbol
  _atom_site_label
  _atom_site_symmetry_multiplicity
  _atom_site_fract_x
  _atom_site_fract_y
  _atom_site_fract_z
  _atom_site_occupancy
  Cd  Cd1       1.0  0.50000  1.00000  0.50000  1.0000
  Cd  Cd2       1.0  0.92772  0.09098  0.60484  1.0000
  Cd  Cd3       1.0  0.07228  0.90902  0.39516  1.0000
  H   H1        1.0  0.27447  0.48553  0.42598  1.0000
  H   H2        1.0  0.72553  0.51447  0.57403  1.0000
  H   H3        1.0  0.72506  0.77843  0.27797  1.0000
  H   H4        1.0  0.27494  0.22157  0.72203  1.0000
  H   H5        1.0  0.58844  0.47104  0.33422  1.0000
  H   H6        1.0  0.41156  0.52896  0.66578  1.0000
  H   H7        1.0  0.78365  0.34078  0.27698  1.0000
  H   H8        1.0  0.21636  0.65921  0.72302  1.0000
  H   H9        1.0  0.35491  0.70028  0.21953  1.0000
  H   H10       1.0  0.64509  0.29972  0.78047  1.0000
  H   H11       1.0  0.23016  0.85180  0.03821  1.0000
  H   H12       1.0  0.76984  0.14819  0.96179  1.0000
  H   H13       1.0  0.76698  0.59342  0.90419  1.0000
  H   H14       1.0  0.23302  0.40658  0.09581  1.0000
  H   H15       1.0  0.89192  0.43927  0.08653  1.0000
  H   H16       1.0  0.10808  0.56073  0.91347  1.0000
  H   H17       1.0  0.94631  0.93637  0.81953  1.0000
  H   H18       1.0  0.05369  0.06363  0.18047  1.0000
  H   H19       1.0  0.73813  0.92269  0.77858  1.0000
  H   H20       1.0  0.26187  0.07731  0.22142  1.0000
  H   H21       1.0  0.12044  0.20174  0.42048  1.0000
  H   H22       1.0  0.87956  0.79827  0.57952  1.0000
  C   C1        1.0  0.12917  0.52666  0.38482  1.0000
  C   C2        1.0  0.87083  0.47334  0.61518  1.0000
  C   C3        1.0  0.85226  0.67830  0.31022  1.0000
  C   C4        1.0  0.14774  0.32170  0.68978  1.0000
  C   C5        1.0  0.70918  0.46603  0.27546  1.0000
  C   C6        1.0  0.29083  0.53397  0.72454  1.0000
  C   C7        1.0  0.63161  0.55899  0.16528  1.0000
  C   C8        1.0  0.36840  0.44101  0.83472  1.0000
  C   C9        1.0  0.44523  0.67482  0.15077  1.0000
  C   C10       1.0  0.55477  0.32518  0.84923  1.0000
  C   C11       1.0  0.37483  0.76104  0.04858  1.0000
  C   C12       1.0  0.62517  0.23896  0.95142  1.0000
  C   C13       1.0  0.49122  0.73259  0.95941  1.0000
  C   C14       1.0  0.50878  0.26742  0.04059  1.0000
  C   C15       1.0  0.67966  0.61774  0.97406  1.0000
  C   C16       1.0  0.32034  0.38226  0.02594  1.0000
  C   C17       1.0  0.74848  0.53172  0.07598  1.0000
  C   C18       1.0  0.25153  0.46828  0.92402  1.0000
  C   C19       1.0  0.41913  0.81644  0.85108  1.0000
  C   C20       1.0  0.58087  0.18356  0.14892  1.0000
  N   N1        1.0  0.01952  0.68252  0.35533  1.0000
  N   N2        1.0  0.98048  0.31748  0.64467  1.0000
  N   N3        1.0  0.03843  0.42785  0.35956  1.0000
  N   N4        1.0  0.96157  0.57215  0.64044  1.0000
  N   N5        1.0  0.86230  0.52669  0.31225  1.0000
  N   N6        1.0  0.13770  0.47331  0.68775  1.0000
  N   N7        1.0  0.22469  0.87799  0.81875  1.0000
  N   N8        1.0  0.77531  0.12201  0.18125  1.0000
  N   N9        1.0  0.23138  0.93793  0.71332  1.0000
  N   N10       1.0  0.76862  0.06207  0.28668  1.0000
  N   N11       1.0  0.42043  0.91473  0.68332  1.0000
  N   N12       1.0  0.57956  0.08528  0.31668  1.0000
  N   N13       1.0  0.54267  0.83833  0.76757  1.0000
  N   N14       1.0  0.45733  0.16167  0.23243  1.0000
  Cl  Cl1       1.0  0.55887  0.26527  0.53840  1.0000
  Cl  Cl2       1.0  0.44113  0.73473  0.46159  1.0000
  O   O1        1.0  0.15649  0.09275  0.46620  1.0000
  O   O2        1.0  0.84351  0.90725  0.53380  1.0000
  O   O3        1.0  0.81741  0.99852  0.78166  1.0000
  O   O4        1.0  0.18259  0.00148  0.21834  1.0000
