data_image0
_chemical_formula_structural       Cd2H20C8Br4N4
_chemical_formula_sum              "Cd2 H20 C8 Br4 N4"
_cell_length_a       6.89422
_cell_length_b       8.30809
_cell_length_c       8.30809
_cell_angle_alpha    113.906
_cell_angle_beta     90.1837
_cell_angle_gamma    90.184

_space_group_name_H-M_alt    "P 1"
_space_group_IT_number       1

loop_
  _space_group_symop_operation_xyz
  'x, y, z'

loop_
  _atom_site_type_symbol
  _atom_site_label
  _atom_site_symmetry_multiplicity
  _atom_site_fract_x
  _atom_site_fract_y
  _atom_site_fract_z
  _atom_site_occupancy
  Cd  Cd1       1.0  0.74999  0.07002  0.92998  1.0000
  Cd  Cd2       1.0  0.25000  0.92998  0.07002  1.0000
  H   H1        1.0  0.06688  0.28345  0.01423  1.0000
  H   H2        1.0  0.43312  0.98577  0.71654  1.0000
  H   H3        1.0  0.93311  0.71654  0.98577  1.0000
  H   H4        1.0  0.56689  0.01423  0.28346  1.0000
  H   H5        1.0  0.85471  0.45097  0.24557  1.0000
  H   H6        1.0  0.64530  0.75444  0.54902  1.0000
  H   H7        1.0  0.14529  0.54902  0.75443  1.0000
  H   H8        1.0  0.35471  0.24557  0.45097  1.0000
  H   H9        1.0  0.73401  0.52325  0.09722  1.0000
  H   H10       1.0  0.76599  0.90279  0.47675  1.0000
  H   H11       1.0  0.26598  0.47675  0.90278  1.0000
  H   H12       1.0  0.23401  0.09722  0.52325  1.0000
  H   H13       1.0  0.83945  0.40637  0.78627  1.0000
  H   H14       1.0  0.66055  0.21373  0.59363  1.0000
  H   H15       1.0  0.16055  0.59363  0.21372  1.0000
  H   H16       1.0  0.33946  0.78627  0.40638  1.0000
  H   H17       1.0  0.02729  0.24635  0.71745  1.0000
  H   H18       1.0  0.47271  0.28255  0.75365  1.0000
  H   H19       1.0  0.97271  0.75365  0.28254  1.0000
  H   H20       1.0  0.52729  0.71745  0.24635  1.0000
  C   C1        1.0  0.87538  0.48461  0.13177  1.0000
  C   C2        1.0  0.62462  0.86824  0.51539  1.0000
  C   C3        1.0  0.12461  0.51538  0.86823  1.0000
  C   C4        1.0  0.37538  0.13177  0.48461  1.0000
  C   C5        1.0  0.97707  0.36647  0.82610  1.0000
  C   C6        1.0  0.52292  0.17390  0.63353  1.0000
  C   C7        1.0  0.02292  0.63352  0.17390  1.0000
  C   C8        1.0  0.47709  0.82610  0.36648  1.0000
  Br  Br1       1.0  0.41799  0.25806  0.10832  1.0000
  Br  Br2       1.0  0.08200  0.89168  0.74194  1.0000
  Br  Br3       1.0  0.58200  0.74194  0.89168  1.0000
  Br  Br4       1.0  0.91800  0.10832  0.25806  1.0000
  N   N1        1.0  0.93825  0.32496  0.98015  1.0000
  N   N2        1.0  0.56175  0.01985  0.67504  1.0000
  N   N3        1.0  0.06174  0.67503  0.01984  1.0000
  N   N4        1.0  0.43826  0.98016  0.32496  1.0000
