data_image0
_chemical_formula_structural       Nd2H14C16S2O18
_chemical_formula_sum              "Nd2 H14 C16 S2 O18"
_cell_length_a       6.40451
_cell_length_b       8.76463
_cell_length_c       10.7035
_cell_angle_alpha    91.1579
_cell_angle_beta     99.4812
_cell_angle_gamma    107.551

_space_group_name_H-M_alt    "P 1"
_space_group_IT_number       1

loop_
  _space_group_symop_operation_xyz
  'x, y, z'

loop_
  _atom_site_type_symbol
  _atom_site_label
  _atom_site_symmetry_multiplicity
  _atom_site_fract_x
  _atom_site_fract_y
  _atom_site_fract_z
  _atom_site_occupancy
  Nd  Nd1       1.0  0.14807  0.23839  0.61031  1.0000
  Nd  Nd2       1.0  0.85193  0.76161  0.38969  1.0000
  H   H1        1.0  0.61898  0.41215  0.14225  1.0000
  H   H2        1.0  0.38102  0.58785  0.85775  1.0000
  H   H3        1.0  0.65667  0.36030  0.91928  1.0000
  H   H4        1.0  0.34333  0.63970  0.08072  1.0000
  H   H5        1.0  0.17097  0.15029  0.05504  1.0000
  H   H6        1.0  0.82903  0.84971  0.94496  1.0000
  H   H7        1.0  0.53665  0.08229  0.67871  1.0000
  H   H8        1.0  0.46335  0.91771  0.32129  1.0000
  H   H9        1.0  0.31647  0.94826  0.61109  1.0000
  H   H10       1.0  0.68353  0.05174  0.38891  1.0000
  H   H11       1.0  0.65591  0.34982  0.71354  1.0000
  H   H12       1.0  0.34409  0.65018  0.28645  1.0000
  H   H13       1.0  0.58852  0.49982  0.65681  1.0000
  H   H14       1.0  0.41148  0.50018  0.34319  1.0000
  C   C1        1.0  0.01592  0.22588  0.19840  1.0000
  C   C2        1.0  0.98408  0.77413  0.80160  1.0000
  C   C3        1.0  0.86403  0.30465  0.22480  1.0000
  C   C4        1.0  0.13597  0.69535  0.77520  1.0000
  C   C5        1.0  0.73590  0.35084  0.12201  1.0000
  C   C6        1.0  0.26410  0.64916  0.87800  1.0000
  C   C7        1.0  0.75801  0.32223  0.99702  1.0000
  C   C8        1.0  0.24200  0.67777  0.00298  1.0000
  C   C9        1.0  0.91701  0.25074  0.97287  1.0000
  C   C10       1.0  0.08299  0.74926  0.02713  1.0000
  C   C11       1.0  0.04422  0.20222  0.07413  1.0000
  C   C12       1.0  0.95578  0.79779  0.92587  1.0000
  C   C13       1.0  0.83965  0.34904  0.35734  1.0000
  C   C14       1.0  0.16035  0.65096  0.64266  1.0000
  C   C15       1.0  0.97308  0.23493  0.84428  1.0000
  C   C16       1.0  0.02692  0.76507  0.15572  1.0000
  S   S1        1.0  0.20880  0.17415  0.31749  1.0000
  S   S2        1.0  0.79120  0.82585  0.68251  1.0000
  O   O1        1.0  0.08785  0.04455  0.39136  1.0000
  O   O2        1.0  0.91215  0.95545  0.60864  1.0000
  O   O3        1.0  0.30915  0.31918  0.40818  1.0000
  O   O4        1.0  0.69085  0.68082  0.59182  1.0000
  O   O5        1.0  0.36350  0.12880  0.25201  1.0000
  O   O6        1.0  0.63650  0.87120  0.74799  1.0000
  O   O7        1.0  0.84067  0.24833  0.44208  1.0000
  O   O8        1.0  0.15933  0.75167  0.55792  1.0000
  O   O9        1.0  0.81948  0.48547  0.37718  1.0000
  O   O10       1.0  0.18052  0.51453  0.62282  1.0000
  O   O11       1.0  0.15485  0.20664  0.83750  1.0000
  O   O12       1.0  0.84515  0.79336  0.16250  1.0000
  O   O13       1.0  0.84646  0.25296  0.74258  1.0000
  O   O14       1.0  0.15354  0.74703  0.25742  1.0000
  O   O15       1.0  0.38487  0.06537  0.63345  1.0000
  O   O16       1.0  0.61513  0.93463  0.36655  1.0000
  O   O17       1.0  0.53300  0.39895  0.69798  1.0000
  O   O18       1.0  0.46700  0.60105  0.30202  1.0000
