data_image0
_chemical_formula_structural       Pr2H14C16S2O18
_chemical_formula_sum              "Pr2 H14 C16 S2 O18"
_cell_length_a       6.4188
_cell_length_b       8.80475
_cell_length_c       10.7476
_cell_angle_alpha    91.0054
_cell_angle_beta     99.6275
_cell_angle_gamma    107.686

_space_group_name_H-M_alt    "P 1"
_space_group_IT_number       1

loop_
  _space_group_symop_operation_xyz
  'x, y, z'

loop_
  _atom_site_type_symbol
  _atom_site_label
  _atom_site_symmetry_multiplicity
  _atom_site_fract_x
  _atom_site_fract_y
  _atom_site_fract_z
  _atom_site_occupancy
  Pr  Pr1       1.0  0.14668  0.23794  0.61087  1.0000
  Pr  Pr2       1.0  0.85332  0.76206  0.38913  1.0000
  H   H1        1.0  0.61856  0.41018  0.14153  1.0000
  H   H2        1.0  0.38144  0.58982  0.85847  1.0000
  H   H3        1.0  0.65556  0.35767  0.91975  1.0000
  H   H4        1.0  0.34444  0.64233  0.08025  1.0000
  H   H5        1.0  0.17068  0.15088  0.05648  1.0000
  H   H6        1.0  0.82932  0.84912  0.94352  1.0000
  H   H7        1.0  0.53881  0.08428  0.67963  1.0000
  H   H8        1.0  0.46119  0.91572  0.32037  1.0000
  H   H9        1.0  0.31979  0.94848  0.61311  1.0000
  H   H10       1.0  0.68021  0.05152  0.38689  1.0000
  H   H11       1.0  0.65667  0.35005  0.71553  1.0000
  H   H12       1.0  0.34333  0.64995  0.28447  1.0000
  H   H13       1.0  0.59038  0.49954  0.65818  1.0000
  H   H14       1.0  0.40962  0.50046  0.34181  1.0000
  C   C1        1.0  0.01628  0.22655  0.19880  1.0000
  C   C2        1.0  0.98371  0.77345  0.80120  1.0000
  C   C3        1.0  0.86416  0.30440  0.22455  1.0000
  C   C4        1.0  0.13584  0.69560  0.77545  1.0000
  C   C5        1.0  0.73568  0.34958  0.12183  1.0000
  C   C6        1.0  0.26432  0.65042  0.87817  1.0000
  C   C7        1.0  0.75729  0.32054  0.99751  1.0000
  C   C8        1.0  0.24271  0.67946  0.00249  1.0000
  C   C9        1.0  0.91622  0.24974  0.97389  1.0000
  C   C10       1.0  0.08378  0.75026  0.02611  1.0000
  C   C11       1.0  0.04401  0.20241  0.07511  1.0000
  C   C12       1.0  0.95599  0.79759  0.92489  1.0000
  C   C13       1.0  0.83935  0.34860  0.35629  1.0000
  C   C14       1.0  0.16065  0.65139  0.64372  1.0000
  C   C15       1.0  0.97104  0.23300  0.84574  1.0000
  C   C16       1.0  0.02897  0.76700  0.15426  1.0000
  S   S1        1.0  0.20971  0.17637  0.31795  1.0000
  S   S2        1.0  0.79029  0.82363  0.68205  1.0000
  O   O1        1.0  0.08934  0.04694  0.39165  1.0000
  O   O2        1.0  0.91066  0.95306  0.60835  1.0000
  O   O3        1.0  0.30902  0.32109  0.40794  1.0000
  O   O4        1.0  0.69098  0.67891  0.59206  1.0000
  O   O5        1.0  0.36469  0.13189  0.25327  1.0000
  O   O6        1.0  0.63531  0.86811  0.74673  1.0000
  O   O7        1.0  0.83837  0.24801  0.44071  1.0000
  O   O8        1.0  0.16162  0.75199  0.55929  1.0000
  O   O9        1.0  0.82049  0.48483  0.37560  1.0000
  O   O10       1.0  0.17951  0.51517  0.62440  1.0000
  O   O11       1.0  0.15186  0.20429  0.83896  1.0000
  O   O12       1.0  0.84814  0.79571  0.16104  1.0000
  O   O13       1.0  0.84376  0.25069  0.74442  1.0000
  O   O14       1.0  0.15624  0.74931  0.25558  1.0000
  O   O15       1.0  0.38629  0.06528  0.63498  1.0000
  O   O16       1.0  0.61371  0.93472  0.36502  1.0000
  O   O17       1.0  0.53458  0.39933  0.69970  1.0000
  O   O18       1.0  0.46543  0.60067  0.30029  1.0000
