data_image0
_chemical_formula_structural       Tb2H14C16S2O18
_chemical_formula_sum              "Tb2 H14 C16 S2 O18"
_cell_length_a       6.36086
_cell_length_b       8.59806
_cell_length_c       10.5903
_cell_angle_alpha    90.9191
_cell_angle_beta     99.5288
_cell_angle_gamma    107.388

_space_group_name_H-M_alt    "P 1"
_space_group_IT_number       1

loop_
  _space_group_symop_operation_xyz
  'x, y, z'

loop_
  _atom_site_type_symbol
  _atom_site_label
  _atom_site_symmetry_multiplicity
  _atom_site_fract_x
  _atom_site_fract_y
  _atom_site_fract_z
  _atom_site_occupancy
  Tb  Tb1       1.0  0.15245  0.24387  0.61320  1.0000
  Tb  Tb2       1.0  0.84755  0.75613  0.38680  1.0000
  H   H1        1.0  0.61935  0.41488  0.14477  1.0000
  H   H2        1.0  0.38065  0.58512  0.85524  1.0000
  H   H3        1.0  0.65914  0.36688  0.91918  1.0000
  H   H4        1.0  0.34086  0.63312  0.08082  1.0000
  H   H5        1.0  0.17757  0.15124  0.05417  1.0000
  H   H6        1.0  0.82243  0.84876  0.94583  1.0000
  H   H7        1.0  0.52744  0.08090  0.67711  1.0000
  H   H8        1.0  0.47256  0.91911  0.32289  1.0000
  H   H9        1.0  0.30257  0.95168  0.60618  1.0000
  H   H10       1.0  0.69743  0.04831  0.39382  1.0000
  H   H11       1.0  0.65329  0.35323  0.70981  1.0000
  H   H12       1.0  0.34671  0.64677  0.29019  1.0000
  H   H13       1.0  0.58173  0.50395  0.65093  1.0000
  H   H14       1.0  0.41827  0.49605  0.34907  1.0000
  C   C1        1.0  0.01983  0.22455  0.19958  1.0000
  C   C2        1.0  0.98017  0.77545  0.80042  1.0000
  C   C3        1.0  0.86690  0.30455  0.22702  1.0000
  C   C4        1.0  0.13310  0.69545  0.77298  1.0000
  C   C5        1.0  0.73761  0.35310  0.12376  1.0000
  C   C6        1.0  0.26239  0.64690  0.87624  1.0000
  C   C7        1.0  0.76086  0.32676  0.99734  1.0000
  C   C8        1.0  0.23914  0.67324  0.00266  1.0000
  C   C9        1.0  0.92236  0.25558  0.97231  1.0000
  C   C10       1.0  0.07764  0.74442  0.02769  1.0000
  C   C11       1.0  0.04961  0.20361  0.07390  1.0000
  C   C12       1.0  0.95039  0.79639  0.92610  1.0000
  C   C13       1.0  0.84392  0.34825  0.36141  1.0000
  C   C14       1.0  0.15608  0.65175  0.63859  1.0000
  C   C15       1.0  0.98108  0.24441  0.84253  1.0000
  C   C16       1.0  0.01892  0.75559  0.15747  1.0000
  S   S1        1.0  0.20943  0.16580  0.31937  1.0000
  S   S2        1.0  0.79057  0.83420  0.68064  1.0000
  O   O1        1.0  0.08362  0.02954  0.38791  1.0000
  O   O2        1.0  0.91638  0.97046  0.61209  1.0000
  O   O3        1.0  0.30845  0.30944  0.41469  1.0000
  O   O4        1.0  0.69155  0.69056  0.58531  1.0000
  O   O5        1.0  0.36882  0.12410  0.25334  1.0000
  O   O6        1.0  0.63118  0.87590  0.74666  1.0000
  O   O7        1.0  0.85218  0.24625  0.44736  1.0000
  O   O8        1.0  0.14783  0.75375  0.55264  1.0000
  O   O9        1.0  0.81839  0.48541  0.38218  1.0000
  O   O10       1.0  0.18161  0.51459  0.61782  1.0000
  O   O11       1.0  0.16618  0.21847  0.83524  1.0000
  O   O12       1.0  0.83382  0.78153  0.16476  1.0000
  O   O13       1.0  0.85449  0.26365  0.73986  1.0000
  O   O14       1.0  0.14551  0.73635  0.26014  1.0000
  O   O15       1.0  0.37634  0.06980  0.63169  1.0000
  O   O16       1.0  0.62366  0.93020  0.36831  1.0000
  O   O17       1.0  0.52811  0.40219  0.69419  1.0000
  O   O18       1.0  0.47189  0.59782  0.30581  1.0000
