data_image0
_chemical_formula_structural       Sm2H14C16S2O18
_chemical_formula_sum              "Sm2 H14 C16 S2 O18"
_cell_length_a       6.38729
_cell_length_b       8.68822
_cell_length_c       10.6464
_cell_angle_alpha    91.0628
_cell_angle_beta     99.3879
_cell_angle_gamma    107.405

_space_group_name_H-M_alt    "P 1"
_space_group_IT_number       1

loop_
  _space_group_symop_operation_xyz
  'x, y, z'

loop_
  _atom_site_type_symbol
  _atom_site_label
  _atom_site_symmetry_multiplicity
  _atom_site_fract_x
  _atom_site_fract_y
  _atom_site_fract_z
  _atom_site_occupancy
  Sm  Sm1       1.0  0.14956  0.23938  0.61091  1.0000
  Sm  Sm2       1.0  0.85044  0.76062  0.38909  1.0000
  H   H1        1.0  0.62036  0.41416  0.14341  1.0000
  H   H2        1.0  0.37963  0.58584  0.85659  1.0000
  H   H3        1.0  0.65848  0.36303  0.91914  1.0000
  H   H4        1.0  0.34152  0.63697  0.08086  1.0000
  H   H5        1.0  0.17427  0.15040  0.05449  1.0000
  H   H6        1.0  0.82573  0.84960  0.94551  1.0000
  H   H7        1.0  0.53112  0.07889  0.67881  1.0000
  H   H8        1.0  0.46888  0.92111  0.32119  1.0000
  H   H9        1.0  0.30961  0.94817  0.60853  1.0000
  H   H10       1.0  0.69039  0.05183  0.39147  1.0000
  H   H11       1.0  0.65386  0.34943  0.71126  1.0000
  H   H12       1.0  0.34614  0.65057  0.28874  1.0000
  H   H13       1.0  0.58466  0.50000  0.65407  1.0000
  H   H14       1.0  0.41534  0.50000  0.34593  1.0000
  C   C1        1.0  0.01831  0.22581  0.19892  1.0000
  C   C2        1.0  0.98169  0.77419  0.80108  1.0000
  C   C3        1.0  0.86610  0.30535  0.22581  1.0000
  C   C4        1.0  0.13389  0.69465  0.77419  1.0000
  C   C5        1.0  0.73752  0.35233  0.12275  1.0000
  C   C6        1.0  0.26248  0.64767  0.87725  1.0000
  C   C7        1.0  0.75988  0.32421  0.99707  1.0000
  C   C8        1.0  0.24012  0.67579  0.00293  1.0000
  C   C9        1.0  0.91958  0.25236  0.97248  1.0000
  C   C10       1.0  0.08042  0.74764  0.02752  1.0000
  C   C11       1.0  0.04710  0.20277  0.07395  1.0000
  C   C12       1.0  0.95290  0.79723  0.92605  1.0000
  C   C13       1.0  0.84185  0.34956  0.35916  1.0000
  C   C14       1.0  0.15815  0.65044  0.64084  1.0000
  C   C15       1.0  0.97632  0.23758  0.84323  1.0000
  C   C16       1.0  0.02368  0.76242  0.15677  1.0000
  S   S1        1.0  0.20992  0.17151  0.31837  1.0000
  S   S2        1.0  0.79008  0.82849  0.68163  1.0000
  O   O1        1.0  0.08734  0.03987  0.39110  1.0000
  O   O2        1.0  0.91266  0.96013  0.60890  1.0000
  O   O3        1.0  0.31004  0.31630  0.41056  1.0000
  O   O4        1.0  0.68996  0.68370  0.58944  1.0000
  O   O5        1.0  0.36590  0.12668  0.25237  1.0000
  O   O6        1.0  0.63410  0.87332  0.74763  1.0000
  O   O7        1.0  0.84563  0.24826  0.44455  1.0000
  O   O8        1.0  0.15437  0.75174  0.55545  1.0000
  O   O9        1.0  0.81919  0.48636  0.37920  1.0000
  O   O10       1.0  0.18081  0.51364  0.62080  1.0000
  O   O11       1.0  0.15890  0.20936  0.83605  1.0000
  O   O12       1.0  0.84110  0.79064  0.16395  1.0000
  O   O13       1.0  0.85015  0.25646  0.74118  1.0000
  O   O14       1.0  0.14985  0.74354  0.25882  1.0000
  O   O15       1.0  0.38064  0.06562  0.63274  1.0000
  O   O16       1.0  0.61936  0.93438  0.36726  1.0000
  O   O17       1.0  0.52999  0.39857  0.69598  1.0000
  O   O18       1.0  0.47001  0.60143  0.30402  1.0000
