data_image0
_chemical_formula_structural       Gd2H14C16S2O18
_chemical_formula_sum              "Gd2 H14 C16 S2 O18"
_cell_length_a       6.35852
_cell_length_b       8.6242
_cell_length_c       10.5996
_cell_angle_alpha    90.9423
_cell_angle_beta     99.4571
_cell_angle_gamma    107.434

_space_group_name_H-M_alt    "P 1"
_space_group_IT_number       1

loop_
  _space_group_symop_operation_xyz
  'x, y, z'

loop_
  _atom_site_type_symbol
  _atom_site_label
  _atom_site_symmetry_multiplicity
  _atom_site_fract_x
  _atom_site_fract_y
  _atom_site_fract_z
  _atom_site_occupancy
  Gd  Gd1       1.0  0.15085  0.24173  0.61165  1.0000
  Gd  Gd2       1.0  0.84916  0.75827  0.38835  1.0000
  H   H1        1.0  0.61915  0.41519  0.14391  1.0000
  H   H2        1.0  0.38085  0.58481  0.85609  1.0000
  H   H3        1.0  0.65725  0.36502  0.91847  1.0000
  H   H4        1.0  0.34275  0.63498  0.08153  1.0000
  H   H5        1.0  0.17616  0.15096  0.05354  1.0000
  H   H6        1.0  0.82385  0.84904  0.94647  1.0000
  H   H7        1.0  0.53013  0.08214  0.67708  1.0000
  H   H8        1.0  0.46987  0.91786  0.32292  1.0000
  H   H9        1.0  0.30672  0.95031  0.60720  1.0000
  H   H10       1.0  0.69328  0.04969  0.39280  1.0000
  H   H11       1.0  0.65279  0.35127  0.70942  1.0000
  H   H12       1.0  0.34721  0.64873  0.29058  1.0000
  H   H13       1.0  0.58236  0.50248  0.65164  1.0000
  H   H14       1.0  0.41764  0.49752  0.34836  1.0000
  C   C1        1.0  0.01913  0.22533  0.19888  1.0000
  C   C2        1.0  0.98087  0.77467  0.80112  1.0000
  C   C3        1.0  0.86642  0.30526  0.22617  1.0000
  C   C4        1.0  0.13358  0.69475  0.77383  1.0000
  C   C5        1.0  0.73684  0.35307  0.12296  1.0000
  C   C6        1.0  0.26317  0.64693  0.87703  1.0000
  C   C7        1.0  0.75916  0.32557  0.99663  1.0000
  C   C8        1.0  0.24084  0.67443  0.00337  1.0000
  C   C9        1.0  0.92037  0.25421  0.97168  1.0000
  C   C10       1.0  0.07963  0.74579  0.02832  1.0000
  C   C11       1.0  0.04821  0.20327  0.07329  1.0000
  C   C12       1.0  0.95179  0.79673  0.92671  1.0000
  C   C13       1.0  0.84341  0.34921  0.36030  1.0000
  C   C14       1.0  0.15659  0.65079  0.63970  1.0000
  C   C15       1.0  0.97844  0.24155  0.84199  1.0000
  C   C16       1.0  0.02156  0.75845  0.15801  1.0000
  S   S1        1.0  0.20983  0.16832  0.31865  1.0000
  S   S2        1.0  0.79016  0.83168  0.68134  1.0000
  O   O1        1.0  0.08482  0.03383  0.38910  1.0000
  O   O2        1.0  0.91518  0.96616  0.61090  1.0000
  O   O3        1.0  0.30945  0.31252  0.41295  1.0000
  O   O4        1.0  0.69055  0.68748  0.58705  1.0000
  O   O5        1.0  0.36812  0.12535  0.25253  1.0000
  O   O6        1.0  0.63188  0.87465  0.74746  1.0000
  O   O7        1.0  0.84931  0.24716  0.44605  1.0000
  O   O8        1.0  0.15069  0.75284  0.55395  1.0000
  O   O9        1.0  0.81962  0.48648  0.38095  1.0000
  O   O10       1.0  0.18038  0.51352  0.61905  1.0000
  O   O11       1.0  0.16355  0.21579  0.83476  1.0000
  O   O12       1.0  0.83645  0.78421  0.16524  1.0000
  O   O13       1.0  0.85094  0.25938  0.73934  1.0000
  O   O14       1.0  0.14906  0.74062  0.26066  1.0000
  O   O15       1.0  0.37824  0.06855  0.63165  1.0000
  O   O16       1.0  0.62176  0.93145  0.36835  1.0000
  O   O17       1.0  0.52802  0.40047  0.69423  1.0000
  O   O18       1.0  0.47198  0.59953  0.30577  1.0000
