data_image0
_chemical_formula_structural       Tm2H14C16S2O18
_chemical_formula_sum              "Tm2 H14 C16 S2 O18"
_cell_length_a       6.33554
_cell_length_b       8.51519
_cell_length_c       10.5496
_cell_angle_alpha    90.3162
_cell_angle_beta     99.7958
_cell_angle_gamma    107.492

_space_group_name_H-M_alt    "P 1"
_space_group_IT_number       1

loop_
  _space_group_symop_operation_xyz
  'x, y, z'

loop_
  _atom_site_type_symbol
  _atom_site_label
  _atom_site_symmetry_multiplicity
  _atom_site_fract_x
  _atom_site_fract_y
  _atom_site_fract_z
  _atom_site_occupancy
  Tm  Tm1       1.0  0.15641  0.25127  0.61787  1.0000
  Tm  Tm2       1.0  0.84360  0.74873  0.38213  1.0000
  H   H1        1.0  0.61746  0.41254  0.14574  1.0000
  H   H2        1.0  0.38254  0.58746  0.85426  1.0000
  H   H3        1.0  0.65873  0.36848  0.91957  1.0000
  H   H4        1.0  0.34126  0.63152  0.08043  1.0000
  H   H5        1.0  0.18323  0.15292  0.05564  1.0000
  H   H6        1.0  0.81677  0.84708  0.94436  1.0000
  H   H7        1.0  0.52074  0.08110  0.67725  1.0000
  H   H8        1.0  0.47926  0.91890  0.32275  1.0000
  H   H9        1.0  0.29174  0.95647  0.60478  1.0000
  H   H10       1.0  0.70826  0.04353  0.39522  1.0000
  H   H11       1.0  0.65430  0.35834  0.70827  1.0000
  H   H12       1.0  0.34570  0.64165  0.29172  1.0000
  H   H13       1.0  0.58120  0.50968  0.64693  1.0000
  H   H14       1.0  0.41881  0.49032  0.35307  1.0000
  C   C1        1.0  0.02236  0.22276  0.20128  1.0000
  C   C2        1.0  0.97763  0.77724  0.79872  1.0000
  C   C3        1.0  0.86818  0.30244  0.22860  1.0000
  C   C4        1.0  0.13182  0.69756  0.77140  1.0000
  C   C5        1.0  0.73728  0.35166  0.12482  1.0000
  C   C6        1.0  0.26271  0.64834  0.87518  1.0000
  C   C7        1.0  0.76149  0.32762  0.99807  1.0000
  C   C8        1.0  0.23851  0.67237  0.00193  1.0000
  C   C9        1.0  0.92570  0.25821  0.97325  1.0000
  C   C10       1.0  0.07430  0.74179  0.02675  1.0000
  C   C11       1.0  0.05367  0.20451  0.07525  1.0000
  C   C12       1.0  0.94633  0.79549  0.92475  1.0000
  C   C13       1.0  0.84660  0.34532  0.36356  1.0000
  C   C14       1.0  0.15340  0.65468  0.63644  1.0000
  C   C15       1.0  0.98657  0.25161  0.84340  1.0000
  C   C16       1.0  0.01343  0.74839  0.15660  1.0000
  S   S1        1.0  0.20944  0.15869  0.32159  1.0000
  S   S2        1.0  0.79056  0.84131  0.67841  1.0000
  O   O1        1.0  0.08001  0.01507  0.38327  1.0000
  O   O2        1.0  0.91999  0.98493  0.61673  1.0000
  O   O3        1.0  0.30498  0.29937  0.42059  1.0000
  O   O4        1.0  0.69503  0.70063  0.57941  1.0000
  O   O5        1.0  0.37473  0.12334  0.25634  1.0000
  O   O6        1.0  0.62527  0.87666  0.74366  1.0000
  O   O7        1.0  0.86069  0.24321  0.45072  1.0000
  O   O8        1.0  0.13931  0.75679  0.54928  1.0000
  O   O9        1.0  0.81772  0.48249  0.38423  1.0000
  O   O10       1.0  0.18228  0.51751  0.61577  1.0000
  O   O11       1.0  0.17442  0.22853  0.83622  1.0000
  O   O12       1.0  0.82558  0.77147  0.16378  1.0000
  O   O13       1.0  0.85999  0.27208  0.74014  1.0000
  O   O14       1.0  0.14001  0.72792  0.25986  1.0000
  O   O15       1.0  0.36890  0.07421  0.63383  1.0000
  O   O16       1.0  0.63110  0.92580  0.36616  1.0000
  O   O17       1.0  0.52805  0.40741  0.69166  1.0000
  O   O18       1.0  0.47195  0.59259  0.30834  1.0000
