data_image0
_chemical_formula_structural       Y2H14C16S2O18
_chemical_formula_sum              "Y2 H14 C16 S2 O18"
_cell_length_a       6.36081
_cell_length_b       8.57874
_cell_length_c       10.6058
_cell_angle_alpha    90.4101
_cell_angle_beta     99.9569
_cell_angle_gamma    107.634

_space_group_name_H-M_alt    "P 1"
_space_group_IT_number       1

loop_
  _space_group_symop_operation_xyz
  'x, y, z'

loop_
  _atom_site_type_symbol
  _atom_site_label
  _atom_site_symmetry_multiplicity
  _atom_site_fract_x
  _atom_site_fract_y
  _atom_site_fract_z
  _atom_site_occupancy
  Y   Y1        1.0  0.15321  0.24794  0.61617  1.0000
  Y   Y2        1.0  0.84679  0.75207  0.38383  1.0000
  H   H1        1.0  0.61838  0.41226  0.14453  1.0000
  H   H2        1.0  0.38162  0.58774  0.85547  1.0000
  H   H3        1.0  0.65688  0.36565  0.91953  1.0000
  H   H4        1.0  0.34312  0.63435  0.08046  1.0000
  H   H5        1.0  0.18032  0.15314  0.05593  1.0000
  H   H6        1.0  0.81968  0.84685  0.94407  1.0000
  H   H7        1.0  0.52628  0.08495  0.67782  1.0000
  H   H8        1.0  0.47372  0.91505  0.32218  1.0000
  H   H9        1.0  0.29933  0.95493  0.60783  1.0000
  H   H10       1.0  0.70067  0.04507  0.39217  1.0000
  H   H11       1.0  0.65346  0.35660  0.71007  1.0000
  H   H12       1.0  0.34654  0.64340  0.28993  1.0000
  H   H13       1.0  0.58269  0.50759  0.64919  1.0000
  H   H14       1.0  0.41731  0.49242  0.35081  1.0000
  C   C1        1.0  0.02187  0.22436  0.20063  1.0000
  C   C2        1.0  0.97813  0.77564  0.79937  1.0000
  C   C3        1.0  0.86814  0.30323  0.22750  1.0000
  C   C4        1.0  0.13186  0.69677  0.77250  1.0000
  C   C5        1.0  0.73745  0.35155  0.12401  1.0000
  C   C6        1.0  0.26255  0.64845  0.87599  1.0000
  C   C7        1.0  0.76003  0.32601  0.99787  1.0000
  C   C8        1.0  0.23996  0.67399  0.00213  1.0000
  C   C9        1.0  0.92278  0.25640  0.97339  1.0000
  C   C10       1.0  0.07721  0.74360  0.02661  1.0000
  C   C11       1.0  0.05159  0.20461  0.07521  1.0000
  C   C12       1.0  0.94841  0.79539  0.92479  1.0000
  C   C13       1.0  0.84609  0.34624  0.36152  1.0000
  C   C14       1.0  0.15391  0.65376  0.63848  1.0000
  C   C15       1.0  0.98100  0.24721  0.84386  1.0000
  C   C16       1.0  0.01899  0.75279  0.15614  1.0000
  S   S1        1.0  0.21050  0.16362  0.32093  1.0000
  S   S2        1.0  0.78950  0.83638  0.67907  1.0000
  O   O1        1.0  0.08289  0.02316  0.38534  1.0000
  O   O2        1.0  0.91711  0.97685  0.61466  1.0000
  O   O3        1.0  0.30681  0.30545  0.41800  1.0000
  O   O4        1.0  0.69319  0.69455  0.58200  1.0000
  O   O5        1.0  0.37370  0.12672  0.25624  1.0000
  O   O6        1.0  0.62630  0.87328  0.74376  1.0000
  O   O7        1.0  0.85517  0.24367  0.44773  1.0000
  O   O8        1.0  0.14483  0.75633  0.55227  1.0000
  O   O9        1.0  0.82014  0.48330  0.38206  1.0000
  O   O10       1.0  0.17986  0.51670  0.61794  1.0000
  O   O11       1.0  0.16804  0.22454  0.83678  1.0000
  O   O12       1.0  0.83196  0.77546  0.16322  1.0000
  O   O13       1.0  0.85246  0.26523  0.74106  1.0000
  O   O14       1.0  0.14753  0.73477  0.25894  1.0000
  O   O15       1.0  0.37288  0.07295  0.63479  1.0000
  O   O16       1.0  0.62712  0.92705  0.36521  1.0000
  O   O17       1.0  0.52891  0.40634  0.69393  1.0000
  O   O18       1.0  0.47110  0.59366  0.30607  1.0000
