data_image0
_chemical_formula_structural       Er2H14C16S2O18
_chemical_formula_sum              "Er2 H14 C16 S2 O18"
_cell_length_a       6.34973
_cell_length_b       8.53919
_cell_length_c       10.5797
_cell_angle_alpha    90.2095
_cell_angle_beta     100.131
_cell_angle_gamma    107.708

_space_group_name_H-M_alt    "P 1"
_space_group_IT_number       1

loop_
  _space_group_symop_operation_xyz
  'x, y, z'

loop_
  _atom_site_type_symbol
  _atom_site_label
  _atom_site_symmetry_multiplicity
  _atom_site_fract_x
  _atom_site_fract_y
  _atom_site_fract_z
  _atom_site_occupancy
  Er  Er1       1.0  0.15479  0.25049  0.61822  1.0000
  Er  Er2       1.0  0.84521  0.74950  0.38178  1.0000
  H   H1        1.0  0.61730  0.41083  0.14404  1.0000
  H   H2        1.0  0.38271  0.58918  0.85597  1.0000
  H   H3        1.0  0.65782  0.36597  0.91889  1.0000
  H   H4        1.0  0.34218  0.63404  0.08111  1.0000
  H   H5        1.0  0.18381  0.15383  0.05719  1.0000
  H   H6        1.0  0.81619  0.84617  0.94281  1.0000
  H   H7        1.0  0.52316  0.08419  0.67782  1.0000
  H   H8        1.0  0.47683  0.91581  0.32218  1.0000
  H   H9        1.0  0.29372  0.95643  0.60741  1.0000
  H   H10       1.0  0.70627  0.04357  0.39259  1.0000
  H   H11       1.0  0.65407  0.35809  0.70952  1.0000
  H   H12       1.0  0.34593  0.64190  0.29048  1.0000
  H   H13       1.0  0.58177  0.50902  0.64784  1.0000
  H   H14       1.0  0.41824  0.49097  0.35216  1.0000
  C   C1        1.0  0.02344  0.22377  0.20162  1.0000
  C   C2        1.0  0.97656  0.77623  0.79838  1.0000
  C   C3        1.0  0.86885  0.30245  0.22805  1.0000
  C   C4        1.0  0.13114  0.69755  0.77195  1.0000
  C   C5        1.0  0.73748  0.35064  0.12389  1.0000
  C   C6        1.0  0.26252  0.64937  0.87611  1.0000
  C   C7        1.0  0.76122  0.32609  0.99763  1.0000
  C   C8        1.0  0.23878  0.67392  0.00237  1.0000
  C   C9        1.0  0.92542  0.25731  0.97362  1.0000
  C   C10       1.0  0.07459  0.74270  0.02638  1.0000
  C   C11       1.0  0.05422  0.20502  0.07606  1.0000
  C   C12       1.0  0.94579  0.79499  0.92394  1.0000
  C   C13       1.0  0.84656  0.34517  0.36233  1.0000
  C   C14       1.0  0.15344  0.65483  0.63767  1.0000
  C   C15       1.0  0.98501  0.24994  0.84410  1.0000
  C   C16       1.0  0.01498  0.75005  0.15590  1.0000
  S   S1        1.0  0.21084  0.16127  0.32262  1.0000
  S   S2        1.0  0.78916  0.83873  0.67738  1.0000
  O   O1        1.0  0.08156  0.01789  0.38433  1.0000
  O   O2        1.0  0.91844  0.98211  0.61567  1.0000
  O   O3        1.0  0.30580  0.30227  0.42120  1.0000
  O   O4        1.0  0.69420  0.69772  0.57880  1.0000
  O   O5        1.0  0.37646  0.12655  0.25854  1.0000
  O   O6        1.0  0.62353  0.87345  0.74146  1.0000
  O   O7        1.0  0.85893  0.24290  0.44932  1.0000
  O   O8        1.0  0.14107  0.75710  0.55068  1.0000
  O   O9        1.0  0.81826  0.48211  0.38255  1.0000
  O   O10       1.0  0.18176  0.51789  0.61745  1.0000
  O   O11       1.0  0.17276  0.22758  0.83735  1.0000
  O   O12       1.0  0.82723  0.77241  0.16265  1.0000
  O   O13       1.0  0.85728  0.26927  0.74080  1.0000
  O   O14       1.0  0.14272  0.73073  0.25920  1.0000
  O   O15       1.0  0.36931  0.07435  0.63611  1.0000
  O   O16       1.0  0.63069  0.92565  0.36389  1.0000
  O   O17       1.0  0.52880  0.40762  0.69335  1.0000
  O   O18       1.0  0.47119  0.59237  0.30665  1.0000
