data_image0
_chemical_formula_structural       Ho2H14C16S2O18
_chemical_formula_sum              "Ho2 H14 C16 S2 O18"
_cell_length_a       6.3494
_cell_length_b       8.56094
_cell_length_c       10.5886
_cell_angle_alpha    90.3764
_cell_angle_beta     100.009
_cell_angle_gamma    107.681

_space_group_name_H-M_alt    "P 1"
_space_group_IT_number       1

loop_
  _space_group_symop_operation_xyz
  'x, y, z'

loop_
  _atom_site_type_symbol
  _atom_site_label
  _atom_site_symmetry_multiplicity
  _atom_site_fract_x
  _atom_site_fract_y
  _atom_site_fract_z
  _atom_site_occupancy
  Ho  Ho1       1.0  0.15346  0.24854  0.61656  1.0000
  Ho  Ho2       1.0  0.84654  0.75146  0.38344  1.0000
  H   H1        1.0  0.61768  0.41125  0.14390  1.0000
  H   H2        1.0  0.38232  0.58875  0.85610  1.0000
  H   H3        1.0  0.65686  0.36476  0.91883  1.0000
  H   H4        1.0  0.34314  0.63524  0.08117  1.0000
  H   H5        1.0  0.18300  0.15359  0.05637  1.0000
  H   H6        1.0  0.81700  0.84641  0.94363  1.0000
  H   H7        1.0  0.52589  0.08557  0.67728  1.0000
  H   H8        1.0  0.47411  0.91444  0.32272  1.0000
  H   H9        1.0  0.29793  0.95568  0.60772  1.0000
  H   H10       1.0  0.70208  0.04432  0.39228  1.0000
  H   H11       1.0  0.65364  0.35686  0.70938  1.0000
  H   H12       1.0  0.34637  0.64314  0.29062  1.0000
  H   H13       1.0  0.58208  0.50772  0.64831  1.0000
  H   H14       1.0  0.41792  0.49228  0.35169  1.0000
  C   C1        1.0  0.02313  0.22438  0.20090  1.0000
  C   C2        1.0  0.97687  0.77562  0.79910  1.0000
  C   C3        1.0  0.86862  0.30302  0.22749  1.0000
  C   C4        1.0  0.13138  0.69698  0.77251  1.0000
  C   C5        1.0  0.73760  0.35103  0.12361  1.0000
  C   C6        1.0  0.26239  0.64897  0.87639  1.0000
  C   C7        1.0  0.76062  0.32552  0.99739  1.0000
  C   C8        1.0  0.23937  0.67448  0.00261  1.0000
  C   C9        1.0  0.92436  0.25639  0.97321  1.0000
  C   C10       1.0  0.07564  0.74360  0.02679  1.0000
  C   C11       1.0  0.05360  0.20487  0.07540  1.0000
  C   C12       1.0  0.94639  0.79513  0.92460  1.0000
  C   C13       1.0  0.84624  0.34614  0.36163  1.0000
  C   C14       1.0  0.15377  0.65386  0.63837  1.0000
  C   C15       1.0  0.98328  0.24789  0.84362  1.0000
  C   C16       1.0  0.01671  0.75211  0.15637  1.0000
  S   S1        1.0  0.21104  0.16303  0.32172  1.0000
  S   S2        1.0  0.78896  0.83697  0.67828  1.0000
  O   O1        1.0  0.08247  0.02168  0.38535  1.0000
  O   O2        1.0  0.91753  0.97832  0.61465  1.0000
  O   O3        1.0  0.30675  0.30481  0.41930  1.0000
  O   O4        1.0  0.69325  0.69519  0.58070  1.0000
  O   O5        1.0  0.37513  0.12649  0.25727  1.0000
  O   O6        1.0  0.62487  0.87351  0.74272  1.0000
  O   O7        1.0  0.85659  0.24376  0.44820  1.0000
  O   O8        1.0  0.14341  0.75624  0.55180  1.0000
  O   O9        1.0  0.81915  0.48318  0.38200  1.0000
  O   O10       1.0  0.18085  0.51682  0.61800  1.0000
  O   O11       1.0  0.17075  0.22524  0.83664  1.0000
  O   O12       1.0  0.82925  0.77475  0.16336  1.0000
  O   O13       1.0  0.85498  0.26642  0.74054  1.0000
  O   O14       1.0  0.14502  0.73358  0.25946  1.0000
  O   O15       1.0  0.37204  0.07394  0.63466  1.0000
  O   O16       1.0  0.62796  0.92607  0.36534  1.0000
  O   O17       1.0  0.52850  0.40629  0.69322  1.0000
  O   O18       1.0  0.47150  0.59371  0.30678  1.0000
