data_image0
_chemical_formula_structural       Lu2H14C16S2O18
_chemical_formula_sum              "Lu2 H14 C16 S2 O18"
_cell_length_a       6.33412
_cell_length_b       8.48187
_cell_length_c       10.539
_cell_angle_alpha    89.7922
_cell_angle_beta     79.8082
_cell_angle_gamma    72.2217

_space_group_name_H-M_alt    "P 1"
_space_group_IT_number       1

loop_
  _space_group_symop_operation_xyz
  'x, y, z'

loop_
  _atom_site_type_symbol
  _atom_site_label
  _atom_site_symmetry_multiplicity
  _atom_site_fract_x
  _atom_site_fract_y
  _atom_site_fract_z
  _atom_site_occupancy
  Lu  Lu1       1.0  0.15562  0.74671  0.38023  1.0000
  Lu  Lu2       1.0  0.84438  0.25329  0.61977  1.0000
  H   H1        1.0  0.61665  0.58869  0.85534  1.0000
  H   H2        1.0  0.38334  0.41132  0.14465  1.0000
  H   H3        1.0  0.65598  0.63310  0.08155  1.0000
  H   H4        1.0  0.34400  0.36692  0.91845  1.0000
  H   H5        1.0  0.18529  0.84553  0.94291  1.0000
  H   H6        1.0  0.81471  0.15447  0.05709  1.0000
  H   H7        1.0  0.51867  0.91479  0.32218  1.0000
  H   H8        1.0  0.48133  0.08520  0.67782  1.0000
  H   H9        1.0  0.28746  0.04177  0.39273  1.0000
  H   H10       1.0  0.71254  0.95823  0.60727  1.0000
  H   H11       1.0  0.65168  0.64081  0.29238  1.0000
  H   H12       1.0  0.34832  0.35919  0.70762  1.0000
  H   H13       1.0  0.57883  0.48901  0.35517  1.0000
  H   H14       1.0  0.42116  0.51099  0.64484  1.0000
  C   C1        1.0  0.02452  0.77656  0.79778  1.0000
  C   C2        1.0  0.97548  0.22343  0.20222  1.0000
  C   C3        1.0  0.86959  0.69760  0.77121  1.0000
  C   C4        1.0  0.13042  0.30240  0.22879  1.0000
  C   C5        1.0  0.73708  0.64900  0.87569  1.0000
  C   C6        1.0  0.26292  0.35101  0.12431  1.0000
  C   C7        1.0  0.76032  0.67327  0.00246  1.0000
  C   C8        1.0  0.23967  0.32674  0.99754  1.0000
  C   C9        1.0  0.92556  0.74159  0.02659  1.0000
  C   C10       1.0  0.07444  0.25841  0.97341  1.0000
  C   C11       1.0  0.05516  0.79461  0.92386  1.0000
  C   C12       1.0  0.94483  0.20539  0.07614  1.0000
  C   C13       1.0  0.84866  0.65497  0.63633  1.0000
  C   C14       1.0  0.15134  0.34503  0.36367  1.0000
  C   C15       1.0  0.98524  0.74716  0.15669  1.0000
  C   C16       1.0  0.01476  0.25284  0.84331  1.0000
  S   S1        1.0  0.21108  0.84169  0.67629  1.0000
  S   S2        1.0  0.78892  0.15831  0.32371  1.0000
  O   O1        1.0  0.08041  0.98898  0.61754  1.0000
  O   O2        1.0  0.91960  0.01103  0.38246  1.0000
  O   O3        1.0  0.30390  0.70238  0.57576  1.0000
  O   O4        1.0  0.69611  0.29762  0.42425  1.0000
  O   O5        1.0  0.37989  0.87289  0.74006  1.0000
  O   O6        1.0  0.62012  0.12711  0.25995  1.0000
  O   O7        1.0  0.86305  0.75788  0.54865  1.0000
  O   O8        1.0  0.13694  0.24211  0.45135  1.0000
  O   O9        1.0  0.81976  0.51742  0.61625  1.0000
  O   O10       1.0  0.18023  0.48257  0.38375  1.0000
  O   O11       1.0  0.17446  0.76786  0.16378  1.0000
  O   O12       1.0  0.82554  0.23214  0.83621  1.0000
  O   O13       1.0  0.85665  0.72811  0.26032  1.0000
  O   O14       1.0  0.14335  0.27189  0.73967  1.0000
  O   O15       1.0  0.36351  0.92405  0.36172  1.0000
  O   O16       1.0  0.63648  0.07595  0.63828  1.0000
  O   O17       1.0  0.52583  0.59109  0.30895  1.0000
  O   O18       1.0  0.47416  0.40891  0.69106  1.0000
