data_image0
_chemical_formula_structural       Ag4H32C16S4N4O16
_chemical_formula_sum              "Ag4 H32 C16 S4 N4 O16"
_cell_length_a       6.0809
_cell_length_b       7.33164
_cell_length_c       17.7039
_cell_angle_alpha    89.9999
_cell_angle_beta     97.4747
_cell_angle_gamma    90

_space_group_name_H-M_alt    "P 1"
_space_group_IT_number       1

loop_
  _space_group_symop_operation_xyz
  'x, y, z'

loop_
  _atom_site_type_symbol
  _atom_site_label
  _atom_site_symmetry_multiplicity
  _atom_site_fract_x
  _atom_site_fract_y
  _atom_site_fract_z
  _atom_site_occupancy
  Ag  Ag1       1.0  0.66757  0.51305  0.22483  1.0000
  Ag  Ag2       1.0  0.66757  0.98695  0.72483  1.0000
  Ag  Ag3       1.0  0.33242  0.48695  0.77517  1.0000
  Ag  Ag4       1.0  0.33242  0.01305  0.27517  1.0000
  H   H1        1.0  0.45533  0.55241  0.39075  1.0000
  H   H2        1.0  0.45533  0.94759  0.89075  1.0000
  H   H3        1.0  0.54467  0.44759  0.60926  1.0000
  H   H4        1.0  0.54467  0.05241  0.10925  1.0000
  H   H5        1.0  0.21227  0.44989  0.33953  1.0000
  H   H6        1.0  0.21227  0.05012  0.83953  1.0000
  H   H7        1.0  0.78773  0.55012  0.66047  1.0000
  H   H8        1.0  0.78773  0.94988  0.16047  1.0000
  H   H9        1.0  0.24150  0.39196  0.48157  1.0000
  H   H10       1.0  0.24150  0.10805  0.98157  1.0000
  H   H11       1.0  0.75851  0.60804  0.51843  1.0000
  H   H12       1.0  0.75850  0.89195  0.01843  1.0000
  H   H13       1.0  0.24673  0.18441  0.42847  1.0000
  H   H14       1.0  0.24673  0.31559  0.92847  1.0000
  H   H15       1.0  0.75327  0.81559  0.57154  1.0000
  H   H16       1.0  0.75327  0.68441  0.07153  1.0000
  H   H17       1.0  0.82326  0.12025  0.49827  1.0000
  H   H18       1.0  0.82326  0.37975  0.99826  1.0000
  H   H19       1.0  0.17674  0.87975  0.50173  1.0000
  H   H20       1.0  0.17674  0.62025  0.00173  1.0000
  H   H21       1.0  0.59564  0.02271  0.43722  1.0000
  H   H22       1.0  0.59564  0.47729  0.93722  1.0000
  H   H23       1.0  0.40437  0.97729  0.56278  1.0000
  H   H24       1.0  0.40436  0.52271  0.06278  1.0000
  H   H25       1.0  0.85155  0.37157  0.40286  1.0000
  H   H26       1.0  0.85155  0.12843  0.90286  1.0000
  H   H27       1.0  0.14846  0.62843  0.59714  1.0000
  H   H28       1.0  0.14845  0.87157  0.09714  1.0000
  H   H29       1.0  0.87597  0.15132  0.36005  1.0000
  H   H30       1.0  0.87596  0.34868  0.86005  1.0000
  H   H31       1.0  0.12404  0.84868  0.63995  1.0000
  H   H32       1.0  0.12404  0.65132  0.13995  1.0000
  C   C1        1.0  0.37066  0.42295  0.37508  1.0000
  C   C2        1.0  0.37066  0.07705  0.87508  1.0000
  C   C3        1.0  0.62935  0.57705  0.62492  1.0000
  C   C4        1.0  0.62934  0.92294  0.12492  1.0000
  C   C5        1.0  0.33797  0.31143  0.44524  1.0000
  C   C6        1.0  0.33797  0.18858  0.94524  1.0000
  C   C7        1.0  0.66203  0.68857  0.55476  1.0000
  C   C8        1.0  0.66203  0.81142  0.05476  1.0000
  C   C9        1.0  0.68241  0.15165  0.45482  1.0000
  C   C10       1.0  0.68240  0.34836  0.95482  1.0000
  C   C11       1.0  0.31760  0.84836  0.54518  1.0000
  C   C12       1.0  0.31760  0.65164  0.04518  1.0000
  C   C13       1.0  0.76635  0.24243  0.38698  1.0000
  C   C14       1.0  0.76634  0.25757  0.88698  1.0000
  C   C15       1.0  0.23366  0.75757  0.61302  1.0000
  C   C16       1.0  0.23365  0.74243  0.11302  1.0000
  S   S1        1.0  0.53703  0.29738  0.31449  1.0000
  S   S2        1.0  0.53703  0.20262  0.81449  1.0000
  S   S3        1.0  0.46297  0.70262  0.68551  1.0000
  S   S4        1.0  0.46297  0.79737  0.18551  1.0000
  N   N1        1.0  0.01521  0.26950  0.15942  1.0000
  N   N2        1.0  0.01520  0.23050  0.65942  1.0000
  N   N3        1.0  0.98481  0.73049  0.84057  1.0000
  N   N4        1.0  0.98481  0.76951  0.34057  1.0000
  O   O1        1.0  0.89200  0.40410  0.13447  1.0000
  O   O2        1.0  0.89199  0.09589  0.63447  1.0000
  O   O3        1.0  0.10800  0.59590  0.86553  1.0000
  O   O4        1.0  0.10800  0.90410  0.36553  1.0000
  O   O5        1.0  0.00149  0.20949  0.22642  1.0000
  O   O6        1.0  0.00150  0.29051  0.72642  1.0000
  O   O7        1.0  0.99850  0.79052  0.77358  1.0000
  O   O8        1.0  0.99850  0.70948  0.27358  1.0000
  O   O9        1.0  0.14543  0.19982  0.11833  1.0000
  O   O10       1.0  0.14541  0.30019  0.61833  1.0000
  O   O11       1.0  0.85455  0.80020  0.88167  1.0000
  O   O12       1.0  0.85455  0.69980  0.38167  1.0000
  O   O13       1.0  0.54140  0.26890  0.49172  1.0000
  O   O14       1.0  0.54140  0.23110  0.99172  1.0000
  O   O15       1.0  0.45861  0.73110  0.50828  1.0000
  O   O16       1.0  0.45860  0.76890  0.00828  1.0000
