data_image0
_chemical_formula_structural       Cd2H32C38N4O10
_chemical_formula_sum              "Cd2 H32 C38 N4 O10"
_cell_length_a       7.81722
_cell_length_b       10.3094
_cell_length_c       11.5565
_cell_angle_alpha    98.405
_cell_angle_beta     91.493
_cell_angle_gamma    98.7794

_space_group_name_H-M_alt    "P 1"
_space_group_IT_number       1

loop_
  _space_group_symop_operation_xyz
  'x, y, z'

loop_
  _atom_site_type_symbol
  _atom_site_label
  _atom_site_symmetry_multiplicity
  _atom_site_fract_x
  _atom_site_fract_y
  _atom_site_fract_z
  _atom_site_occupancy
  Cd  Cd1       1.0  0.28361  0.76453  0.37300  1.0000
  Cd  Cd2       1.0  0.71639  0.23547  0.62700  1.0000
  H   H1        1.0  0.13623  0.98423  0.41148  1.0000
  H   H2        1.0  0.86377  0.01577  0.58852  1.0000
  H   H3        1.0  0.28226  0.02742  0.52111  1.0000
  H   H4        1.0  0.71775  0.97258  0.47889  1.0000
  H   H5        1.0  0.06200  0.52731  0.19202  1.0000
  H   H6        1.0  0.93802  0.47269  0.80797  1.0000
  H   H7        1.0  0.92972  0.28527  0.17630  1.0000
  H   H8        1.0  0.07030  0.71474  0.82369  1.0000
  H   H9        1.0  0.97202  0.16746  0.34734  1.0000
  H   H10       1.0  0.02796  0.83254  0.65265  1.0000
  H   H11       1.0  0.14593  0.29061  0.52344  1.0000
  H   H12       1.0  0.85407  0.70939  0.47656  1.0000
  H   H13       1.0  0.51170  0.86143  0.61804  1.0000
  H   H14       1.0  0.48831  0.13857  0.38196  1.0000
  H   H15       1.0  0.60038  0.77474  0.79760  1.0000
  H   H16       1.0  0.39961  0.22525  0.20241  1.0000
  H   H17       1.0  0.49999  0.53215  0.81217  1.0000
  H   H18       1.0  0.49999  0.46784  0.18784  1.0000
  H   H19       1.0  0.31145  0.39350  0.65063  1.0000
  H   H20       1.0  0.68852  0.60650  0.34937  1.0000
  H   H21       1.0  0.65411  0.05378  0.22110  1.0000
  H   H22       1.0  0.34590  0.94622  0.77890  1.0000
  H   H23       1.0  0.64497  0.20462  0.07181  1.0000
  H   H24       1.0  0.35504  0.79539  0.92820  1.0000
  H   H25       1.0  0.74738  0.14340  0.87369  1.0000
  H   H26       1.0  0.25262  0.85661  0.12631  1.0000
  H   H27       1.0  0.85625  0.92820  0.82208  1.0000
  H   H28       1.0  0.14374  0.07180  0.17792  1.0000
  H   H29       1.0  0.85316  0.77304  0.96862  1.0000
  H   H30       1.0  0.14683  0.22696  0.03138  1.0000
  H   H31       1.0  0.76419  0.70972  0.14462  1.0000
  H   H32       1.0  0.23581  0.29028  0.85537  1.0000
  C   C1        1.0  0.07907  0.46960  0.26220  1.0000
  C   C2        1.0  0.92094  0.53040  0.73779  1.0000
  C   C3        1.0  0.00535  0.33669  0.25465  1.0000
  C   C4        1.0  0.99466  0.66331  0.74534  1.0000
  C   C5        1.0  0.02866  0.27148  0.35011  1.0000
  C   C6        1.0  0.97134  0.72853  0.64989  1.0000
  C   C7        1.0  0.12693  0.34054  0.44854  1.0000
  C   C8        1.0  0.87306  0.65947  0.55146  1.0000
  C   C9        1.0  0.19893  0.47386  0.44946  1.0000
  C   C10       1.0  0.80107  0.52615  0.55054  1.0000
  C   C11       1.0  0.46613  0.75883  0.62999  1.0000
  C   C12       1.0  0.53387  0.24117  0.37001  1.0000
  C   C13       1.0  0.51731  0.70938  0.72924  1.0000
  C   C14       1.0  0.48267  0.29062  0.27077  1.0000
  C   C15       1.0  0.46077  0.57630  0.73751  1.0000
  C   C16       1.0  0.53921  0.42369  0.26249  1.0000
  C   C17       1.0  0.35528  0.49779  0.64680  1.0000
  C   C18       1.0  0.64470  0.50220  0.35319  1.0000
  C   C19       1.0  0.30792  0.55381  0.54996  1.0000
  C   C20       1.0  0.69207  0.44619  0.45004  1.0000
  C   C21       1.0  0.75349  0.90328  0.10437  1.0000
  C   C22       1.0  0.24652  0.09672  0.89562  1.0000
  C   C23       1.0  0.69735  0.02608  0.13330  1.0000
  C   C24       1.0  0.30266  0.97393  0.86670  1.0000
  C   C25       1.0  0.69422  0.11107  0.05003  1.0000
  C   C26       1.0  0.30579  0.88894  0.94998  1.0000
  C   C27       1.0  0.75032  0.07611  0.93775  1.0000
  C   C28       1.0  0.24969  0.92390  0.06226  1.0000
  C   C29       1.0  0.80850  0.95460  0.90877  1.0000
  C   C30       1.0  0.19150  0.04540  0.09123  1.0000
  C   C31       1.0  0.80814  0.86832  0.99124  1.0000
  C   C32       1.0  0.19186  0.13168  0.00876  1.0000
  C   C33       1.0  0.75977  0.80893  0.19298  1.0000
  C   C34       1.0  0.24023  0.19107  0.80702  1.0000
  C   C35       1.0  0.59356  0.79727  0.26104  1.0000
  C   C36       1.0  0.40645  0.20273  0.73896  1.0000
  C   C37       1.0  0.92473  0.84750  0.27470  1.0000
  C   C38       1.0  0.07528  0.15250  0.72529  1.0000
  N   N1        1.0  0.17284  0.53582  0.35713  1.0000
  N   N2        1.0  0.82716  0.46418  0.64287  1.0000
  N   N3        1.0  0.36325  0.68315  0.54329  1.0000
  N   N4        1.0  0.63676  0.31685  0.45671  1.0000
  O   O1        1.0  0.45836  0.72595  0.20867  1.0000
  O   O2        1.0  0.54164  0.27405  0.79132  1.0000
  O   O3        1.0  0.59352  0.85593  0.36613  1.0000
  O   O4        1.0  0.40650  0.14406  0.63387  1.0000
  O   O5        1.0  0.01861  0.75615  0.27519  1.0000
  O   O6        1.0  0.98139  0.24385  0.72481  1.0000
  O   O7        1.0  0.95533  0.96212  0.33413  1.0000
  O   O8        1.0  0.04468  0.03788  0.66587  1.0000
  O   O9        1.0  0.25831  0.97989  0.43997  1.0000
  O   O10       1.0  0.74170  0.02011  0.56003  1.0000
