data_image0
_chemical_formula_structural       Cd4H44C48S4N4O28
_chemical_formula_sum              "Cd4 H44 C48 S4 N4 O28"
_cell_length_a       7.4178
_cell_length_b       11.9087
_cell_length_c       15.6453
_cell_angle_alpha    90
_cell_angle_beta     90.6607
_cell_angle_gamma    90

_space_group_name_H-M_alt    "P 1"
_space_group_IT_number       1

loop_
  _space_group_symop_operation_xyz
  'x, y, z'

loop_
  _atom_site_type_symbol
  _atom_site_label
  _atom_site_symmetry_multiplicity
  _atom_site_fract_x
  _atom_site_fract_y
  _atom_site_fract_z
  _atom_site_occupancy
  Cd  Cd1       1.0  0.69227  0.50564  0.83258  1.0000
  Cd  Cd2       1.0  0.80773  0.00564  0.66742  1.0000
  Cd  Cd3       1.0  0.30773  0.49436  0.16742  1.0000
  Cd  Cd4       1.0  0.19227  0.99436  0.33258  1.0000
  H   H1        1.0  0.51235  0.69637  0.74348  1.0000
  H   H2        1.0  0.98765  0.19637  0.75652  1.0000
  H   H3        1.0  0.48764  0.30363  0.25652  1.0000
  H   H4        1.0  0.01235  0.80363  0.24348  1.0000
  H   H5        1.0  0.69886  0.69273  0.70032  1.0000
  H   H6        1.0  0.80114  0.19273  0.79968  1.0000
  H   H7        1.0  0.30114  0.30727  0.29968  1.0000
  H   H8        1.0  0.19886  0.80727  0.20032  1.0000
  H   H9        1.0  0.36549  0.56462  0.92346  1.0000
  H   H10       1.0  0.13451  0.06462  0.57654  1.0000
  H   H11       1.0  0.63451  0.43538  0.07654  1.0000
  H   H12       1.0  0.86549  0.93537  0.42346  1.0000
  H   H13       1.0  0.30953  0.52723  0.82486  1.0000
  H   H14       1.0  0.19047  0.02723  0.67514  1.0000
  H   H15       1.0  0.69047  0.47277  0.17515  1.0000
  H   H16       1.0  0.80952  0.97277  0.32486  1.0000
  H   H17       1.0  0.94148  0.70885  0.78893  1.0000
  H   H18       1.0  0.55852  0.20885  0.71106  1.0000
  H   H19       1.0  0.05852  0.29115  0.21107  1.0000
  H   H20       1.0  0.44148  0.79115  0.28893  1.0000
  H   H21       1.0  0.02317  0.89161  0.85096  1.0000
  H   H22       1.0  0.47683  0.39161  0.64904  1.0000
  H   H23       1.0  0.97683  0.10839  0.14904  1.0000
  H   H24       1.0  0.52317  0.60839  0.35096  1.0000
  H   H25       1.0  0.84685  0.76537  0.09628  1.0000
  H   H26       1.0  0.65315  0.26538  0.40372  1.0000
  H   H27       1.0  0.15315  0.23462  0.90372  1.0000
  H   H28       1.0  0.34685  0.73463  0.59628  1.0000
  H   H29       1.0  0.76272  0.58773  0.02247  1.0000
  H   H30       1.0  0.73729  0.08773  0.47752  1.0000
  H   H31       1.0  0.23728  0.41227  0.97753  1.0000
  H   H32       1.0  0.26272  0.91227  0.52247  1.0000
  H   H33       1.0  0.96893  0.95178  0.09072  1.0000
  H   H34       1.0  0.53107  0.45178  0.40928  1.0000
  H   H35       1.0  0.03107  0.04822  0.90928  1.0000
  H   H36       1.0  0.46893  0.54822  0.59072  1.0000
  H   H37       1.0  0.16131  0.24561  0.59983  1.0000
  H   H38       1.0  0.33869  0.74561  0.90017  1.0000
  H   H39       1.0  0.83868  0.75439  0.40017  1.0000
  H   H40       1.0  0.66132  0.25439  0.09983  1.0000
  H   H41       1.0  0.02937  0.37455  0.35061  1.0000
  H   H42       1.0  0.47063  0.87455  0.14939  1.0000
  H   H43       1.0  0.97063  0.62545  0.64939  1.0000
  H   H44       1.0  0.52937  0.12545  0.85061  1.0000
  C   C1        1.0  0.91986  0.72490  0.85655  1.0000
  C   C2        1.0  0.58014  0.22490  0.64344  1.0000
  C   C3        1.0  0.08014  0.27510  0.14345  1.0000
  C   C4        1.0  0.41986  0.77510  0.35655  1.0000
  C   C5        1.0  0.96528  0.82745  0.89185  1.0000
  C   C6        1.0  0.53472  0.32745  0.60815  1.0000
  C   C7        1.0  0.03472  0.17255  0.10815  1.0000
  C   C8        1.0  0.46528  0.67255  0.39185  1.0000
  C   C9        1.0  0.93714  0.84642  0.97954  1.0000
  C   C10       1.0  0.56286  0.34643  0.52046  1.0000
  C   C11       1.0  0.06286  0.15358  0.02046  1.0000
  C   C12       1.0  0.43714  0.65358  0.47954  1.0000
  C   C13       1.0  0.86822  0.75681  0.02774  1.0000
  C   C14       1.0  0.63178  0.25682  0.47226  1.0000
  C   C15       1.0  0.13178  0.24319  0.97226  1.0000
  C   C16       1.0  0.36822  0.74319  0.52774  1.0000
  C   C17       1.0  0.82256  0.65696  0.98723  1.0000
  C   C18       1.0  0.67745  0.15697  0.51277  1.0000
  C   C19       1.0  0.17744  0.34304  0.01277  1.0000
  C   C20       1.0  0.32256  0.84304  0.48723  1.0000
  C   C21       1.0  0.97730  0.95258  0.02102  1.0000
  C   C22       1.0  0.52269  0.45259  0.47897  1.0000
  C   C23       1.0  0.02270  0.04742  0.97897  1.0000
  C   C24       1.0  0.47731  0.54742  0.52103  1.0000
  C   C25       1.0  0.00638  0.50753  0.54546  1.0000
  C   C26       1.0  0.49362  0.00753  0.95454  1.0000
  C   C27       1.0  0.99362  0.49247  0.45454  1.0000
  C   C28       1.0  0.50638  0.99247  0.04546  1.0000
  C   C29       1.0  0.06767  0.41475  0.59604  1.0000
  C   C30       1.0  0.43233  0.91475  0.90396  1.0000
  C   C31       1.0  0.93233  0.58525  0.40396  1.0000
  C   C32       1.0  0.56767  0.08525  0.09604  1.0000
  C   C33       1.0  0.11542  0.31441  0.55953  1.0000
  C   C34       1.0  0.38458  0.81442  0.94047  1.0000
  C   C35       1.0  0.88458  0.68558  0.44047  1.0000
  C   C36       1.0  0.61542  0.18559  0.05953  1.0000
  C   C37       1.0  0.10523  0.30114  0.46993  1.0000
  C   C38       1.0  0.39476  0.80114  0.03007  1.0000
  C   C39       1.0  0.89476  0.69886  0.53007  1.0000
  C   C40       1.0  0.60523  0.19886  0.96993  1.0000
  C   C41       1.0  0.04338  0.38803  0.41897  1.0000
  C   C42       1.0  0.45662  0.88804  0.08103  1.0000
  C   C43       1.0  0.95662  0.61196  0.58103  1.0000
  C   C44       1.0  0.54338  0.11197  0.91897  1.0000
  C   C45       1.0  0.15607  0.19191  0.43028  1.0000
  C   C46       1.0  0.34393  0.69191  0.06972  1.0000
  C   C47       1.0  0.84393  0.80809  0.56972  1.0000
  C   C48       1.0  0.65607  0.30809  0.93028  1.0000
  S   S1        1.0  0.07226  0.42374  0.70961  1.0000
  S   S2        1.0  0.42774  0.92374  0.79039  1.0000
  S   S3        1.0  0.92774  0.57626  0.29039  1.0000
  S   S4        1.0  0.57226  0.07626  0.20961  1.0000
  N   N1        1.0  0.84579  0.64133  0.90278  1.0000
  N   N2        1.0  0.65421  0.14133  0.59722  1.0000
  N   N3        1.0  0.15421  0.35867  0.09722  1.0000
  N   N4        1.0  0.34579  0.85867  0.40278  1.0000
  O   O1        1.0  0.16830  0.18826  0.34847  1.0000
  O   O2        1.0  0.33170  0.68826  0.15153  1.0000
  O   O3        1.0  0.83170  0.81174  0.65154  1.0000
  O   O4        1.0  0.66830  0.31174  0.84847  1.0000
  O   O5        1.0  0.18392  0.10623  0.47692  1.0000
  O   O6        1.0  0.31608  0.60623  0.02308  1.0000
  O   O7        1.0  0.81608  0.89377  0.52309  1.0000
  O   O8        1.0  0.68392  0.39377  0.97692  1.0000
  O   O9        1.0  0.19385  0.51720  0.73177  1.0000
  O   O10       1.0  0.30615  0.01720  0.76823  1.0000
  O   O11       1.0  0.80615  0.48280  0.26823  1.0000
  O   O12       1.0  0.69385  0.98280  0.23177  1.0000
  O   O13       1.0  0.13361  0.31481  0.74236  1.0000
  O   O14       1.0  0.36639  0.81481  0.75764  1.0000
  O   O15       1.0  0.86639  0.68519  0.25764  1.0000
  O   O16       1.0  0.63361  0.18519  0.24236  1.0000
  O   O17       1.0  0.88191  0.44899  0.72875  1.0000
  O   O18       1.0  0.61809  0.94899  0.77125  1.0000
  O   O19       1.0  0.11809  0.55101  0.27125  1.0000
  O   O20       1.0  0.38191  0.05101  0.22875  1.0000
  O   O21       1.0  0.60729  0.64283  0.72581  1.0000
  O   O22       1.0  0.89271  0.14283  0.77419  1.0000
  O   O23       1.0  0.39271  0.35717  0.27419  1.0000
  O   O24       1.0  0.10729  0.85717  0.22581  1.0000
  O   O25       1.0  0.40062  0.52131  0.87167  1.0000
  O   O26       1.0  0.09939  0.02131  0.62833  1.0000
  O   O27       1.0  0.59938  0.47869  0.12833  1.0000
  O   O28       1.0  0.90062  0.97868  0.37167  1.0000
