data_image0
_chemical_formula_structural       Cd3H44C52N12Cl6
_chemical_formula_sum              "Cd3 H44 C52 N12 Cl6"
_cell_length_a       10.5045
_cell_length_b       10.633
_cell_length_c       13.016
_cell_angle_alpha    89.1284
_cell_angle_beta     74.4578
_cell_angle_gamma    69.7729

_space_group_name_H-M_alt    "P 1"
_space_group_IT_number       1

loop_
  _space_group_symop_operation_xyz
  'x, y, z'

loop_
  _atom_site_type_symbol
  _atom_site_label
  _atom_site_symmetry_multiplicity
  _atom_site_fract_x
  _atom_site_fract_y
  _atom_site_fract_z
  _atom_site_occupancy
  Cd  Cd1       1.0  1.00000  1.00000  0.50000  1.0000
  Cd  Cd2       1.0  0.96847  0.71546  0.68457  1.0000
  Cd  Cd3       1.0  0.03153  0.28454  0.31543  1.0000
  H   H1        1.0  0.78766  0.55508  0.85680  1.0000
  H   H2        1.0  0.21234  0.44492  0.14320  1.0000
  H   H3        1.0  0.72337  0.93739  0.62476  1.0000
  H   H4        1.0  0.27662  0.06261  0.37524  1.0000
  H   H5        1.0  0.19757  0.42982  0.44965  1.0000
  H   H6        1.0  0.80243  0.57017  0.55035  1.0000
  H   H7        1.0  0.18382  0.70902  0.24958  1.0000
  H   H8        1.0  0.81618  0.29098  0.75042  1.0000
  H   H9        1.0  0.84173  0.64803  0.21930  1.0000
  H   H10       1.0  0.15826  0.35197  0.78070  1.0000
  H   H11       1.0  0.96757  0.80406  0.23664  1.0000
  H   H12       1.0  0.03243  0.19594  0.76336  1.0000
  H   H13       1.0  0.07611  0.90150  0.07929  1.0000
  H   H14       1.0  0.92390  0.09850  0.92071  1.0000
  H   H15       1.0  0.05086  0.85844  0.89771  1.0000
  H   H16       1.0  0.94914  0.14156  0.10229  1.0000
  H   H17       1.0  0.40059  0.45506  0.49341  1.0000
  H   H18       1.0  0.59941  0.54494  0.50659  1.0000
  H   H19       1.0  0.56628  0.40692  0.39128  1.0000
  H   H20       1.0  0.43372  0.59307  0.60872  1.0000
  H   H21       1.0  0.34449  0.23401  0.57987  1.0000
  H   H22       1.0  0.65551  0.76599  0.42013  1.0000
  H   H23       1.0  0.76014  0.24678  0.43641  1.0000
  H   H24       1.0  0.23986  0.75322  0.56359  1.0000
  H   H25       1.0  0.71279  0.18868  0.25596  1.0000
  H   H26       1.0  0.28721  0.81132  0.74403  1.0000
  H   H27       1.0  0.77435  0.02538  0.09894  1.0000
  H   H28       1.0  0.22565  0.97462  0.90106  1.0000
  H   H29       1.0  0.58983  0.98314  0.03771  1.0000
  H   H30       1.0  0.41017  0.01686  0.96228  1.0000
  H   H31       1.0  0.76678  0.41610  0.01987  1.0000
  H   H32       1.0  0.23322  0.58390  0.98013  1.0000
  H   H33       1.0  0.78860  0.47447  0.13831  1.0000
  H   H34       1.0  0.21140  0.52553  0.86169  1.0000
  H   H35       1.0  0.57847  0.77606  0.14103  1.0000
  H   H36       1.0  0.42153  0.22394  0.85897  1.0000
  H   H37       1.0  0.33270  0.10263  0.13028  1.0000
  H   H38       1.0  0.66730  0.89737  0.86972  1.0000
  H   H39       1.0  0.54513  0.38855  0.09866  1.0000
  H   H40       1.0  0.45487  0.61145  0.90134  1.0000
  H   H41       1.0  0.45896  0.02791  0.66563  1.0000
  H   H42       1.0  0.54104  0.97209  0.33437  1.0000
  H   H43       1.0  0.31502  0.86706  0.22408  1.0000
  H   H44       1.0  0.68498  0.13294  0.77592  1.0000
  C   C1        1.0  0.83020  0.60573  0.90428  1.0000
  C   C2        1.0  0.16980  0.39427  0.09572  1.0000
  C   C3        1.0  0.93001  0.73073  0.95788  1.0000
  C   C4        1.0  0.06999  0.26928  0.04212  1.0000
  C   C5        1.0  0.37928  0.21578  0.24326  1.0000
  C   C6        1.0  0.62072  0.78422  0.75674  1.0000
  C   C7        1.0  0.66864  0.02867  0.59224  1.0000
  C   C8        1.0  0.33135  0.97133  0.40776  1.0000
  C   C9        1.0  0.27566  0.36044  0.38340  1.0000
  C   C10       1.0  0.72434  0.63956  0.61660  1.0000
  C   C11       1.0  0.29690  0.67320  0.20942  1.0000
  C   C12       1.0  0.70310  0.32680  0.79058  1.0000
  C   C13       1.0  0.87240  0.67177  0.04877  1.0000
  C   C14       1.0  0.12760  0.32823  0.95123  1.0000
  C   C15       1.0  0.88453  0.69555  0.15036  1.0000
  C   C16       1.0  0.11546  0.30445  0.84964  1.0000
  C   C17       1.0  0.95772  0.78031  0.15856  1.0000
  C   C18       1.0  0.04227  0.21969  0.84144  1.0000
  C   C19       1.0  0.01830  0.83734  0.06849  1.0000
  C   C20       1.0  0.98170  0.16266  0.93151  1.0000
  C   C21       1.0  0.00497  0.81422  0.96742  1.0000
  C   C22       1.0  0.99503  0.18578  0.03258  1.0000
  C   C23       1.0  0.48343  0.37173  0.43853  1.0000
  C   C24       1.0  0.51657  0.62827  0.56147  1.0000
  C   C25       1.0  0.54464  0.25469  0.49955  1.0000
  C   C26       1.0  0.45536  0.74531  0.50046  1.0000
  C   C27       1.0  0.45892  0.19328  0.56625  1.0000
  C   C28       1.0  0.54107  0.80672  0.43375  1.0000
  C   C29       1.0  0.69010  0.20009  0.48573  1.0000
  C   C30       1.0  0.30990  0.79991  0.51427  1.0000
  C   C31       1.0  0.63058  0.17185  0.22803  1.0000
  C   C32       1.0  0.36942  0.82815  0.77197  1.0000
  C   C33       1.0  0.66397  0.08100  0.14042  1.0000
  C   C34       1.0  0.33603  0.91900  0.85958  1.0000
  C   C35       1.0  0.55790  0.05679  0.10555  1.0000
  C   C36       1.0  0.44210  0.94322  0.89445  1.0000
  C   C37       1.0  0.48687  0.23824  0.27817  1.0000
  C   C38       1.0  0.51313  0.76176  0.72183  1.0000
  C   C39       1.0  0.74106  0.50672  0.07206  1.0000
  C   C40       1.0  0.25894  0.49328  0.92794  1.0000
  C   C41       1.0  0.58329  0.57322  0.11648  1.0000
  C   C42       1.0  0.41671  0.42678  0.88352  1.0000
  C   C43       1.0  0.51707  0.71012  0.15044  1.0000
  C   C44       1.0  0.48293  0.28988  0.84956  1.0000
  C   C45       1.0  0.41474  0.12283  0.15600  1.0000
  C   C46       1.0  0.58527  0.87717  0.84399  1.0000
  C   C47       1.0  0.49793  0.49495  0.12813  1.0000
  C   C48       1.0  0.50207  0.50505  0.87187  1.0000
  C   C49       1.0  0.52195  0.07881  0.61356  1.0000
  C   C50       1.0  0.47805  0.92119  0.38645  1.0000
  C   C51       1.0  0.37148  0.76106  0.19684  1.0000
  C   C52       1.0  0.62852  0.23894  0.80316  1.0000
  N   N1        1.0  0.35800  0.54217  0.17433  1.0000
  N   N2        1.0  0.64200  0.45783  0.82567  1.0000
  N   N3        1.0  0.75111  0.08897  0.53058  1.0000
  N   N4        1.0  0.24889  0.91103  0.46942  1.0000
  N   N5        1.0  0.90104  0.68725  0.86921  1.0000
  N   N6        1.0  0.09896  0.31276  0.13079  1.0000
  N   N7        1.0  0.24852  0.29404  0.31120  1.0000
  N   N8        1.0  0.75148  0.70596  0.68880  1.0000
  N   N9        1.0  0.81055  0.59259  0.01114  1.0000
  N   N10       1.0  0.18945  0.40741  0.98886  1.0000
  N   N11       1.0  0.41664  0.33111  0.36675  1.0000
  N   N12       1.0  0.58336  0.66889  0.63325  1.0000
  Cl  Cl1       1.0  0.00069  0.75145  0.47528  1.0000
  Cl  Cl2       1.0  0.99931  0.24855  0.52472  1.0000
  Cl  Cl3       1.0  0.03211  0.04614  0.29015  1.0000
  Cl  Cl4       1.0  0.96789  0.95386  0.70986  1.0000
  Cl  Cl5       1.0  0.20399  0.53442  0.65916  1.0000
  Cl  Cl6       1.0  0.79602  0.46558  0.34084  1.0000
