data_image0
_chemical_formula_structural       Tb4H28C52N8O24
_chemical_formula_sum              "Tb4 H28 C52 N8 O24"
_cell_length_a       6.75267
_cell_length_b       12.9105
_cell_length_c       14.586
_cell_angle_alpha    90
_cell_angle_beta     92.4458
_cell_angle_gamma    90

_space_group_name_H-M_alt    "P 1"
_space_group_IT_number       1

loop_
  _space_group_symop_operation_xyz
  'x, y, z'

loop_
  _atom_site_type_symbol
  _atom_site_label
  _atom_site_symmetry_multiplicity
  _atom_site_fract_x
  _atom_site_fract_y
  _atom_site_fract_z
  _atom_site_occupancy
  Tb  Tb1       1.0  0.38615  0.62755  0.44658  1.0000
  Tb  Tb2       1.0  0.11384  0.12755  0.55342  1.0000
  Tb  Tb3       1.0  0.61384  0.37245  0.55342  1.0000
  Tb  Tb4       1.0  0.88616  0.87245  0.44658  1.0000
  H   H1        1.0  0.80275  0.49579  0.75842  1.0000
  H   H2        1.0  0.69724  0.99578  0.24158  1.0000
  H   H3        1.0  0.19725  0.50422  0.24158  1.0000
  H   H4        1.0  0.30275  0.00422  0.75842  1.0000
  H   H5        1.0  0.72304  0.52142  0.92551  1.0000
  H   H6        1.0  0.77697  0.02142  0.07449  1.0000
  H   H7        1.0  0.27697  0.47858  0.07449  1.0000
  H   H8        1.0  0.22304  0.97858  0.92552  1.0000
  H   H9        1.0  0.09462  0.21243  0.83977  1.0000
  H   H10       1.0  0.40538  0.71243  0.16023  1.0000
  H   H11       1.0  0.90538  0.78757  0.16023  1.0000
  H   H12       1.0  0.59462  0.28757  0.83977  1.0000
  H   H13       1.0  0.94809  0.24739  0.10963  1.0000
  H   H14       1.0  0.55192  0.74739  0.89038  1.0000
  H   H15       1.0  0.05191  0.75261  0.89038  1.0000
  H   H16       1.0  0.44809  0.25261  0.10962  1.0000
  H   H17       1.0  0.85651  0.27718  0.27474  1.0000
  H   H18       1.0  0.64349  0.77718  0.72526  1.0000
  H   H19       1.0  0.14349  0.72282  0.72526  1.0000
  H   H20       1.0  0.35651  0.22282  0.27474  1.0000
  H   H21       1.0  0.58708  0.56383  0.18542  1.0000
  H   H22       1.0  0.91292  0.06383  0.81458  1.0000
  H   H23       1.0  0.41292  0.43617  0.81458  1.0000
  H   H24       1.0  0.08708  0.93617  0.18542  1.0000
  H   H25       1.0  0.94469  0.63034  0.55811  1.0000
  H   H26       1.0  0.55531  0.13035  0.44190  1.0000
  H   H27       1.0  0.05531  0.36965  0.44190  1.0000
  H   H28       1.0  0.44469  0.86966  0.55811  1.0000
  C   C1        1.0  0.98761  0.32582  0.68956  1.0000
  C   C2        1.0  0.51238  0.82581  0.31044  1.0000
  C   C3        1.0  0.01239  0.67419  0.31044  1.0000
  C   C4        1.0  0.48761  0.17418  0.68956  1.0000
  C   C5        1.0  0.95432  0.35149  0.78711  1.0000
  C   C6        1.0  0.54568  0.85149  0.21289  1.0000
  C   C7        1.0  0.04568  0.64851  0.21289  1.0000
  C   C8        1.0  0.45432  0.14851  0.78711  1.0000
  C   C9        1.0  0.85013  0.44043  0.81125  1.0000
  C   C10       1.0  0.64987  0.94043  0.18875  1.0000
  C   C11       1.0  0.14987  0.55957  0.18875  1.0000
  C   C12       1.0  0.35013  0.05957  0.81125  1.0000
  C   C13       1.0  0.80571  0.45475  0.90228  1.0000
  C   C14       1.0  0.69429  0.95475  0.09771  1.0000
  C   C15       1.0  0.19429  0.54525  0.09772  1.0000
  C   C16       1.0  0.30571  0.04525  0.90229  1.0000
  C   C17       1.0  0.86599  0.37902  0.96691  1.0000
  C   C18       1.0  0.63401  0.87901  0.03309  1.0000
  C   C19       1.0  0.13401  0.62099  0.03309  1.0000
  C   C20       1.0  0.36599  0.12098  0.96691  1.0000
  C   C21       1.0  0.01274  0.28195  0.85714  1.0000
  C   C22       1.0  0.48726  0.78196  0.14286  1.0000
  C   C23       1.0  0.98726  0.71804  0.14285  1.0000
  C   C24       1.0  0.51274  0.21804  0.85714  1.0000
  C   C25       1.0  0.81346  0.39072  0.06375  1.0000
  C   C26       1.0  0.68655  0.89072  0.93625  1.0000
  C   C27       1.0  0.18655  0.60928  0.93625  1.0000
  C   C28       1.0  0.31345  0.10928  0.06375  1.0000
  C   C29       1.0  0.86768  0.31597  0.13035  1.0000
  C   C30       1.0  0.63232  0.81597  0.86965  1.0000
  C   C31       1.0  0.13232  0.68403  0.86965  1.0000
  C   C32       1.0  0.36768  0.18403  0.13035  1.0000
  C   C33       1.0  0.81727  0.33270  0.22054  1.0000
  C   C34       1.0  0.68273  0.83270  0.77946  1.0000
  C   C35       1.0  0.18273  0.66730  0.77946  1.0000
  C   C36       1.0  0.31727  0.16730  0.22054  1.0000
  C   C37       1.0  0.65549  0.44946  0.33600  1.0000
  C   C38       1.0  0.84450  0.94946  0.66401  1.0000
  C   C39       1.0  0.34451  0.55054  0.66401  1.0000
  C   C40       1.0  0.15549  0.05054  0.33599  1.0000
  C   C41       1.0  0.71472  0.42336  0.24172  1.0000
  C   C42       1.0  0.78528  0.92336  0.75828  1.0000
  C   C43       1.0  0.28529  0.57664  0.75828  1.0000
  C   C44       1.0  0.21471  0.07664  0.24172  1.0000
  C   C45       1.0  0.66650  0.49279  0.17013  1.0000
  C   C46       1.0  0.83350  0.99279  0.82987  1.0000
  C   C47       1.0  0.33350  0.50721  0.82987  1.0000
  C   C48       1.0  0.16650  0.00721  0.17013  1.0000
  C   C49       1.0  0.79077  0.63037  0.52937  1.0000
  C   C50       1.0  0.70924  0.13038  0.47063  1.0000
  C   C51       1.0  0.20924  0.36962  0.47063  1.0000
  C   C52       1.0  0.29076  0.86963  0.52937  1.0000
  N   N1        1.0  0.97058  0.29437  0.94488  1.0000
  N   N2        1.0  0.52942  0.79437  0.05511  1.0000
  N   N3        1.0  0.02942  0.70563  0.05511  1.0000
  N   N4        1.0  0.47058  0.20563  0.94489  1.0000
  N   N5        1.0  0.71279  0.47753  0.08358  1.0000
  N   N6        1.0  0.78722  0.97753  0.91642  1.0000
  N   N7        1.0  0.28722  0.52247  0.91642  1.0000
  N   N8        1.0  0.21278  0.02247  0.08358  1.0000
  O   O1        1.0  0.08086  0.24360  0.67219  1.0000
  O   O2        1.0  0.41914  0.74360  0.32781  1.0000
  O   O3        1.0  0.91914  0.75640  0.32781  1.0000
  O   O4        1.0  0.58086  0.25640  0.67219  1.0000
  O   O5        1.0  0.56969  0.53633  0.34593  1.0000
  O   O6        1.0  0.93031  0.03633  0.65407  1.0000
  O   O7        1.0  0.43031  0.46367  0.65407  1.0000
  O   O8        1.0  0.06968  0.96367  0.34593  1.0000
  O   O9        1.0  0.91347  0.38664  0.62719  1.0000
  O   O10       1.0  0.58653  0.88664  0.37281  1.0000
  O   O11       1.0  0.08654  0.61336  0.37281  1.0000
  O   O12       1.0  0.41347  0.11336  0.62719  1.0000
  O   O13       1.0  0.68713  0.54891  0.53382  1.0000
  O   O14       1.0  0.81286  0.04892  0.46618  1.0000
  O   O15       1.0  0.31286  0.45109  0.46618  1.0000
  O   O16       1.0  0.18713  0.95109  0.53382  1.0000
  O   O17       1.0  0.69235  0.38365  0.40004  1.0000
  O   O18       1.0  0.80764  0.88365  0.59996  1.0000
  O   O19       1.0  0.30764  0.61634  0.59996  1.0000
  O   O20       1.0  0.19235  0.11635  0.40004  1.0000
  O   O21       1.0  0.71685  0.71203  0.49258  1.0000
  O   O22       1.0  0.78316  0.21204  0.50742  1.0000
  O   O23       1.0  0.28316  0.28796  0.50742  1.0000
  O   O24       1.0  0.21685  0.78797  0.49258  1.0000
