data_image0
_chemical_formula_structural       Er4H20C36O24
_chemical_formula_sum              "Er4 H20 C36 O24"
_cell_length_a       6.57249
_cell_length_b       10.6421
_cell_length_c       12.7993
_cell_angle_alpha    89.9999
_cell_angle_beta     89.9997
_cell_angle_gamma    95.1773

_space_group_name_H-M_alt    "P 1"
_space_group_IT_number       1

loop_
  _space_group_symop_operation_xyz
  'x, y, z'

loop_
  _atom_site_type_symbol
  _atom_site_label
  _atom_site_symmetry_multiplicity
  _atom_site_fract_x
  _atom_site_fract_y
  _atom_site_fract_z
  _atom_site_occupancy
  Er  Er1       1.0  0.39956  0.57387  0.12687  1.0000
  Er  Er2       1.0  0.10044  0.42613  0.62687  1.0000
  Er  Er3       1.0  0.60044  0.42613  0.87313  1.0000
  Er  Er4       1.0  0.89956  0.57387  0.37313  1.0000
  H   H1        1.0  0.98211  0.97223  0.27948  1.0000
  H   H2        1.0  0.51789  0.02777  0.77948  1.0000
  H   H3        1.0  0.01789  0.02776  0.72052  1.0000
  H   H4        1.0  0.48211  0.97224  0.22052  1.0000
  H   H5        1.0  0.93092  0.41683  0.13340  1.0000
  H   H6        1.0  0.56907  0.58317  0.63340  1.0000
  H   H7        1.0  0.06908  0.58317  0.86661  1.0000
  H   H8        1.0  0.43093  0.41683  0.36661  1.0000
  H   H9        1.0  0.08778  0.19614  0.22847  1.0000
  H   H10       1.0  0.41221  0.80385  0.72847  1.0000
  H   H11       1.0  0.91221  0.80385  0.77153  1.0000
  H   H12       1.0  0.58779  0.19615  0.27153  1.0000
  H   H13       1.0  0.34632  0.06610  0.94454  1.0000
  H   H14       1.0  0.15369  0.93390  0.44455  1.0000
  H   H15       1.0  0.65368  0.93389  0.05546  1.0000
  H   H16       1.0  0.84632  0.06610  0.55546  1.0000
  H   H17       1.0  0.24530  0.84213  0.99674  1.0000
  H   H18       1.0  0.25471  0.15788  0.49674  1.0000
  H   H19       1.0  0.75470  0.15787  0.00326  1.0000
  H   H20       1.0  0.74530  0.84213  0.50326  1.0000
  C   C1        1.0  0.29863  0.27549  0.05170  1.0000
  C   C2        1.0  0.20137  0.72450  0.55170  1.0000
  C   C3        1.0  0.70137  0.72450  0.94830  1.0000
  C   C4        1.0  0.79864  0.27550  0.44830  1.0000
  C   C5        1.0  0.78349  0.45878  0.13145  1.0000
  C   C6        1.0  0.71651  0.54122  0.63143  1.0000
  C   C7        1.0  0.21651  0.54121  0.86855  1.0000
  C   C8        1.0  0.28349  0.45878  0.36857  1.0000
  C   C9        1.0  0.10761  0.89403  0.14119  1.0000
  C   C10       1.0  0.39239  0.10597  0.64119  1.0000
  C   C11       1.0  0.89238  0.10597  0.85881  1.0000
  C   C12       1.0  0.60761  0.89403  0.35881  1.0000
  C   C13       1.0  0.06154  0.99383  0.20616  1.0000
  C   C14       1.0  0.43846  0.00617  0.70616  1.0000
  C   C15       1.0  0.93846  0.00617  0.79384  1.0000
  C   C16       1.0  0.56154  0.99383  0.29384  1.0000
  C   C17       1.0  0.12076  0.11813  0.17786  1.0000
  C   C18       1.0  0.37924  0.88187  0.67786  1.0000
  C   C19       1.0  0.87924  0.88187  0.82214  1.0000
  C   C20       1.0  0.62077  0.11813  0.32214  1.0000
  C   C21       1.0  0.22548  0.14383  0.08366  1.0000
  C   C22       1.0  0.27453  0.85617  0.58366  1.0000
  C   C23       1.0  0.77453  0.85617  0.91634  1.0000
  C   C24       1.0  0.72548  0.14383  0.41634  1.0000
  C   C25       1.0  0.26743  0.04399  0.01783  1.0000
  C   C26       1.0  0.23257  0.95601  0.51783  1.0000
  C   C27       1.0  0.73257  0.95601  0.98217  1.0000
  C   C28       1.0  0.76743  0.04399  0.48217  1.0000
  C   C29       1.0  0.05889  0.76009  0.17451  1.0000
  C   C30       1.0  0.44109  0.23991  0.67450  1.0000
  C   C31       1.0  0.94111  0.23990  0.82549  1.0000
  C   C32       1.0  0.55890  0.76010  0.32550  1.0000
  C   C33       1.0  0.21024  0.92015  0.04660  1.0000
  C   C34       1.0  0.28977  0.07985  0.54659  1.0000
  C   C35       1.0  0.78976  0.07985  0.95340  1.0000
  C   C36       1.0  0.71024  0.92015  0.45341  1.0000
  O   O1        1.0  0.27509  0.36530  0.11586  1.0000
  O   O2        1.0  0.22491  0.63470  0.61586  1.0000
  O   O3        1.0  0.72490  0.63470  0.88414  1.0000
  O   O4        1.0  0.77510  0.36530  0.38415  1.0000
  O   O5        1.0  0.96705  0.73850  0.26022  1.0000
  O   O6        1.0  0.53296  0.26151  0.76022  1.0000
  O   O7        1.0  0.03295  0.26150  0.73978  1.0000
  O   O8        1.0  0.46703  0.73850  0.23978  1.0000
  O   O9        1.0  0.38361  0.28856  0.96255  1.0000
  O   O10       1.0  0.11639  0.71144  0.46255  1.0000
  O   O11       1.0  0.61639  0.71143  0.03745  1.0000
  O   O12       1.0  0.88361  0.28856  0.53745  1.0000
  O   O13       1.0  0.71772  0.51197  0.21255  1.0000
  O   O14       1.0  0.78228  0.48802  0.71255  1.0000
  O   O15       1.0  0.28228  0.48803  0.78745  1.0000
  O   O16       1.0  0.21772  0.51198  0.28745  1.0000
  O   O17       1.0  0.11808  0.67293  0.11497  1.0000
  O   O18       1.0  0.38192  0.32707  0.61497  1.0000
  O   O19       1.0  0.88191  0.32707  0.88502  1.0000
  O   O20       1.0  0.61808  0.67294  0.38503  1.0000
  O   O21       1.0  0.67769  0.45284  0.04861  1.0000
  O   O22       1.0  0.82230  0.54716  0.54861  1.0000
  O   O23       1.0  0.32230  0.54715  0.95139  1.0000
  O   O24       1.0  0.17770  0.45285  0.45139  1.0000
