data_image0
_chemical_formula_structural       Cu8H66C24Br8N6
_chemical_formula_sum              "Cu8 H66 C24 Br8 N6"
_cell_length_a       6.32178
_cell_length_b       13.5871
_cell_length_c       14.273
_cell_angle_alpha    68.6968
_cell_angle_beta     84.1938
_cell_angle_gamma    89.2857

_space_group_name_H-M_alt    "P 1"
_space_group_IT_number       1

loop_
  _space_group_symop_operation_xyz
  'x, y, z'

loop_
  _atom_site_type_symbol
  _atom_site_label
  _atom_site_symmetry_multiplicity
  _atom_site_fract_x
  _atom_site_fract_y
  _atom_site_fract_z
  _atom_site_occupancy
  Cu  Cu1       1.0  0.85175  0.73937  0.58616  1.0000
  Cu  Cu2       1.0  0.14823  0.26063  0.41383  1.0000
  Cu  Cu3       1.0  0.37035  0.09883  0.22722  1.0000
  Cu  Cu4       1.0  0.62965  0.90117  0.77277  1.0000
  Cu  Cu5       1.0  0.45717  0.00757  0.41036  1.0000
  Cu  Cu6       1.0  0.54282  0.99241  0.58964  1.0000
  Cu  Cu7       1.0  0.26197  0.86907  0.71462  1.0000
  Cu  Cu8       1.0  0.73799  0.13095  0.28540  1.0000
  H   H1        1.0  0.88312  0.68557  0.76545  1.0000
  H   H2        1.0  0.11687  0.31443  0.23454  1.0000
  H   H3        1.0  0.63010  0.70312  0.74532  1.0000
  H   H4        1.0  0.36989  0.29687  0.25468  1.0000
  H   H5        1.0  0.86114  0.85379  0.40724  1.0000
  H   H6        1.0  0.13887  0.14621  0.59276  1.0000
  H   H7        1.0  0.09894  0.83852  0.44383  1.0000
  H   H8        1.0  0.90108  0.16147  0.55618  1.0000
  H   H9        1.0  0.16918  0.24254  0.10821  1.0000
  H   H10       1.0  0.83081  0.75747  0.89179  1.0000
  H   H11       1.0  0.42837  0.26935  0.08079  1.0000
  H   H12       1.0  0.57162  0.73066  0.91920  1.0000
  H   H13       1.0  0.77561  0.53691  0.92388  1.0000
  H   H14       1.0  0.22439  0.46310  0.07612  1.0000
  H   H15       1.0  0.63740  0.42739  0.91780  1.0000
  H   H16       1.0  0.36260  0.57261  0.08220  1.0000
  H   H17       1.0  0.50343  0.54835  0.89789  1.0000
  H   H18       1.0  0.49657  0.45166  0.10211  1.0000
  H   H19       1.0  0.99664  0.52799  0.67363  1.0000
  H   H20       1.0  0.00336  0.47201  0.32637  1.0000
  H   H21       1.0  0.91621  0.41290  0.78169  1.0000
  H   H22       1.0  0.08380  0.58710  0.21831  1.0000
  H   H23       1.0  0.05875  0.51805  0.79549  1.0000
  H   H24       1.0  0.94125  0.48196  0.20451  1.0000
  H   H25       1.0  0.52115  0.43943  0.74191  1.0000
  H   H26       1.0  0.47886  0.56057  0.25809  1.0000
  H   H27       1.0  0.60862  0.55186  0.63264  1.0000
  H   H28       1.0  0.39139  0.44813  0.36736  1.0000
  H   H29       1.0  0.40846  0.56513  0.72378  1.0000
  H   H30       1.0  0.59154  0.43486  0.27622  1.0000
  H   H31       1.0  0.08279  0.59186  0.52126  1.0000
  H   H32       1.0  0.91720  0.40813  0.47874  1.0000
  H   H33       1.0  0.30616  0.67636  0.45722  1.0000
  H   H34       1.0  0.69382  0.32363  0.54278  1.0000
  H   H35       1.0  0.20582  0.58809  0.40472  1.0000
  H   H36       1.0  0.79418  0.41191  0.59528  1.0000
  H   H37       1.0  0.72188  0.63108  0.45812  1.0000
  H   H38       1.0  0.27811  0.36893  0.54186  1.0000
  H   H39       1.0  0.82584  0.61995  0.34175  1.0000
  H   H40       1.0  0.17415  0.38006  0.65824  1.0000
  H   H41       1.0  0.69132  0.73597  0.34165  1.0000
  H   H42       1.0  0.30868  0.26404  0.65834  1.0000
  H   H43       1.0  0.15793  0.73819  0.23940  1.0000
  H   H44       1.0  0.84208  0.26182  0.76060  1.0000
  H   H45       1.0  0.26901  0.82645  0.28868  1.0000
  H   H46       1.0  0.73100  0.17354  0.71133  1.0000
  H   H47       1.0  0.01730  0.85217  0.24052  1.0000
  H   H48       1.0  0.98272  0.14784  0.75949  1.0000
  H   H49       1.0  0.22294  0.01800  0.09246  1.0000
  H   H50       1.0  0.77706  0.98200  0.90754  1.0000
  H   H51       1.0  0.14800  0.06339  0.96695  1.0000
  H   H52       1.0  0.85200  0.93661  0.03305  1.0000
  H   H53       1.0  0.00062  0.10105  0.06141  1.0000
  H   H54       1.0  0.99938  0.89894  0.93859  1.0000
  H   H55       1.0  0.59854  0.09466  0.03119  1.0000
  H   H56       1.0  0.40146  0.90534  0.96880  1.0000
  H   H57       1.0  0.63947  0.22883  0.94936  1.0000
  H   H58       1.0  0.36053  0.77117  0.05064  1.0000
  H   H59       1.0  0.53272  0.13556  0.90418  1.0000
  H   H60       1.0  0.46728  0.86444  0.09581  1.0000
  H   H61       1.0  0.31665  0.34752  0.90022  1.0000
  H   H62       1.0  0.68335  0.65248  0.09978  1.0000
  H   H63       1.0  0.05603  0.29181  0.94486  1.0000
  H   H64       1.0  0.94397  0.70819  0.05515  1.0000
  H   H65       1.0  0.21361  0.25661  0.85150  1.0000
  H   H66       1.0  0.78639  0.74339  0.14849  1.0000
  C   C1        1.0  0.72762  0.54991  0.77078  1.0000
  C   C2        1.0  0.27238  0.45009  0.22922  1.0000
  C   C3        1.0  0.65610  0.51385  0.88426  1.0000
  C   C4        1.0  0.34390  0.48615  0.11574  1.0000
  C   C5        1.0  0.93754  0.49909  0.75424  1.0000
  C   C6        1.0  0.06246  0.50091  0.24576  1.0000
  C   C7        1.0  0.55607  0.52479  0.71403  1.0000
  C   C8        1.0  0.44393  0.47520  0.28597  1.0000
  C   C9        1.0  0.16051  0.64022  0.44640  1.0000
  C   C10       1.0  0.83948  0.35977  0.55359  1.0000
  C   C11       1.0  0.01098  0.72475  0.38855  1.0000
  C   C12       1.0  0.98902  0.27525  0.61145  1.0000
  C   C13       1.0  0.80000  0.67495  0.38191  1.0000
  C   C14       1.0  0.20000  0.32506  0.61808  1.0000
  C   C15       1.0  0.11968  0.78921  0.28307  1.0000
  C   C16       1.0  0.88033  0.21079  0.71693  1.0000
  C   C17       1.0  0.30737  0.18273  0.00376  1.0000
  C   C18       1.0  0.69263  0.81727  0.99624  1.0000
  C   C19       1.0  0.16072  0.08546  0.03295  1.0000
  C   C20       1.0  0.83928  0.91454  0.96705  1.0000
  C   C21       1.0  0.53306  0.15902  0.97015  1.0000
  C   C22       1.0  0.46693  0.84098  0.02985  1.0000
  C   C23       1.0  0.21841  0.27526  0.91999  1.0000
  C   C24       1.0  0.78159  0.72473  0.08000  1.0000
  Br  Br1       1.0  0.08540  0.06621  0.36281  1.0000
  Br  Br2       1.0  0.91463  0.93380  0.63720  1.0000
  Br  Br3       1.0  0.63920  0.96723  0.25445  1.0000
  Br  Br4       1.0  0.36080  0.03277  0.74556  1.0000
  Br  Br5       1.0  0.42044  0.83736  0.55197  1.0000
  Br  Br6       1.0  0.57962  0.16262  0.44805  1.0000
  Br  Br7       1.0  0.19834  0.70456  0.85207  1.0000
  Br  Br8       1.0  0.80167  0.29544  0.14794  1.0000
  N   N1        1.0  0.76584  0.66753  0.72835  1.0000
  N   N2        1.0  0.23416  0.33246  0.27165  1.0000
  N   N3        1.0  0.96217  0.79695  0.44614  1.0000
  N   N4        1.0  0.03783  0.20305  0.55386  1.0000
  N   N5        1.0  0.31398  0.21106  0.09574  1.0000
  N   N6        1.0  0.68602  0.78895  0.90425  1.0000
