data_image0
_chemical_formula_structural       Ag14H42C28O28
_chemical_formula_sum              "Ag14 H42 C28 O28"
_cell_length_a       5.57865
_cell_length_b       9.76477
_cell_length_c       21.587
_cell_angle_alpha    89.082
_cell_angle_beta     82.5969
_cell_angle_gamma    82.5972

_space_group_name_H-M_alt    "P 1"
_space_group_IT_number       1

loop_
  _space_group_symop_operation_xyz
  'x, y, z'

loop_
  _atom_site_type_symbol
  _atom_site_label
  _atom_site_symmetry_multiplicity
  _atom_site_fract_x
  _atom_site_fract_y
  _atom_site_fract_z
  _atom_site_occupancy
  Ag  Ag1       1.0  0.04552  0.43668  0.56312  1.0000
  Ag  Ag2       1.0  0.95448  0.56330  0.43689  1.0000
  Ag  Ag3       1.0  0.59744  0.59339  0.56751  1.0000
  Ag  Ag4       1.0  0.40258  0.40660  0.43249  1.0000
  Ag  Ag5       1.0  0.42473  0.42495  0.72824  1.0000
  Ag  Ag6       1.0  0.57525  0.57505  0.27176  1.0000
  Ag  Ag7       1.0  0.98460  0.58174  0.71866  1.0000
  Ag  Ag8       1.0  0.01537  0.41825  0.28133  1.0000
  Ag  Ag9       1.0  0.62816  0.38895  0.85781  1.0000
  Ag  Ag10      1.0  0.37184  0.61108  0.14219  1.0000
  Ag  Ag11      1.0  0.18334  0.54435  0.85596  1.0000
  Ag  Ag12      1.0  0.81668  0.45567  0.14403  1.0000
  Ag  Ag13      1.0  0.22481  0.42130  0.99375  1.0000
  Ag  Ag14      1.0  0.77519  0.57870  0.00625  1.0000
  H   H1        1.0  0.60930  0.05032  0.56339  1.0000
  H   H2        1.0  0.39071  0.94967  0.43661  1.0000
  H   H3        1.0  0.34364  0.15468  0.54139  1.0000
  H   H4        1.0  0.65638  0.84532  0.45860  1.0000
  H   H5        1.0  0.38567  0.13855  0.62113  1.0000
  H   H6        1.0  0.61433  0.86144  0.37887  1.0000
  H   H7        1.0  0.02195  0.98278  0.55519  1.0000
  H   H8        1.0  0.97809  0.01720  0.44481  1.0000
  H   H9        1.0  0.31375  0.88203  0.55883  1.0000
  H   H10       1.0  0.68627  0.11796  0.44117  1.0000
  H   H11       1.0  0.10573  0.91632  0.62756  1.0000
  H   H12       1.0  0.89430  0.08368  0.37244  1.0000
  H   H13       1.0  0.68965  0.87001  0.72821  1.0000
  H   H14       1.0  0.31035  0.12997  0.27179  1.0000
  H   H15       1.0  0.40022  0.97254  0.72409  1.0000
  H   H16       1.0  0.59977  0.02745  0.27591  1.0000
  H   H17       1.0  0.57483  0.89376  0.65598  1.0000
  H   H18       1.0  0.42517  0.10622  0.34401  1.0000
  H   H19       1.0  0.81424  0.12754  0.67113  1.0000
  H   H20       1.0  0.18574  0.87246  0.32887  1.0000
  H   H21       1.0  0.70794  0.14189  0.75202  1.0000
  H   H22       1.0  0.29205  0.85811  0.24798  1.0000
  H   H23       1.0  0.99243  0.03871  0.72592  1.0000
  H   H24       1.0  0.00755  0.96128  0.27409  1.0000
  H   H25       1.0  0.92201  0.09738  0.85057  1.0000
  H   H26       1.0  0.07798  0.90263  0.14944  1.0000
  H   H27       1.0  0.11904  0.03732  0.90660  1.0000
  H   H28       1.0  0.88097  0.96270  0.09340  1.0000
  H   H29       1.0  0.22002  0.00640  0.82684  1.0000
  H   H30       1.0  0.77998  0.99362  0.17317  1.0000
  H   H31       1.0  0.62070  0.93166  0.85551  1.0000
  H   H32       1.0  0.37930  0.06836  0.14448  1.0000
  H   H33       1.0  0.88958  0.83005  0.81756  1.0000
  H   H34       1.0  0.11043  0.16996  0.18243  1.0000
  H   H35       1.0  0.83779  0.83504  0.89958  1.0000
  H   H36       1.0  0.16221  0.16498  0.10042  1.0000
  H   H37       1.0  0.60813  0.12621  0.94725  1.0000
  H   H38       1.0  0.39187  0.87379  0.05275  1.0000
  H   H39       1.0  0.51637  0.13120  0.02843  1.0000
  H   H40       1.0  0.48364  0.86880  0.97157  1.0000
  H   H41       1.0  0.79848  0.03167  0.99824  1.0000
  H   H42       1.0  0.20152  0.96833  0.00176  1.0000
  C   C1        1.0  0.48190  0.14453  0.57359  1.0000
  C   C2        1.0  0.51812  0.85546  0.42640  1.0000
  C   C3        1.0  0.61130  0.27111  0.57051  1.0000
  C   C4        1.0  0.38871  0.72888  0.42949  1.0000
  C   C5        1.0  0.01088  0.76355  0.57078  1.0000
  C   C6        1.0  0.98913  0.23643  0.42923  1.0000
  C   C7        1.0  0.12009  0.89486  0.57730  1.0000
  C   C8        1.0  0.87994  0.10512  0.42270  1.0000
  C   C9        1.0  0.40155  0.75106  0.71471  1.0000
  C   C10       1.0  0.59844  0.24893  0.28528  1.0000
  C   C11       1.0  0.52180  0.88075  0.70637  1.0000
  C   C12       1.0  0.47820  0.11924  0.29363  1.0000
  C   C13       1.0  0.99907  0.25968  0.71931  1.0000
  C   C14       1.0  0.00091  0.74032  0.28070  1.0000
  C   C15       1.0  0.87211  0.13297  0.71764  1.0000
  C   C16       1.0  0.12788  0.86703  0.28237  1.0000
  C   C17       1.0  0.21934  0.21527  0.85763  1.0000
  C   C18       1.0  0.78065  0.78476  0.14238  1.0000
  C   C19       1.0  0.11174  0.08142  0.85973  1.0000
  C   C20       1.0  0.88827  0.91860  0.14027  1.0000
  C   C21       1.0  0.61413  0.71006  0.85813  1.0000
  C   C22       1.0  0.38587  0.28996  0.14187  1.0000
  C   C23       1.0  0.74514  0.83591  0.85757  1.0000
  C   C24       1.0  0.25487  0.16411  0.14242  1.0000
  C   C25       1.0  0.79930  0.25427  0.99726  1.0000
  C   C26       1.0  0.20070  0.74573  0.00274  1.0000
  C   C27       1.0  0.67605  0.12684  0.99285  1.0000
  C   C28       1.0  0.32395  0.87315  0.00715  1.0000
  O   O1        1.0  0.84089  0.25641  0.56905  1.0000
  O   O2        1.0  0.15912  0.74359  0.43095  1.0000
  O   O3        1.0  0.47536  0.38839  0.57085  1.0000
  O   O4        1.0  0.52464  0.61160  0.42915  1.0000
  O   O5        1.0  0.78583  0.77471  0.56374  1.0000
  O   O6        1.0  0.21419  0.22527  0.43626  1.0000
  O   O7        1.0  0.14906  0.64932  0.57525  1.0000
  O   O8        1.0  0.85094  0.35067  0.42476  1.0000
  O   O9        1.0  0.86269  0.37673  0.72023  1.0000
  O   O10       1.0  0.13729  0.62326  0.27977  1.0000
  O   O11       1.0  0.22830  0.24489  0.71882  1.0000
  O   O12       1.0  0.77168  0.75510  0.28118  1.0000
  O   O13       1.0  0.54254  0.63609  0.71162  1.0000
  O   O14       1.0  0.45744  0.36389  0.28837  1.0000
  O   O15       1.0  0.16955  0.76332  0.72171  1.0000
  O   O16       1.0  0.83043  0.23668  0.27829  1.0000
  O   O17       1.0  0.45067  0.20593  0.85545  1.0000
  O   O18       1.0  0.54931  0.79409  0.14456  1.0000
  O   O19       1.0  0.07441  0.32816  0.85963  1.0000
  O   O20       1.0  0.92559  0.67187  0.14038  1.0000
  O   O21       1.0  0.74946  0.59254  0.85946  1.0000
  O   O22       1.0  0.25055  0.40747  0.14054  1.0000
  O   O23       1.0  0.38595  0.72495  0.85749  1.0000
  O   O24       1.0  0.61408  0.27508  0.14251  1.0000
  O   O25       1.0  0.02524  0.24059  0.00246  1.0000
  O   O26       1.0  0.97475  0.75941  0.99753  1.0000
  O   O27       1.0  0.66409  0.37065  0.99412  1.0000
  O   O28       1.0  0.33589  0.62935  0.00588  1.0000
