data_image0
_chemical_formula_structural       Zn4H36C28N8Cl4O20
_chemical_formula_sum              "Zn4 H36 C28 N8 Cl4 O20"
_cell_length_a       5.77076
_cell_length_b       10.4588
_cell_length_c       19.1096
_cell_angle_alpha    105.635
_cell_angle_beta     90.0004
_cell_angle_gamma    89.9998

_space_group_name_H-M_alt    "P 1"
_space_group_IT_number       1

loop_
  _space_group_symop_operation_xyz
  'x, y, z'

loop_
  _atom_site_type_symbol
  _atom_site_label
  _atom_site_symmetry_multiplicity
  _atom_site_fract_x
  _atom_site_fract_y
  _atom_site_fract_z
  _atom_site_occupancy
  Zn  Zn1       1.0  0.55784  0.55987  0.88842  1.0000
  Zn  Zn2       1.0  0.05784  0.94014  0.61157  1.0000
  Zn  Zn3       1.0  0.44215  0.44014  0.11158  1.0000
  Zn  Zn4       1.0  0.94218  0.05987  0.38843  1.0000
  H   H1        1.0  0.12813  0.35121  0.95812  1.0000
  H   H2        1.0  0.62815  0.14878  0.54187  1.0000
  H   H3        1.0  0.87185  0.64879  0.04188  1.0000
  H   H4        1.0  0.37187  0.85123  0.45812  1.0000
  H   H5        1.0  0.91361  0.29983  0.01101  1.0000
  H   H6        1.0  0.41363  0.20017  0.48898  1.0000
  H   H7        1.0  0.08637  0.70017  0.98898  1.0000
  H   H8        1.0  0.58639  0.79984  0.51102  1.0000
  H   H9        1.0  0.36336  0.17262  0.87143  1.0000
  H   H10       1.0  0.86339  0.32735  0.62857  1.0000
  H   H11       1.0  0.63662  0.82737  0.12858  1.0000
  H   H12       1.0  0.13662  0.67265  0.37143  1.0000
  H   H13       1.0  0.74279  0.05418  0.95611  1.0000
  H   H14       1.0  0.24282  0.44583  0.54389  1.0000
  H   H15       1.0  0.25720  0.94582  0.04389  1.0000
  H   H16       1.0  0.75719  0.55418  0.45611  1.0000
  H   H17       1.0  0.97577  0.82773  0.87324  1.0000
  H   H18       1.0  0.47586  0.67226  0.62676  1.0000
  H   H19       1.0  0.02420  0.17226  0.12677  1.0000
  H   H20       1.0  0.52417  0.32774  0.37324  1.0000
  H   H21       1.0  0.35329  0.79260  0.80693  1.0000
  H   H22       1.0  0.85341  0.70737  0.69306  1.0000
  H   H23       1.0  0.64665  0.20739  0.19308  1.0000
  H   H24       1.0  0.14663  0.29262  0.30694  1.0000
  H   H25       1.0  0.55477  0.92553  0.82428  1.0000
  H   H26       1.0  0.05482  0.57441  0.67572  1.0000
  H   H27       1.0  0.44521  0.07444  0.17573  1.0000
  H   H28       1.0  0.94520  0.42559  0.32428  1.0000
  H   H29       1.0  0.14552  0.51807  0.84044  1.0000
  H   H30       1.0  0.64551  0.98191  0.65956  1.0000
  H   H31       1.0  0.85446  0.48192  0.15956  1.0000
  H   H32       1.0  0.35451  0.01808  0.34044  1.0000
  H   H33       1.0  0.29880  0.38874  0.80994  1.0000
  H   H34       1.0  0.79878  0.11123  0.69007  1.0000
  H   H35       1.0  0.70120  0.61125  0.19007  1.0000
  H   H36       1.0  0.20123  0.88876  0.30993  1.0000
  C   C1        1.0  0.78422  0.33916  0.91310  1.0000
  C   C2        1.0  0.28424  0.16084  0.58689  1.0000
  C   C3        1.0  0.21577  0.66085  0.08690  1.0000
  C   C4        1.0  0.71578  0.83916  0.41309  1.0000
  C   C5        1.0  0.97391  0.28921  0.95534  1.0000
  C   C6        1.0  0.47393  0.21078  0.54466  1.0000
  C   C7        1.0  0.02608  0.71078  0.04466  1.0000
  C   C8        1.0  0.52610  0.78922  0.45534  1.0000
  C   C9        1.0  0.22363  0.11036  0.88211  1.0000
  C   C10       1.0  0.72367  0.38962  0.61788  1.0000
  C   C11       1.0  0.77635  0.88964  0.11788  1.0000
  C   C12       1.0  0.27635  0.61038  0.38212  1.0000
  C   C13       1.0  0.90178  0.04285  0.92499  1.0000
  C   C14       1.0  0.40182  0.45716  0.57501  1.0000
  C   C15       1.0  0.09821  0.95716  0.07501  1.0000
  C   C16       1.0  0.59819  0.54284  0.42498  1.0000
  C   C17       1.0  0.01522  0.93271  0.88482  1.0000
  C   C18       1.0  0.51529  0.56728  0.61518  1.0000
  C   C19       1.0  0.98475  0.06728  0.11518  1.0000
  C   C20       1.0  0.48471  0.43272  0.38482  1.0000
  C   C21       1.0  0.37675  0.89686  0.80700  1.0000
  C   C22       1.0  0.87683  0.60311  0.69299  1.0000
  C   C23       1.0  0.62322  0.10313  0.19301  1.0000
  C   C24       1.0  0.12318  0.39688  0.30701  1.0000
  C   C25       1.0  0.34008  0.90905  0.72981  1.0000
  C   C26       1.0  0.84012  0.59094  0.77019  1.0000
  C   C27       1.0  0.65994  0.09095  0.27019  1.0000
  C   C28       1.0  0.15988  0.40906  0.22981  1.0000
  N   N1        1.0  0.03451  0.15153  0.92253  1.0000
  N   N2        1.0  0.53452  0.34846  0.57746  1.0000
  N   N3        1.0  0.96548  0.84847  0.07747  1.0000
  N   N4        1.0  0.46550  0.65154  0.42253  1.0000
  N   N5        1.0  0.21480  0.97716  0.85882  1.0000
  N   N6        1.0  0.71487  0.52282  0.64118  1.0000
  N   N7        1.0  0.78518  0.02283  0.14118  1.0000
  N   N8        1.0  0.28514  0.47718  0.35883  1.0000
  Cl  Cl1       1.0  0.51482  0.77274  0.94814  1.0000
  Cl  Cl2       1.0  0.01482  0.72727  0.55186  1.0000
  Cl  Cl3       1.0  0.48517  0.22727  0.05188  1.0000
  Cl  Cl4       1.0  0.98519  0.27274  0.44813  1.0000
  O   O1        1.0  0.74446  0.46405  0.94172  1.0000
  O   O2        1.0  0.24446  0.03595  0.55826  1.0000
  O   O3        1.0  0.25552  0.53595  0.05827  1.0000
  O   O4        1.0  0.75557  0.96405  0.44173  1.0000
  O   O5        1.0  0.68807  0.26547  0.85858  1.0000
  O   O6        1.0  0.18810  0.23452  0.64141  1.0000
  O   O7        1.0  0.31190  0.73451  0.14141  1.0000
  O   O8        1.0  0.81189  0.76548  0.35858  1.0000
  O   O9        1.0  0.50690  0.87256  0.68624  1.0000
  O   O10       1.0  0.00691  0.62744  0.81376  1.0000
  O   O11       1.0  0.49314  0.12744  0.31377  1.0000
  O   O12       1.0  0.99308  0.37256  0.18624  1.0000
  O   O13       1.0  0.14427  0.95206  0.71534  1.0000
  O   O14       1.0  0.64427  0.54796  0.78466  1.0000
  O   O15       1.0  0.85576  0.04795  0.28466  1.0000
  O   O16       1.0  0.35571  0.45206  0.21533  1.0000
  O   O17       1.0  0.25688  0.45483  0.85487  1.0000
  O   O18       1.0  0.75686  0.04516  0.64513  1.0000
  O   O19       1.0  0.74312  0.54516  0.14513  1.0000
  O   O20       1.0  0.24316  0.95484  0.35487  1.0000
