data_image0
_chemical_formula_structural       Mn2H24C24N4O12
_chemical_formula_sum              "Mn2 H24 C24 N4 O12"
_cell_length_a       7.03456
_cell_length_b       8.46055
_cell_length_c       9.95614
_cell_angle_alpha    89.7487
_cell_angle_beta     91.346
_cell_angle_gamma    99.1323

_space_group_name_H-M_alt    "P 1"
_space_group_IT_number       1

loop_
  _space_group_symop_operation_xyz
  'x, y, z'

loop_
  _atom_site_type_symbol
  _atom_site_label
  _atom_site_symmetry_multiplicity
  _atom_site_fract_x
  _atom_site_fract_y
  _atom_site_fract_z
  _atom_site_occupancy
  Mn  Mn1       1.0  1.00000  0.50000  1.00000  1.0000
  Mn  Mn2       1.0  0.50000  0.50000  0.50000  1.0000
  H   H1        1.0  0.20764  0.28059  0.11708  1.0000
  H   H2        1.0  0.28173  0.68905  0.61984  1.0000
  H   H3        1.0  0.79236  0.71941  0.88292  1.0000
  H   H4        1.0  0.71828  0.31095  0.38016  1.0000
  H   H5        1.0  0.03775  0.29746  0.22053  1.0000
  H   H6        1.0  0.46486  0.68793  0.72043  1.0000
  H   H7        1.0  0.96225  0.70254  0.77947  1.0000
  H   H8        1.0  0.53514  0.31207  0.27958  1.0000
  H   H9        1.0  0.37595  0.50794  0.20489  1.0000
  H   H10       1.0  0.15040  0.48006  0.71080  1.0000
  H   H11       1.0  0.62404  0.49206  0.79511  1.0000
  H   H12       1.0  0.84961  0.51994  0.28920  1.0000
  H   H13       1.0  0.72139  0.04842  0.29924  1.0000
  H   H14       1.0  0.74991  0.95259  0.75898  1.0000
  H   H15       1.0  0.27861  0.95158  0.70076  1.0000
  H   H16       1.0  0.25009  0.04742  0.24102  1.0000
  H   H17       1.0  0.65218  0.96398  0.05777  1.0000
  H   H18       1.0  0.84437  0.05269  0.52609  1.0000
  H   H19       1.0  0.34781  0.03601  0.94223  1.0000
  H   H20       1.0  0.15562  0.94732  0.47391  1.0000
  H   H21       1.0  0.62104  0.84903  0.48094  1.0000
  H   H22       1.0  0.86157  0.13288  0.95506  1.0000
  H   H23       1.0  0.37895  0.15098  0.51907  1.0000
  H   H24       1.0  0.13845  0.86712  0.04493  1.0000
  C   C1        1.0  0.45566  0.62724  0.22214  1.0000
  C   C2        1.0  0.06075  0.36341  0.71618  1.0000
  C   C3        1.0  0.54434  0.37276  0.77786  1.0000
  C   C4        1.0  0.93926  0.63659  0.28382  1.0000
  C   C5        1.0  0.64699  0.92920  0.27377  1.0000
  C   C6        1.0  0.83825  0.06848  0.74308  1.0000
  C   C7        1.0  0.35300  0.07080  0.72623  1.0000
  C   C8        1.0  0.16175  0.93152  0.25691  1.0000
  C   C9        1.0  0.44531  0.68002  0.97286  1.0000
  C   C10       1.0  0.07271  0.32725  0.46510  1.0000
  C   C11       1.0  0.55469  0.31998  0.02714  1.0000
  C   C12       1.0  0.92730  0.67275  0.53489  1.0000
  C   C13       1.0  0.60837  0.88316  0.14063  1.0000
  C   C14       1.0  0.89028  0.12349  0.61540  1.0000
  C   C15       1.0  0.39163  0.11683  0.85937  1.0000
  C   C16       1.0  0.10972  0.87651  0.38460  1.0000
  C   C17       1.0  0.50462  0.73089  0.11430  1.0000
  C   C18       1.0  0.00958  0.27156  0.60103  1.0000
  C   C19       1.0  0.49537  0.26910  0.88569  1.0000
  C   C20       1.0  0.99043  0.72844  0.39897  1.0000
  C   C21       1.0  0.59401  0.81913  0.37539  1.0000
  C   C22       1.0  0.89709  0.16814  0.85213  1.0000
  C   C23       1.0  0.40598  0.18087  0.62461  1.0000
  C   C24       1.0  0.10292  0.83186  0.14786  1.0000
  N   N1        1.0  0.50768  0.66620  0.35098  1.0000
  N   N2        1.0  0.00083  0.31528  0.83842  1.0000
  N   N3        1.0  0.49231  0.33381  0.64902  1.0000
  N   N4        1.0  0.99918  0.68472  0.16158  1.0000
  O   O1        1.0  0.29457  0.57807  0.95401  1.0000
  O   O2        1.0  0.23487  0.41570  0.44601  1.0000
  O   O3        1.0  0.70542  0.42193  0.04599  1.0000
  O   O4        1.0  0.76513  0.58430  0.55399  1.0000
  O   O5        1.0  0.55027  0.74320  0.87725  1.0000
  O   O6        1.0  0.95461  0.28026  0.36788  1.0000
  O   O7        1.0  0.44973  0.25681  0.12275  1.0000
  O   O8        1.0  0.04539  0.71974  0.63212  1.0000
  O   O9        1.0  0.07490  0.30537  0.12321  1.0000
  O   O10       1.0  0.41911  0.67280  0.62375  1.0000
  O   O11       1.0  0.92511  0.69464  0.87679  1.0000
  O   O12       1.0  0.58089  0.32719  0.37626  1.0000
