data_image0
_chemical_formula_structural       Mn2H24C24N4O12
_chemical_formula_sum              "Mn2 H24 C24 N4 O12"
_cell_length_a       7.04792
_cell_length_b       8.44086
_cell_length_c       9.94811
_cell_angle_alpha    90.5126
_cell_angle_beta     88.5782
_cell_angle_gamma    98.9122

_space_group_name_H-M_alt    "P 1"
_space_group_IT_number       1

loop_
  _space_group_symop_operation_xyz
  'x, y, z'

loop_
  _atom_site_type_symbol
  _atom_site_label
  _atom_site_symmetry_multiplicity
  _atom_site_fract_x
  _atom_site_fract_y
  _atom_site_fract_z
  _atom_site_occupancy
  Mn  Mn1       1.0  0.00000  0.50000  1.00000  1.0000
  Mn  Mn2       1.0  0.50000  0.50000  0.50000  1.0000
  H   H1        1.0  0.63838  0.86745  0.45594  1.0000
  H   H2        1.0  0.87873  0.15107  0.98002  1.0000
  H   H3        1.0  0.36162  0.13255  0.54406  1.0000
  H   H4        1.0  0.12128  0.84893  0.01999  1.0000
  H   H5        1.0  0.75045  0.04676  0.26009  1.0000
  H   H6        1.0  0.77758  0.95158  0.79718  1.0000
  H   H7        1.0  0.24956  0.95324  0.73991  1.0000
  H   H8        1.0  0.22243  0.04842  0.20282  1.0000
  H   H9        1.0  0.65596  0.94636  0.02662  1.0000
  H   H10       1.0  0.84649  0.03663  0.55568  1.0000
  H   H11       1.0  0.34404  0.05365  0.97337  1.0000
  H   H12       1.0  0.15351  0.96337  0.44432  1.0000
  H   H13       1.0  0.34746  0.52083  0.21160  1.0000
  H   H14       1.0  0.12543  0.49145  0.70568  1.0000
  H   H15       1.0  0.65254  0.47917  0.78839  1.0000
  H   H16       1.0  0.87457  0.50854  0.29432  1.0000
  H   H17       1.0  0.21939  0.31125  0.11884  1.0000
  H   H18       1.0  0.29079  0.71805  0.61825  1.0000
  H   H19       1.0  0.78061  0.68875  0.88116  1.0000
  H   H20       1.0  0.70920  0.28194  0.38175  1.0000
  H   H21       1.0  0.03672  0.31140  0.22010  1.0000
  H   H22       1.0  0.46106  0.70175  0.72134  1.0000
  H   H23       1.0  0.96328  0.68860  0.77990  1.0000
  H   H24       1.0  0.53894  0.29825  0.27866  1.0000
  C   C1        1.0  0.60280  0.83193  0.35291  1.0000
  C   C2        1.0  0.90582  0.18064  0.87441  1.0000
  C   C3        1.0  0.39721  0.16807  0.64709  1.0000
  C   C4        1.0  0.09418  0.81936  0.12560  1.0000
  C   C5        1.0  0.66175  0.93108  0.24385  1.0000
  C   C6        1.0  0.85255  0.07072  0.77216  1.0000
  C   C7        1.0  0.33826  0.06893  0.75615  1.0000
  C   C8        1.0  0.14745  0.92927  0.22784  1.0000
  C   C9        1.0  0.60957  0.87593  0.11593  1.0000
  C   C10       1.0  0.89132  0.11691  0.63908  1.0000
  C   C11       1.0  0.39043  0.12408  0.88406  1.0000
  C   C12       1.0  0.10868  0.88309  0.36093  1.0000
  C   C13       1.0  0.48953  0.72827  0.10164  1.0000
  C   C14       1.0  0.99598  0.26888  0.61341  1.0000
  C   C15       1.0  0.51047  0.27174  0.89836  1.0000
  C   C16       1.0  0.00402  0.73111  0.38659  1.0000
  C   C17       1.0  0.43789  0.63704  0.21686  1.0000
  C   C18       1.0  0.04519  0.37225  0.72192  1.0000
  C   C19       1.0  0.56211  0.36297  0.78314  1.0000
  C   C20       1.0  0.95481  0.62775  0.27808  1.0000
  C   C21       1.0  0.42630  0.67211  0.96565  1.0000
  C   C22       1.0  0.05554  0.32000  0.47214  1.0000
  C   C23       1.0  0.57370  0.32789  0.03435  1.0000
  C   C24       1.0  0.94446  0.67999  0.52786  1.0000
  N   N1        1.0  0.49842  0.68505  0.33913  1.0000
  N   N2        1.0  0.99255  0.33345  0.85060  1.0000
  N   N3        1.0  0.50158  0.31495  0.66087  1.0000
  N   N4        1.0  0.00745  0.66655  0.14940  1.0000
  O   O1        1.0  0.26464  0.58380  0.94649  1.0000
  O   O2        1.0  0.20576  0.42192  0.45377  1.0000
  O   O3        1.0  0.73536  0.41620  0.05350  1.0000
  O   O4        1.0  0.79424  0.57808  0.54623  1.0000
  O   O5        1.0  0.54412  0.71841  0.86837  1.0000
  O   O6        1.0  0.95108  0.25703  0.37619  1.0000
  O   O7        1.0  0.45588  0.28159  0.13163  1.0000
  O   O8        1.0  0.04892  0.74297  0.62381  1.0000
  O   O9        1.0  0.08199  0.32700  0.12327  1.0000
  O   O10       1.0  0.42399  0.69453  0.62392  1.0000
  O   O11       1.0  0.91801  0.67300  0.87673  1.0000
  O   O12       1.0  0.57601  0.30547  0.37608  1.0000
