data_image0
_chemical_formula_structural       Sr4H40C48N8O20
_chemical_formula_sum              "Sr4 H40 C48 N8 O20"
_cell_length_a       6.60941
_cell_length_b       12.5871
_cell_length_c       14.9469
_cell_angle_alpha    103.627
_cell_angle_beta     90
_cell_angle_gamma    90

_space_group_name_H-M_alt    "P 1"
_space_group_IT_number       1

loop_
  _space_group_symop_operation_xyz
  'x, y, z'

loop_
  _atom_site_type_symbol
  _atom_site_label
  _atom_site_symmetry_multiplicity
  _atom_site_fract_x
  _atom_site_fract_y
  _atom_site_fract_z
  _atom_site_occupancy
  Sr  Sr1       1.0  0.06448  0.32200  0.47151  1.0000
  Sr  Sr2       1.0  0.56448  0.17800  0.52849  1.0000
  Sr  Sr3       1.0  0.93552  0.67800  0.52849  1.0000
  Sr  Sr4       1.0  0.43552  0.82200  0.47151  1.0000
  H   H1        1.0  0.20896  0.27902  0.26225  1.0000
  H   H2        1.0  0.70896  0.22098  0.73775  1.0000
  H   H3        1.0  0.79104  0.72098  0.73775  1.0000
  H   H4        1.0  0.29104  0.77902  0.26225  1.0000
  H   H5        1.0  0.47537  0.88979  0.16331  1.0000
  H   H6        1.0  0.97537  0.61021  0.83669  1.0000
  H   H7        1.0  0.52463  0.11021  0.83668  1.0000
  H   H8        1.0  0.02462  0.38979  0.16331  1.0000
  H   H9        1.0  0.21094  0.95143  0.07095  1.0000
  H   H10       1.0  0.71093  0.54857  0.92905  1.0000
  H   H11       1.0  0.78906  0.04857  0.92905  1.0000
  H   H12       1.0  0.28906  0.45143  0.07095  1.0000
  H   H13       1.0  0.49513  0.26686  0.11591  1.0000
  H   H14       1.0  0.99512  0.23314  0.88410  1.0000
  H   H15       1.0  0.50487  0.73314  0.88409  1.0000
  H   H16       1.0  0.00487  0.76686  0.11590  1.0000
  H   H17       1.0  0.76227  0.20545  0.20740  1.0000
  H   H18       1.0  0.26227  0.29455  0.79261  1.0000
  H   H19       1.0  0.23773  0.79455  0.79260  1.0000
  H   H20       1.0  0.73773  0.70545  0.20739  1.0000
  H   H21       1.0  0.02034  0.15223  0.06599  1.0000
  H   H22       1.0  0.52034  0.34777  0.93401  1.0000
  H   H23       1.0  0.97966  0.84777  0.93401  1.0000
  H   H24       1.0  0.47966  0.65223  0.06599  1.0000
  H   H25       1.0  0.19805  0.23435  0.02353  1.0000
  H   H26       1.0  0.69805  0.26565  0.97647  1.0000
  H   H27       1.0  0.80195  0.76565  0.97647  1.0000
  H   H28       1.0  0.30195  0.73435  0.02353  1.0000
  H   H29       1.0  0.15656  0.09665  0.96315  1.0000
  H   H30       1.0  0.65656  0.40335  0.03685  1.0000
  H   H31       1.0  0.84344  0.90335  0.03685  1.0000
  H   H32       1.0  0.34344  0.59665  0.96315  1.0000
  H   H33       1.0  0.04134  0.19299  0.27228  1.0000
  H   H34       1.0  0.54134  0.30701  0.72772  1.0000
  H   H35       1.0  0.95866  0.80701  0.72771  1.0000
  H   H36       1.0  0.45866  0.69299  0.27228  1.0000
  H   H37       1.0  0.64653  0.87599  0.28907  1.0000
  H   H38       1.0  0.14653  0.62400  0.71093  1.0000
  H   H39       1.0  0.35347  0.12401  0.71093  1.0000
  H   H40       1.0  0.85347  0.37599  0.28907  1.0000
  C   C1        1.0  0.25394  0.05407  0.38275  1.0000
  C   C2        1.0  0.75394  0.44593  0.61725  1.0000
  C   C3        1.0  0.74607  0.94593  0.61725  1.0000
  C   C4        1.0  0.24606  0.55407  0.38275  1.0000
  C   C5        1.0  0.06146  0.00948  0.33583  1.0000
  C   C6        1.0  0.56146  0.49052  0.66417  1.0000
  C   C7        1.0  0.93854  0.99052  0.66417  1.0000
  C   C8        1.0  0.43854  0.50948  0.33583  1.0000
  C   C9        1.0  0.93815  0.92297  0.34693  1.0000
  C   C10       1.0  0.43815  0.57703  0.65307  1.0000
  C   C11       1.0  0.06185  0.07703  0.65307  1.0000
  C   C12       1.0  0.56184  0.42297  0.34693  1.0000
  C   C13       1.0  0.93363  0.85100  0.41220  1.0000
  C   C14       1.0  0.43363  0.64900  0.58779  1.0000
  C   C15       1.0  0.06637  0.14900  0.58780  1.0000
  C   C16       1.0  0.56637  0.35100  0.41220  1.0000
  C   C17       1.0  0.79242  0.01131  0.25110  1.0000
  C   C18       1.0  0.29242  0.48869  0.74890  1.0000
  C   C19       1.0  0.20758  0.98869  0.74890  1.0000
  C   C20       1.0  0.70758  0.51131  0.25110  1.0000
  C   C21       1.0  0.63887  0.04363  0.19253  1.0000
  C   C22       1.0  0.13887  0.45637  0.80748  1.0000
  C   C23       1.0  0.36113  0.95637  0.80747  1.0000
  C   C24       1.0  0.86113  0.54363  0.19252  1.0000
  C   C25       1.0  0.48101  0.97279  0.15325  1.0000
  C   C26       1.0  0.98101  0.52721  0.84675  1.0000
  C   C27       1.0  0.51900  0.02721  0.84675  1.0000
  C   C28       1.0  0.01899  0.47279  0.15325  1.0000
  C   C29       1.0  0.33133  0.00774  0.10140  1.0000
  C   C30       1.0  0.83133  0.49226  0.89860  1.0000
  C   C31       1.0  0.66867  0.99226  0.89860  1.0000
  C   C32       1.0  0.16867  0.50774  0.10140  1.0000
  C   C33       1.0  0.33200  0.11396  0.08711  1.0000
  C   C34       1.0  0.83200  0.38604  0.91289  1.0000
  C   C35       1.0  0.66800  0.88604  0.91289  1.0000
  C   C36       1.0  0.16800  0.61396  0.08711  1.0000
  C   C37       1.0  0.49036  0.18376  0.12598  1.0000
  C   C38       1.0  0.99036  0.31624  0.87403  1.0000
  C   C39       1.0  0.50963  0.81624  0.87402  1.0000
  C   C40       1.0  0.00963  0.68376  0.12598  1.0000
  C   C41       1.0  0.64226  0.14944  0.17721  1.0000
  C   C42       1.0  0.14225  0.35057  0.82279  1.0000
  C   C43       1.0  0.35775  0.85057  0.82279  1.0000
  C   C44       1.0  0.85774  0.64943  0.17721  1.0000
  C   C45       1.0  0.16834  0.15155  0.03209  1.0000
  C   C46       1.0  0.66833  0.34845  0.96791  1.0000
  C   C47       1.0  0.83166  0.84845  0.96791  1.0000
  C   C48       1.0  0.33166  0.65155  0.03209  1.0000
  N   N1        1.0  0.96820  0.06314  0.27693  1.0000
  N   N2        1.0  0.46820  0.43686  0.72307  1.0000
  N   N3        1.0  0.03180  0.93686  0.72307  1.0000
  N   N4        1.0  0.53180  0.56314  0.27693  1.0000
  N   N5        1.0  0.77192  0.92578  0.29169  1.0000
  N   N6        1.0  0.27191  0.57422  0.70831  1.0000
  N   N7        1.0  0.22809  0.07422  0.70831  1.0000
  N   N8        1.0  0.72809  0.42578  0.29169  1.0000
  O   O1        1.0  0.28696  0.15545  0.39089  1.0000
  O   O2        1.0  0.78695  0.34455  0.60911  1.0000
  O   O3        1.0  0.71305  0.84455  0.60911  1.0000
  O   O4        1.0  0.21304  0.65545  0.39089  1.0000
  O   O5        1.0  0.37555  0.99363  0.41444  1.0000
  O   O6        1.0  0.87555  0.50637  0.58556  1.0000
  O   O7        1.0  0.62445  0.00638  0.58556  1.0000
  O   O8        1.0  0.12445  0.49363  0.41444  1.0000
  O   O9        1.0  0.06654  0.86068  0.47470  1.0000
  O   O10       1.0  0.56654  0.63932  0.52530  1.0000
  O   O11       1.0  0.93345  0.13932  0.52530  1.0000
  O   O12       1.0  0.43345  0.36068  0.47470  1.0000
  O   O13       1.0  0.78614  0.78326  0.40403  1.0000
  O   O14       1.0  0.28614  0.71674  0.59597  1.0000
  O   O15       1.0  0.21386  0.21674  0.59597  1.0000
  O   O16       1.0  0.71386  0.28326  0.40403  1.0000
  O   O17       1.0  0.06629  0.27385  0.27693  1.0000
  O   O18       1.0  0.56629  0.22615  0.72307  1.0000
  O   O19       1.0  0.93371  0.72615  0.72307  1.0000
  O   O20       1.0  0.43371  0.77385  0.27693  1.0000
