data_image0
_chemical_formula_structural       Sr4H32C44N8O20
_chemical_formula_sum              "Sr4 H32 C44 N8 O20"
_cell_length_a       6.60709
_cell_length_b       12.5973
_cell_length_c       14.03
_cell_angle_alpha    103.637
_cell_angle_beta     90
_cell_angle_gamma    90

_space_group_name_H-M_alt    "P 1"
_space_group_IT_number       1

loop_
  _space_group_symop_operation_xyz
  'x, y, z'

loop_
  _atom_site_type_symbol
  _atom_site_label
  _atom_site_symmetry_multiplicity
  _atom_site_fract_x
  _atom_site_fract_y
  _atom_site_fract_z
  _atom_site_occupancy
  Sr  Sr1       1.0  0.06610  0.16215  0.46945  1.0000
  Sr  Sr2       1.0  0.56609  0.33785  0.53056  1.0000
  Sr  Sr3       1.0  0.93390  0.83785  0.53055  1.0000
  Sr  Sr4       1.0  0.43391  0.66215  0.46945  1.0000
  H   H1        1.0  0.04306  0.17826  0.25668  1.0000
  H   H2        1.0  0.54306  0.32173  0.74332  1.0000
  H   H3        1.0  0.95694  0.82173  0.74332  1.0000
  H   H4        1.0  0.45694  0.67826  0.25668  1.0000
  H   H5        1.0  0.85526  0.00439  0.27553  1.0000
  H   H6        1.0  0.35526  0.49561  0.72447  1.0000
  H   H7        1.0  0.14473  0.99561  0.72447  1.0000
  H   H8        1.0  0.64474  0.50439  0.27553  1.0000
  H   H9        1.0  0.02552  0.91932  0.14151  1.0000
  H   H10       1.0  0.52552  0.58068  0.85849  1.0000
  H   H11       1.0  0.97448  0.08068  0.85849  1.0000
  H   H12       1.0  0.47448  0.41932  0.14151  1.0000
  H   H13       1.0  0.28846  0.80379  0.04145  1.0000
  H   H14       1.0  0.78846  0.69621  0.95855  1.0000
  H   H15       1.0  0.71154  0.19622  0.95855  1.0000
  H   H16       1.0  0.21154  0.30378  0.04144  1.0000
  H   H17       1.0  0.28078  0.60240  0.01832  1.0000
  H   H18       1.0  0.78077  0.89761  0.98168  1.0000
  H   H19       1.0  0.71924  0.39761  0.98168  1.0000
  H   H20       1.0  0.21923  0.10239  0.01832  1.0000
  H   H21       1.0  0.00266  0.51562  0.09436  1.0000
  H   H22       1.0  0.50266  0.98438  0.90564  1.0000
  H   H23       1.0  0.99735  0.48439  0.90564  1.0000
  H   H24       1.0  0.49734  0.01561  0.09436  1.0000
  H   H25       1.0  0.73720  0.63057  0.19216  1.0000
  H   H26       1.0  0.23720  0.86943  0.80784  1.0000
  H   H27       1.0  0.26281  0.36943  0.80784  1.0000
  H   H28       1.0  0.76280  0.13057  0.19216  1.0000
  H   H29       1.0  0.20986  0.08623  0.24469  1.0000
  H   H30       1.0  0.70986  0.41377  0.75531  1.0000
  H   H31       1.0  0.79014  0.91377  0.75531  1.0000
  H   H32       1.0  0.29014  0.58623  0.24469  1.0000
  C   C1        1.0  0.24604  0.88037  0.37519  1.0000
  C   C2        1.0  0.74605  0.61963  0.62481  1.0000
  C   C3        1.0  0.75396  0.11962  0.62481  1.0000
  C   C4        1.0  0.25396  0.38037  0.37519  1.0000
  C   C5        1.0  0.43909  0.89825  0.32538  1.0000
  C   C6        1.0  0.93909  0.60175  0.67462  1.0000
  C   C7        1.0  0.56091  0.10175  0.67462  1.0000
  C   C8        1.0  0.06091  0.39825  0.32538  1.0000
  C   C9        1.0  0.56318  0.99064  0.33715  1.0000
  C   C10       1.0  0.06318  0.50936  0.66285  1.0000
  C   C11       1.0  0.43682  0.00936  0.66285  1.0000
  C   C12       1.0  0.93682  0.49064  0.33715  1.0000
  C   C13       1.0  0.56772  0.09928  0.40638  1.0000
  C   C14       1.0  0.06772  0.40072  0.59362  1.0000
  C   C15       1.0  0.43227  0.90072  0.59362  1.0000
  C   C16       1.0  0.93228  0.59928  0.40638  1.0000
  C   C17       1.0  0.70839  0.84817  0.23566  1.0000
  C   C18       1.0  0.20839  0.65183  0.76434  1.0000
  C   C19       1.0  0.29161  0.15183  0.76434  1.0000
  C   C20       1.0  0.79161  0.34817  0.23566  1.0000
  C   C21       1.0  0.86221  0.78248  0.17376  1.0000
  C   C22       1.0  0.36221  0.71752  0.82624  1.0000
  C   C23       1.0  0.13779  0.21752  0.82624  1.0000
  C   C24       1.0  0.63779  0.28248  0.17376  1.0000
  C   C25       1.0  0.01927  0.83075  0.13098  1.0000
  C   C26       1.0  0.51928  0.66925  0.86902  1.0000
  C   C27       1.0  0.98073  0.16926  0.86902  1.0000
  C   C28       1.0  0.48072  0.33074  0.13098  1.0000
  C   C29       1.0  0.16798  0.76599  0.07497  1.0000
  C   C30       1.0  0.66798  0.73401  0.92503  1.0000
  C   C31       1.0  0.83202  0.23401  0.92503  1.0000
  C   C32       1.0  0.33202  0.26599  0.07497  1.0000
  C   C33       1.0  0.16330  0.65253  0.06163  1.0000
  C   C34       1.0  0.66330  0.84747  0.93838  1.0000
  C   C35       1.0  0.83670  0.34748  0.93838  1.0000
  C   C36       1.0  0.33670  0.15253  0.06162  1.0000
  C   C37       1.0  0.00783  0.60411  0.10418  1.0000
  C   C38       1.0  0.50783  0.89589  0.89582  1.0000
  C   C39       1.0  0.99218  0.39590  0.89582  1.0000
  C   C40       1.0  0.49217  0.10411  0.10418  1.0000
  C   C41       1.0  0.85762  0.66826  0.15903  1.0000
  C   C42       1.0  0.35762  0.83174  0.84097  1.0000
  C   C43       1.0  0.14238  0.33175  0.84097  1.0000
  C   C44       1.0  0.64238  0.16825  0.15903  1.0000
  N   N1        1.0  0.53212  0.81131  0.26306  1.0000
  N   N2        1.0  0.03212  0.68869  0.73694  1.0000
  N   N3        1.0  0.46788  0.18869  0.73694  1.0000
  N   N4        1.0  0.96789  0.31131  0.26306  1.0000
  N   N5        1.0  0.72960  0.95637  0.27856  1.0000
  N   N6        1.0  0.22960  0.54363  0.72144  1.0000
  N   N7        1.0  0.27040  0.04363  0.72144  1.0000
  N   N8        1.0  0.77040  0.45637  0.27856  1.0000
  O   O1        1.0  0.12485  0.95868  0.40885  1.0000
  O   O2        1.0  0.62485  0.54131  0.59115  1.0000
  O   O3        1.0  0.87515  0.04131  0.59115  1.0000
  O   O4        1.0  0.37515  0.45868  0.40885  1.0000
  O   O5        1.0  0.43449  0.12483  0.47280  1.0000
  O   O6        1.0  0.93449  0.37516  0.52721  1.0000
  O   O7        1.0  0.56551  0.87516  0.52721  1.0000
  O   O8        1.0  0.06551  0.62484  0.47279  1.0000
  O   O9        1.0  0.71544  0.16221  0.39764  1.0000
  O   O10       1.0  0.21544  0.33779  0.60236  1.0000
  O   O11       1.0  0.28455  0.83779  0.60236  1.0000
  O   O12       1.0  0.78456  0.66221  0.39764  1.0000
  O   O13       1.0  0.06808  0.10030  0.26211  1.0000
  O   O14       1.0  0.56808  0.39970  0.73789  1.0000
  O   O15       1.0  0.93192  0.89970  0.73789  1.0000
  O   O16       1.0  0.43193  0.60030  0.26211  1.0000
  O   O17       1.0  0.21218  0.78364  0.38371  1.0000
  O   O18       1.0  0.71219  0.71636  0.61628  1.0000
  O   O19       1.0  0.78782  0.21636  0.61628  1.0000
  O   O20       1.0  0.28782  0.28364  0.38372  1.0000
