data_image0
_chemical_formula_structural       Cd4H40C48N8O24
_chemical_formula_sum              "Cd4 H40 C48 N8 O24"
_cell_length_a       8.85897
_cell_length_b       9.68934
_cell_length_c       16.166
_cell_angle_alpha    90
_cell_angle_beta     90
_cell_angle_gamma    90

_space_group_name_H-M_alt    "P 1"
_space_group_IT_number       1

loop_
  _space_group_symop_operation_xyz
  'x, y, z'

loop_
  _atom_site_type_symbol
  _atom_site_label
  _atom_site_symmetry_multiplicity
  _atom_site_fract_x
  _atom_site_fract_y
  _atom_site_fract_z
  _atom_site_occupancy
  Cd  Cd1       1.0  0.13404  0.13477  0.18448  1.0000
  Cd  Cd2       1.0  0.86596  0.63477  0.81552  1.0000
  Cd  Cd3       1.0  0.36596  0.63477  0.68448  1.0000
  Cd  Cd4       1.0  0.63404  0.13477  0.31552  1.0000
  H   H1        1.0  0.21180  0.27753  0.92345  1.0000
  H   H2        1.0  0.78820  0.77753  0.07655  1.0000
  H   H3        1.0  0.28820  0.77753  0.42345  1.0000
  H   H4        1.0  0.71180  0.27753  0.57655  1.0000
  H   H5        1.0  0.25172  0.41483  0.27985  1.0000
  H   H6        1.0  0.74828  0.91483  0.72015  1.0000
  H   H7        1.0  0.24828  0.91483  0.77985  1.0000
  H   H8        1.0  0.75172  0.41483  0.22015  1.0000
  H   H9        1.0  0.22500  0.67365  0.27049  1.0000
  H   H10       1.0  0.77500  0.17365  0.72951  1.0000
  H   H11       1.0  0.27500  0.17365  0.77049  1.0000
  H   H12       1.0  0.72500  0.67365  0.22951  1.0000
  H   H13       1.0  0.96379  0.61182  0.04776  1.0000
  H   H14       1.0  0.03621  0.11182  0.95224  1.0000
  H   H15       1.0  0.53621  0.11182  0.54776  1.0000
  H   H16       1.0  0.46379  0.61182  0.45224  1.0000
  H   H17       1.0  0.00693  0.35804  0.06433  1.0000
  H   H18       1.0  0.99307  0.85804  0.93567  1.0000
  H   H19       1.0  0.49307  0.85804  0.56433  1.0000
  H   H20       1.0  0.50693  0.35804  0.43567  1.0000
  H   H21       1.0  0.40334  0.38452  0.84694  1.0000
  H   H22       1.0  0.59666  0.88452  0.15306  1.0000
  H   H23       1.0  0.09666  0.88452  0.34694  1.0000
  H   H24       1.0  0.90334  0.38452  0.65306  1.0000
  H   H25       1.0  0.66443  0.40187  0.90935  1.0000
  H   H26       1.0  0.33557  0.90187  0.09065  1.0000
  H   H27       1.0  0.83557  0.90187  0.40935  1.0000
  H   H28       1.0  0.16443  0.40187  0.59065  1.0000
  H   H29       1.0  0.70498  0.29966  0.05039  1.0000
  H   H30       1.0  0.29502  0.79967  0.94961  1.0000
  H   H31       1.0  0.79502  0.79966  0.55039  1.0000
  H   H32       1.0  0.20498  0.29966  0.44961  1.0000
  H   H33       1.0  0.81699  0.14322  0.13188  1.0000
  H   H34       1.0  0.18301  0.64322  0.86812  1.0000
  H   H35       1.0  0.68301  0.64322  0.63188  1.0000
  H   H36       1.0  0.31699  0.14322  0.36812  1.0000
  H   H37       1.0  0.91982  0.02195  0.09746  1.0000
  H   H38       1.0  0.08018  0.52195  0.90255  1.0000
  H   H39       1.0  0.58018  0.52195  0.59745  1.0000
  H   H40       1.0  0.41982  0.02195  0.40254  1.0000
  C   C1        1.0  0.18898  0.46368  0.22967  1.0000
  C   C2        1.0  0.81102  0.96367  0.77033  1.0000
  C   C3        1.0  0.31102  0.96368  0.72967  1.0000
  C   C4        1.0  0.68898  0.46367  0.27033  1.0000
  C   C5        1.0  0.17266  0.60630  0.22485  1.0000
  C   C6        1.0  0.82734  0.10630  0.77515  1.0000
  C   C7        1.0  0.32734  0.10630  0.72485  1.0000
  C   C8        1.0  0.67266  0.60630  0.27515  1.0000
  C   C9        1.0  0.08708  0.66232  0.16028  1.0000
  C   C10       1.0  0.91292  0.16232  0.83972  1.0000
  C   C11       1.0  0.41292  0.16232  0.66028  1.0000
  C   C12       1.0  0.58708  0.66232  0.33972  1.0000
  C   C13       1.0  0.02695  0.57305  0.10076  1.0000
  C   C14       1.0  0.97305  0.07305  0.89924  1.0000
  C   C15       1.0  0.47305  0.07305  0.60076  1.0000
  C   C16       1.0  0.52695  0.57304  0.39924  1.0000
  C   C17       1.0  0.05061  0.43183  0.10942  1.0000
  C   C18       1.0  0.94939  0.93183  0.89058  1.0000
  C   C19       1.0  0.44939  0.93183  0.60942  1.0000
  C   C20       1.0  0.55061  0.43183  0.39058  1.0000
  C   C21       1.0  0.05875  0.81569  0.15402  1.0000
  C   C22       1.0  0.94124  0.31570  0.84598  1.0000
  C   C23       1.0  0.44124  0.31570  0.65402  1.0000
  C   C24       1.0  0.55876  0.81570  0.34597  1.0000
  C   C25       1.0  0.43329  0.33867  0.90636  1.0000
  C   C26       1.0  0.56671  0.83867  0.09364  1.0000
  C   C27       1.0  0.06671  0.83867  0.40636  1.0000
  C   C28       1.0  0.93329  0.33867  0.59364  1.0000
  C   C29       1.0  0.57465  0.34746  0.94126  1.0000
  C   C30       1.0  0.42535  0.84746  0.05874  1.0000
  C   C31       1.0  0.92535  0.84747  0.44126  1.0000
  C   C32       1.0  0.07465  0.34746  0.55874  1.0000
  C   C33       1.0  0.59560  0.29011  0.02011  1.0000
  C   C34       1.0  0.40440  0.79011  0.97989  1.0000
  C   C35       1.0  0.90440  0.79011  0.52011  1.0000
  C   C36       1.0  0.09560  0.29011  0.47989  1.0000
  C   C37       1.0  0.48091  0.22166  0.06226  1.0000
  C   C38       1.0  0.51909  0.72166  0.93774  1.0000
  C   C39       1.0  0.01909  0.72166  0.56226  1.0000
  C   C40       1.0  0.98091  0.22166  0.43774  1.0000
  C   C41       1.0  0.33668  0.20419  0.02211  1.0000
  C   C42       1.0  0.66332  0.70419  0.97789  1.0000
  C   C43       1.0  0.16332  0.70419  0.52211  1.0000
  C   C44       1.0  0.83668  0.20419  0.47789  1.0000
  C   C45       1.0  0.50814  0.17329  0.14858  1.0000
  C   C46       1.0  0.49186  0.67329  0.85142  1.0000
  C   C47       1.0  0.99186  0.67329  0.64858  1.0000
  C   C48       1.0  0.00814  0.17329  0.35142  1.0000
  N   N1        1.0  0.12767  0.37787  0.17345  1.0000
  N   N2        1.0  0.87233  0.87787  0.82655  1.0000
  N   N3        1.0  0.37233  0.87787  0.67345  1.0000
  N   N4        1.0  0.62767  0.37787  0.32655  1.0000
  N   N5        1.0  0.32188  0.27084  0.94631  1.0000
  N   N6        1.0  0.67812  0.77084  0.05369  1.0000
  N   N7        1.0  0.17812  0.77084  0.44631  1.0000
  N   N8        1.0  0.82188  0.27084  0.55369  1.0000
  O   O1        1.0  0.91448  0.12477  0.10331  1.0000
  O   O2        1.0  0.08552  0.62477  0.89669  1.0000
  O   O3        1.0  0.58552  0.62477  0.60331  1.0000
  O   O4        1.0  0.41448  0.12477  0.39669  1.0000
  O   O5        1.0  0.14041  0.89496  0.19780  1.0000
  O   O6        1.0  0.85959  0.39496  0.80220  1.0000
  O   O7        1.0  0.35959  0.39496  0.69780  1.0000
  O   O8        1.0  0.64041  0.89496  0.30220  1.0000
  O   O9        1.0  0.95539  0.85383  0.10424  1.0000
  O   O10       1.0  0.04461  0.35383  0.89576  1.0000
  O   O11       1.0  0.54461  0.35383  0.60424  1.0000
  O   O12       1.0  0.45539  0.85383  0.39576  1.0000
  O   O13       1.0  0.22433  0.13557  0.04700  1.0000
  O   O14       1.0  0.77567  0.63557  0.95300  1.0000
  O   O15       1.0  0.27567  0.63557  0.54700  1.0000
  O   O16       1.0  0.72433  0.13557  0.45300  1.0000
  O   O17       1.0  0.40100  0.13962  0.19644  1.0000
  O   O18       1.0  0.59900  0.63963  0.80356  1.0000
  O   O19       1.0  0.09900  0.63963  0.69644  1.0000
  O   O20       1.0  0.90100  0.13963  0.30356  1.0000
  O   O21       1.0  0.64599  0.17188  0.17413  1.0000
  O   O22       1.0  0.35401  0.67188  0.82586  1.0000
  O   O23       1.0  0.85401  0.67188  0.67413  1.0000
  O   O24       1.0  0.14599  0.17188  0.32586  1.0000
