data_image0
_chemical_formula_structural       Cd4H60C60N8O16
_chemical_formula_sum              "Cd4 H60 C60 N8 O16"
_cell_length_a       9.4021
_cell_length_b       12.0234
_cell_length_c       13.3493
_cell_angle_alpha    90
_cell_angle_beta     91.9359
_cell_angle_gamma    90

_space_group_name_H-M_alt    "P 1"
_space_group_IT_number       1

loop_
  _space_group_symop_operation_xyz
  'x, y, z'

loop_
  _atom_site_type_symbol
  _atom_site_label
  _atom_site_symmetry_multiplicity
  _atom_site_fract_x
  _atom_site_fract_y
  _atom_site_fract_z
  _atom_site_occupancy
  Cd  Cd1       1.0  0.13679  0.56376  0.56135  1.0000
  Cd  Cd2       1.0  0.36321  0.06376  0.93865  1.0000
  Cd  Cd3       1.0  0.86321  0.43624  0.43865  1.0000
  Cd  Cd4       1.0  0.63679  0.93624  0.06135  1.0000
  H   H1        1.0  0.32055  0.75165  0.25832  1.0000
  H   H2        1.0  0.17945  0.25165  0.24168  1.0000
  H   H3        1.0  0.67945  0.24834  0.74168  1.0000
  H   H4        1.0  0.82055  0.74835  0.75832  1.0000
  H   H5        1.0  0.07804  0.75733  0.97932  1.0000
  H   H6        1.0  0.42196  0.25733  0.52068  1.0000
  H   H7        1.0  0.92195  0.24267  0.02068  1.0000
  H   H8        1.0  0.57804  0.74267  0.47932  1.0000
  H   H9        1.0  0.92925  0.56820  0.22867  1.0000
  H   H10       1.0  0.57075  0.06820  0.27133  1.0000
  H   H11       1.0  0.07075  0.43180  0.77133  1.0000
  H   H12       1.0  0.42925  0.93180  0.72867  1.0000
  H   H13       1.0  0.86791  0.64718  0.95554  1.0000
  H   H14       1.0  0.63209  0.14718  0.54446  1.0000
  H   H15       1.0  0.13209  0.35282  0.04446  1.0000
  H   H16       1.0  0.36791  0.85282  0.45554  1.0000
  H   H17       1.0  0.76578  0.64348  0.06459  1.0000
  H   H18       1.0  0.73422  0.14348  0.43541  1.0000
  H   H19       1.0  0.23422  0.35652  0.93541  1.0000
  H   H20       1.0  0.26578  0.85652  0.56458  1.0000
  H   H21       1.0  0.86198  0.52340  0.02959  1.0000
  H   H22       1.0  0.63802  0.02340  0.47041  1.0000
  H   H23       1.0  0.13802  0.47660  0.97040  1.0000
  H   H24       1.0  0.36198  0.97660  0.52959  1.0000
  H   H25       1.0  0.13261  0.72091  0.76289  1.0000
  H   H26       1.0  0.36739  0.22091  0.73711  1.0000
  H   H27       1.0  0.86739  0.27909  0.23711  1.0000
  H   H28       1.0  0.63262  0.77909  0.26289  1.0000
  H   H29       1.0  0.34836  0.72801  0.91108  1.0000
  H   H30       1.0  0.15164  0.22801  0.58892  1.0000
  H   H31       1.0  0.65165  0.27199  0.08892  1.0000
  H   H32       1.0  0.84836  0.77199  0.41108  1.0000
  H   H33       1.0  0.41692  0.44109  0.60737  1.0000
  H   H34       1.0  0.08308  0.94109  0.89263  1.0000
  H   H35       1.0  0.58308  0.55891  0.39263  1.0000
  H   H36       1.0  0.91692  0.05891  0.10737  1.0000
  H   H37       1.0  0.50669  0.39823  0.72072  1.0000
  H   H38       1.0  0.99331  0.89823  0.77928  1.0000
  H   H39       1.0  0.49331  0.60177  0.27928  1.0000
  H   H40       1.0  0.00669  0.10177  0.22072  1.0000
  H   H41       1.0  0.57799  0.50619  0.64775  1.0000
  H   H42       1.0  0.92201  0.00619  0.85225  1.0000
  H   H43       1.0  0.42201  0.49381  0.35225  1.0000
  H   H44       1.0  0.07799  0.99381  0.14775  1.0000
  H   H45       1.0  0.49183  0.40764  0.91956  1.0000
  H   H46       1.0  0.00817  0.90764  0.58044  1.0000
  H   H47       1.0  0.50817  0.59236  0.08044  1.0000
  H   H48       1.0  0.99183  0.09236  0.41956  1.0000
  H   H49       1.0  0.64891  0.45242  0.98165  1.0000
  H   H50       1.0  0.85109  0.95242  0.51834  1.0000
  H   H51       1.0  0.35109  0.54758  0.01835  1.0000
  H   H52       1.0  0.14891  0.04758  0.48166  1.0000
  H   H53       1.0  0.60557  0.64787  0.91243  1.0000
  H   H54       1.0  0.89442  0.14787  0.58757  1.0000
  H   H55       1.0  0.39443  0.35213  0.08757  1.0000
  H   H56       1.0  0.10558  0.85213  0.41243  1.0000
  H   H57       1.0  0.64539  0.54409  0.82409  1.0000
  H   H58       1.0  0.85461  0.04409  0.67591  1.0000
  H   H59       1.0  0.35461  0.45591  0.17591  1.0000
  H   H60       1.0  0.14539  0.95591  0.32410  1.0000
  C   C1        1.0  0.13414  0.62922  0.36266  1.0000
  C   C2        1.0  0.36586  0.12923  0.13734  1.0000
  C   C3        1.0  0.86586  0.37077  0.63734  1.0000
  C   C4        1.0  0.63414  0.87077  0.86266  1.0000
  C   C5        1.0  0.12528  0.65726  0.25406  1.0000
  C   C6        1.0  0.37472  0.15726  0.24594  1.0000
  C   C7        1.0  0.87472  0.34274  0.74594  1.0000
  C   C8        1.0  0.62527  0.84274  0.75406  1.0000
  C   C9        1.0  0.22918  0.72438  0.21248  1.0000
  C   C10       1.0  0.27082  0.22438  0.28752  1.0000
  C   C11       1.0  0.77082  0.27562  0.78752  1.0000
  C   C12       1.0  0.72918  0.77562  0.71248  1.0000
  C   C13       1.0  0.21169  0.75995  0.11349  1.0000
  C   C14       1.0  0.28831  0.25995  0.38651  1.0000
  C   C15       1.0  0.78831  0.24005  0.88651  1.0000
  C   C16       1.0  0.71168  0.74005  0.61349  1.0000
  C   C17       1.0  0.09210  0.72622  0.05570  1.0000
  C   C18       1.0  0.40790  0.22622  0.44430  1.0000
  C   C19       1.0  0.90790  0.27378  0.94430  1.0000
  C   C20       1.0  0.59210  0.77378  0.55570  1.0000
  C   C21       1.0  0.99130  0.65411  0.09463  1.0000
  C   C22       1.0  0.50870  0.15411  0.40537  1.0000
  C   C23       1.0  0.00870  0.34588  0.90537  1.0000
  C   C24       1.0  0.49130  0.84589  0.59463  1.0000
  C   C25       1.0  0.00855  0.62112  0.19483  1.0000
  C   C26       1.0  0.49145  0.12112  0.30517  1.0000
  C   C27       1.0  0.99145  0.37888  0.80517  1.0000
  C   C28       1.0  0.50855  0.87888  0.69483  1.0000
  C   C29       1.0  0.31848  0.83741  0.07048  1.0000
  C   C30       1.0  0.18152  0.33741  0.42952  1.0000
  C   C31       1.0  0.68152  0.16259  0.92952  1.0000
  C   C32       1.0  0.81847  0.66259  0.57048  1.0000
  C   C33       1.0  0.86547  0.61478  0.03221  1.0000
  C   C34       1.0  0.63452  0.11478  0.46779  1.0000
  C   C35       1.0  0.13452  0.38522  0.96779  1.0000
  C   C36       1.0  0.36547  0.88522  0.53221  1.0000
  C   C37       1.0  0.23080  0.67404  0.77073  1.0000
  C   C38       1.0  0.26920  0.17404  0.72927  1.0000
  C   C39       1.0  0.76920  0.32596  0.22927  1.0000
  C   C40       1.0  0.73080  0.82595  0.27073  1.0000
  C   C41       1.0  0.33475  0.67649  0.84508  1.0000
  C   C42       1.0  0.16525  0.17649  0.65492  1.0000
  C   C43       1.0  0.66525  0.32351  0.15492  1.0000
  C   C44       1.0  0.83476  0.82351  0.34508  1.0000
  C   C45       1.0  0.39415  0.55328  0.72880  1.0000
  C   C46       1.0  0.10584  0.05328  0.77120  1.0000
  C   C47       1.0  0.60585  0.44672  0.27120  1.0000
  C   C48       1.0  0.89416  0.94672  0.22880  1.0000
  C   C49       1.0  0.47805  0.47030  0.67363  1.0000
  C   C50       1.0  0.02194  0.97030  0.82637  1.0000
  C   C51       1.0  0.52195  0.52970  0.32636  1.0000
  C   C52       1.0  0.97805  0.02970  0.17364  1.0000
  C   C53       1.0  0.54273  0.48063  0.95557  1.0000
  C   C54       1.0  0.95727  0.98063  0.54443  1.0000
  C   C55       1.0  0.45727  0.51937  0.04443  1.0000
  C   C56       1.0  0.04273  0.01937  0.45557  1.0000
  C   C57       1.0  0.56551  0.57116  0.87698  1.0000
  C   C58       1.0  0.93449  0.07116  0.62302  1.0000
  C   C59       1.0  0.43449  0.42884  0.12302  1.0000
  C   C60       1.0  0.06552  0.92884  0.37698  1.0000
  N   N1        1.0  0.26877  0.59742  0.69901  1.0000
  N   N2        1.0  0.23123  0.09742  0.80099  1.0000
  N   N3        1.0  0.73124  0.40258  0.30099  1.0000
  N   N4        1.0  0.76877  0.90258  0.19901  1.0000
  N   N5        1.0  0.43643  0.59985  0.81816  1.0000
  N   N6        1.0  0.06357  0.09985  0.68184  1.0000
  N   N7        1.0  0.56357  0.40015  0.18184  1.0000
  N   N8        1.0  0.93643  0.90015  0.31816  1.0000
  O   O1        1.0  0.02871  0.57669  0.39859  1.0000
  O   O2        1.0  0.47129  0.07669  0.10141  1.0000
  O   O3        1.0  0.97128  0.42331  0.60141  1.0000
  O   O4        1.0  0.52871  0.92331  0.89859  1.0000
  O   O5        1.0  0.23985  0.66016  0.41760  1.0000
  O   O6        1.0  0.26016  0.16016  0.08240  1.0000
  O   O7        1.0  0.76016  0.33984  0.58240  1.0000
  O   O8        1.0  0.73984  0.83984  0.91760  1.0000
  O   O9        1.0  0.26927  0.90486  0.00443  1.0000
  O   O10       1.0  0.23073  0.40485  0.49558  1.0000
  O   O11       1.0  0.73073  0.09514  0.99557  1.0000
  O   O12       1.0  0.76927  0.59515  0.50443  1.0000
  O   O13       1.0  0.44662  0.82772  0.10384  1.0000
  O   O14       1.0  0.05338  0.32772  0.39616  1.0000
  O   O15       1.0  0.55338  0.17228  0.89616  1.0000
  O   O16       1.0  0.94662  0.67228  0.60384  1.0000
