data_image0
_chemical_formula_structural       Na4H20C20N8O20
_chemical_formula_sum              "Na4 H20 C20 N8 O20"
_cell_length_a       3.62739
_cell_length_b       13.7362
_cell_length_c       14.634
_cell_angle_alpha    90.0001
_cell_angle_beta     95.7281
_cell_angle_gamma    90.0004

_space_group_name_H-M_alt    "P 1"
_space_group_IT_number       1

loop_
  _space_group_symop_operation_xyz
  'x, y, z'

loop_
  _atom_site_type_symbol
  _atom_site_label
  _atom_site_symmetry_multiplicity
  _atom_site_fract_x
  _atom_site_fract_y
  _atom_site_fract_z
  _atom_site_occupancy
  Na  Na1       1.0  0.73004  0.12334  0.11504  1.0000
  Na  Na2       1.0  0.26995  0.62334  0.38496  1.0000
  Na  Na3       1.0  0.26997  0.87666  0.88496  1.0000
  Na  Na4       1.0  0.73005  0.37666  0.61504  1.0000
  H   H1        1.0  0.13172  0.23280  0.01173  1.0000
  H   H2        1.0  0.86828  0.73280  0.48827  1.0000
  H   H3        1.0  0.86829  0.76720  0.98827  1.0000
  H   H4        1.0  0.13173  0.26720  0.51173  1.0000
  H   H5        1.0  0.23574  0.13260  0.96206  1.0000
  H   H6        1.0  0.76425  0.63260  0.53794  1.0000
  H   H7        1.0  0.76427  0.86740  0.03794  1.0000
  H   H8        1.0  0.23575  0.36740  0.46206  1.0000
  H   H9        1.0  0.71047  0.69364  0.15536  1.0000
  H   H10       1.0  0.28952  0.19364  0.34464  1.0000
  H   H11       1.0  0.28953  0.30636  0.84464  1.0000
  H   H12       1.0  0.71047  0.80636  0.65536  1.0000
  H   H13       1.0  0.70967  0.30524  0.24449  1.0000
  H   H14       1.0  0.29032  0.80524  0.25551  1.0000
  H   H15       1.0  0.29034  0.69476  0.75551  1.0000
  H   H16       1.0  0.70968  0.19476  0.74449  1.0000
  H   H17       1.0  0.90378  0.56062  0.05163  1.0000
  H   H18       1.0  0.09621  0.06062  0.44837  1.0000
  H   H19       1.0  0.09621  0.43938  0.94837  1.0000
  H   H20       1.0  0.90379  0.93938  0.55163  1.0000
  C   C1        1.0  0.77406  0.45761  0.15723  1.0000
  C   C2        1.0  0.22592  0.95762  0.34277  1.0000
  C   C3        1.0  0.22593  0.54238  0.84277  1.0000
  C   C4        1.0  0.77408  0.04239  0.65723  1.0000
  C   C5        1.0  0.53489  0.41645  0.31602  1.0000
  C   C6        1.0  0.46511  0.91645  0.18398  1.0000
  C   C7        1.0  0.46511  0.58354  0.68398  1.0000
  C   C8        1.0  0.53488  0.08355  0.81602  1.0000
  C   C9        1.0  0.70875  0.61668  0.17217  1.0000
  C   C10       1.0  0.29124  0.11669  0.32783  1.0000
  C   C11       1.0  0.29125  0.38331  0.82783  1.0000
  C   C12       1.0  0.70876  0.88331  0.67217  1.0000
  C   C13       1.0  0.63962  0.48016  0.24139  1.0000
  C   C14       1.0  0.36037  0.98016  0.25861  1.0000
  C   C15       1.0  0.36037  0.51984  0.75861  1.0000
  C   C16       1.0  0.63963  0.01985  0.74139  1.0000
  C   C17       1.0  0.86969  0.36421  0.11521  1.0000
  C   C18       1.0  0.13032  0.86422  0.38479  1.0000
  C   C19       1.0  0.13032  0.63578  0.88479  1.0000
  C   C20       1.0  0.86969  0.13578  0.61521  1.0000
  N   N1        1.0  0.60218  0.57956  0.24931  1.0000
  N   N2        1.0  0.39780  0.07956  0.25068  1.0000
  N   N3        1.0  0.39782  0.42044  0.75069  1.0000
  N   N4        1.0  0.60218  0.92044  0.74932  1.0000
  N   N5        1.0  0.81090  0.54601  0.11521  1.0000
  N   N6        1.0  0.18909  0.04602  0.38479  1.0000
  N   N7        1.0  0.18909  0.45399  0.88479  1.0000
  N   N8        1.0  0.81091  0.95399  0.61521  1.0000
  O   O1        1.0  0.83162  0.28690  0.16309  1.0000
  O   O2        1.0  0.16836  0.78690  0.33692  1.0000
  O   O3        1.0  0.16838  0.71310  0.83692  1.0000
  O   O4        1.0  0.83165  0.21310  0.66308  1.0000
  O   O5        1.0  0.38349  0.45160  0.38162  1.0000
  O   O6        1.0  0.61651  0.95160  0.11838  1.0000
  O   O7        1.0  0.61650  0.54840  0.61838  1.0000
  O   O8        1.0  0.38348  0.04840  0.88162  1.0000
  O   O9        1.0  0.98675  0.36350  0.03681  1.0000
  O   O10       1.0  0.01324  0.86351  0.46319  1.0000
  O   O11       1.0  0.01324  0.63649  0.96319  1.0000
  O   O12       1.0  0.98676  0.13649  0.53681  1.0000
  O   O13       1.0  0.18750  0.16307  0.02113  1.0000
  O   O14       1.0  0.81249  0.66307  0.47887  1.0000
  O   O15       1.0  0.81251  0.83693  0.97887  1.0000
  O   O16       1.0  0.18751  0.33693  0.52113  1.0000
  O   O17       1.0  0.60097  0.32306  0.31033  1.0000
  O   O18       1.0  0.39904  0.82306  0.18968  1.0000
  O   O19       1.0  0.39904  0.67694  0.68967  1.0000
  O   O20       1.0  0.60097  0.17695  0.81033  1.0000
