data_image0
_chemical_formula_structural       Na2Cd2H42C28S2N4O22
_chemical_formula_sum              "Na2 Cd2 H42 C28 S2 N4 O22"
_cell_length_a       8.85764
_cell_length_b       10.3562
_cell_length_c       12.91
_cell_angle_alpha    106.459
_cell_angle_beta     109.712
_cell_angle_gamma    98.5209

_space_group_name_H-M_alt    "P 1"
_space_group_IT_number       1

loop_
  _space_group_symop_operation_xyz
  'x, y, z'

loop_
  _atom_site_type_symbol
  _atom_site_label
  _atom_site_symmetry_multiplicity
  _atom_site_fract_x
  _atom_site_fract_y
  _atom_site_fract_z
  _atom_site_occupancy
  Na  Na1       1.0  0.51008  0.66963  0.47075  1.0000
  Na  Na2       1.0  0.48992  0.33037  0.52925  1.0000
  Cd  Cd1       1.0  0.18347  0.94603  0.37346  1.0000
  Cd  Cd2       1.0  0.81653  0.05397  0.62654  1.0000
  H   H1        1.0  0.75685  0.58553  0.31421  1.0000
  H   H2        1.0  0.24316  0.41447  0.68579  1.0000
  H   H3        1.0  0.20002  0.44255  0.39861  1.0000
  H   H4        1.0  0.79998  0.55745  0.60139  1.0000
  H   H5        1.0  0.72723  0.16732  0.31680  1.0000
  H   H6        1.0  0.27277  0.83268  0.68320  1.0000
  H   H7        1.0  0.28599  0.98415  0.16242  1.0000
  H   H8        1.0  0.71400  0.01585  0.83758  1.0000
  H   H9        1.0  0.31165  0.02699  0.02007  1.0000
  H   H10       1.0  0.68835  0.97301  0.97993  1.0000
  H   H11       1.0  0.12973  0.98662  0.88893  1.0000
  H   H12       1.0  0.87027  0.01338  0.11107  1.0000
  H   H13       1.0  0.25644  0.86863  0.89652  1.0000
  H   H14       1.0  0.74356  0.13137  0.10348  1.0000
  H   H15       1.0  0.97767  0.67425  0.86316  1.0000
  H   H16       1.0  0.02233  0.32575  0.13684  1.0000
  H   H17       1.0  0.87691  0.80959  0.85567  1.0000
  H   H18       1.0  0.12309  0.19041  0.14433  1.0000
  H   H19       1.0  0.88792  0.73602  0.96670  1.0000
  H   H20       1.0  0.11207  0.26398  0.03329  1.0000
  H   H21       1.0  0.31774  0.58749  0.18947  1.0000
  H   H22       1.0  0.68226  0.41251  0.81053  1.0000
  H   H23       1.0  0.22354  0.52465  0.00121  1.0000
  H   H24       1.0  0.77646  0.47535  0.99879  1.0000
  H   H25       1.0  0.37181  0.53807  0.93612  1.0000
  H   H26       1.0  0.62819  0.46193  0.06388  1.0000
  H   H27       1.0  0.26496  0.66907  0.95551  1.0000
  H   H28       1.0  0.73504  0.33093  0.04449  1.0000
  H   H29       1.0  0.59523  0.87520  0.14488  1.0000
  H   H30       1.0  0.40478  0.12480  0.85512  1.0000
  H   H31       1.0  0.61214  0.73302  0.03584  1.0000
  H   H32       1.0  0.38786  0.26698  0.96416  1.0000
  H   H33       1.0  0.71258  0.76032  0.18947  1.0000
  H   H34       1.0  0.28743  0.23967  0.81053  1.0000
  H   H35       1.0  0.18550  0.99053  0.60729  1.0000
  H   H36       1.0  0.81450  0.00947  0.39271  1.0000
  H   H37       1.0  0.32114  0.12764  0.62458  1.0000
  H   H38       1.0  0.67886  0.87236  0.37542  1.0000
  H   H39       1.0  0.43856  0.10932  0.34028  1.0000
  H   H40       1.0  0.56144  0.89068  0.65972  1.0000
  H   H41       1.0  0.54487  0.02028  0.39993  1.0000
  H   H42       1.0  0.45513  0.97972  0.60007  1.0000
  C   C1        1.0  0.72401  0.37289  0.31180  1.0000
  C   C2        1.0  0.27599  0.62711  0.68820  1.0000
  C   C3        1.0  0.81636  0.50305  0.32656  1.0000
  C   C4        1.0  0.18364  0.49696  0.67344  1.0000
  C   C5        1.0  0.98855  0.52872  0.35804  1.0000
  C   C6        1.0  0.01145  0.47128  0.64196  1.0000
  C   C7        1.0  0.06655  0.42414  0.37574  1.0000
  C   C8        1.0  0.93345  0.57586  0.62426  1.0000
  C   C9        1.0  0.97303  0.29429  0.36195  1.0000
  C   C10       1.0  0.02698  0.70571  0.63805  1.0000
  C   C11       1.0  0.80089  0.26862  0.32942  1.0000
  C   C12       1.0  0.19911  0.73138  0.67058  1.0000
  C   C13       1.0  0.08583  0.66871  0.37112  1.0000
  C   C14       1.0  0.91417  0.33129  0.62888  1.0000
  C   C15       1.0  0.05387  0.17994  0.37510  1.0000
  C   C16       1.0  0.94613  0.82007  0.62491  1.0000
  C   C17       1.0  0.16682  0.90278  0.11367  1.0000
  C   C18       1.0  0.83318  0.09722  0.88633  1.0000
  C   C19       1.0  0.20785  0.94226  0.94793  1.0000
  C   C20       1.0  0.79215  0.05774  0.05207  1.0000
  C   C21       1.0  0.95452  0.76679  0.91625  1.0000
  C   C22       1.0  0.04548  0.23321  0.08375  1.0000
  C   C23       1.0  0.43650  0.65816  0.20706  1.0000
  C   C24       1.0  0.56350  0.34184  0.79294  1.0000
  C   C25       1.0  0.32052  0.59715  0.99470  1.0000
  C   C26       1.0  0.67948  0.40285  0.00530  1.0000
  C   C27       1.0  0.60188  0.76595  0.12117  1.0000
  C   C28       1.0  0.39812  0.23405  0.87883  1.0000
  S   S1        1.0  0.50508  0.34049  0.27078  1.0000
  S   S2        1.0  0.49492  0.65951  0.72922  1.0000
  N   N1        1.0  0.11059  0.87145  0.99695  1.0000
  N   N2        1.0  0.88940  0.12855  0.00305  1.0000
  N   N3        1.0  0.45184  0.67374  0.11146  1.0000
  N   N4        1.0  0.54816  0.32626  0.88854  1.0000
  O   O1        1.0  0.43918  0.37905  0.16730  1.0000
  O   O2        1.0  0.56083  0.62095  0.83270  1.0000
  O   O3        1.0  0.44370  0.18912  0.24467  1.0000
  O   O4        1.0  0.55630  0.81088  0.75533  1.0000
  O   O5        1.0  0.48476  0.42665  0.37533  1.0000
  O   O6        1.0  0.51525  0.57335  0.62467  1.0000
  O   O7        1.0  0.00216  0.75806  0.35696  1.0000
  O   O8        1.0  0.99784  0.24194  0.64304  1.0000
  O   O9        1.0  0.23995  0.69266  0.39374  1.0000
  O   O10       1.0  0.76005  0.30734  0.60626  1.0000
  O   O11       1.0  0.20991  0.20376  0.40673  1.0000
  O   O12       1.0  0.79009  0.79624  0.59327  1.0000
  O   O13       1.0  0.96084  0.05724  0.34794  1.0000
  O   O14       1.0  0.03917  0.94277  0.65206  1.0000
  O   O15       1.0  0.09260  0.84839  0.16484  1.0000
  O   O16       1.0  0.90740  0.15161  0.83516  1.0000
  O   O17       1.0  0.54578  0.71666  0.31011  1.0000
  O   O18       1.0  0.45422  0.28334  0.68989  1.0000
  O   O19       1.0  0.27394  0.02412  0.58128  1.0000
  O   O20       1.0  0.72606  0.97588  0.41872  1.0000
  O   O21       1.0  0.44427  0.05534  0.39373  1.0000
  O   O22       1.0  0.55573  0.94466  0.60627  1.0000
