data_image0
_chemical_formula_structural       Zn2H28C26I4N4
_chemical_formula_sum              "Zn2 H28 C26 I4 N4"
_cell_length_a       5.59002
_cell_length_b       10.7936
_cell_length_c       12.8736
_cell_angle_alpha    90.0037
_cell_angle_beta     90.0027
_cell_angle_gamma    91.5891

_space_group_name_H-M_alt    "P 1"
_space_group_IT_number       1

loop_
  _space_group_symop_operation_xyz
  'x, y, z'

loop_
  _atom_site_type_symbol
  _atom_site_label
  _atom_site_symmetry_multiplicity
  _atom_site_fract_x
  _atom_site_fract_y
  _atom_site_fract_z
  _atom_site_occupancy
  Zn  Zn1       1.0  0.07135  0.21370  0.75000  1.0000
  Zn  Zn2       1.0  0.92865  0.78630  0.24999  1.0000
  H   H1        1.0  0.41023  0.30759  0.25002  1.0000
  H   H2        1.0  0.58978  0.69241  0.74999  1.0000
  H   H3        1.0  0.55716  0.16528  0.25001  1.0000
  H   H4        1.0  0.44285  0.83471  0.75000  1.0000
  H   H5        1.0  0.89109  0.25529  0.35470  1.0000
  H   H6        1.0  0.10890  0.74469  0.85465  1.0000
  H   H7        1.0  0.10892  0.74470  0.64530  1.0000
  H   H8        1.0  0.89109  0.25531  0.14534  1.0000
  H   H9        1.0  0.76722  0.40474  0.34538  1.0000
  H   H10       1.0  0.23276  0.59524  0.84531  1.0000
  H   H11       1.0  0.23278  0.59527  0.65462  1.0000
  H   H12       1.0  0.76724  0.40476  0.15468  1.0000
  H   H13       1.0  0.33899  0.43454  0.41645  1.0000
  H   H14       1.0  0.66098  0.56544  0.91642  1.0000
  H   H15       1.0  0.66102  0.56546  0.58355  1.0000
  H   H16       1.0  0.33900  0.43456  0.08358  1.0000
  H   H17       1.0  0.08731  0.39007  0.57303  1.0000
  H   H18       1.0  0.91269  0.60991  0.07300  1.0000
  H   H19       1.0  0.91271  0.60994  0.42697  1.0000
  H   H20       1.0  0.08730  0.39008  0.92700  1.0000
  H   H21       1.0  0.47854  0.08149  0.64707  1.0000
  H   H22       1.0  0.52146  0.91849  0.14705  1.0000
  H   H23       1.0  0.52147  0.91852  0.35294  1.0000
  H   H24       1.0  0.47853  0.08150  0.85294  1.0000
  H   H25       1.0  0.75113  0.11534  0.49688  1.0000
  H   H26       1.0  0.24884  0.88465  0.99684  1.0000
  H   H27       1.0  0.24887  0.88466  0.50313  1.0000
  H   H28       1.0  0.75113  0.11535  0.00316  1.0000
  C   C1        1.0  0.58823  0.26631  0.25002  1.0000
  C   C2        1.0  0.41178  0.73368  0.74999  1.0000
  C   C3        1.0  0.72228  0.30481  0.34948  1.0000
  C   C4        1.0  0.27771  0.69516  0.84944  1.0000
  C   C5        1.0  0.27773  0.69519  0.65052  1.0000
  C   C6        1.0  0.72229  0.30483  0.15056  1.0000
  C   C7        1.0  0.56982  0.27907  0.44339  1.0000
  C   C8        1.0  0.43014  0.72091  0.94336  1.0000
  C   C9        1.0  0.43018  0.72093  0.55661  1.0000
  C   C10       1.0  0.56985  0.27909  0.05664  1.0000
  C   C11       1.0  0.37748  0.35541  0.46593  1.0000
  C   C12       1.0  0.62250  0.64458  0.96591  1.0000
  C   C13       1.0  0.62253  0.64460  0.53407  1.0000
  C   C14       1.0  0.37750  0.35542  0.03410  1.0000
  C   C15       1.0  0.23586  0.33142  0.55218  1.0000
  C   C16       1.0  0.76412  0.66857  0.05216  1.0000
  C   C17       1.0  0.76415  0.66859  0.44783  1.0000
  C   C18       1.0  0.23586  0.33143  0.94784  1.0000
  C   C19       1.0  0.45332  0.15903  0.59424  1.0000
  C   C20       1.0  0.54665  0.84093  0.09422  1.0000
  C   C21       1.0  0.54669  0.84097  0.40577  1.0000
  C   C22       1.0  0.45333  0.15906  0.90577  1.0000
  C   C23       1.0  0.60478  0.17837  0.50969  1.0000
  C   C24       1.0  0.39519  0.82162  0.00966  1.0000
  C   C25       1.0  0.39522  0.82164  0.49032  1.0000
  C   C26       1.0  0.60481  0.17837  0.99034  1.0000
  I   I1        1.0  0.92801  0.98497  0.74999  1.0000
  I   I2        1.0  0.07201  0.01504  0.24997  1.0000
  I   I3        1.0  0.78737  0.40055  0.75000  1.0000
  I   I4        1.0  0.21263  0.59945  0.25000  1.0000
  N   N1        1.0  0.27296  0.23502  0.61629  1.0000
  N   N2        1.0  0.72703  0.76496  0.11627  1.0000
  N   N3        1.0  0.72704  0.76499  0.38372  1.0000
  N   N4        1.0  0.27296  0.23503  0.88374  1.0000
