data_image0
_chemical_formula_structural       CoH24C24N8O4
_chemical_formula_sum              "Co1 H24 C24 N8 O4"
_cell_length_a       8.5328
_cell_length_b       8.50265
_cell_length_c       9.78806
_cell_angle_alpha    85.2045
_cell_angle_beta     90.2333
_cell_angle_gamma    66.6649

_space_group_name_H-M_alt    "P 1"
_space_group_IT_number       1

loop_
  _space_group_symop_operation_xyz
  'x, y, z'

loop_
  _atom_site_type_symbol
  _atom_site_label
  _atom_site_symmetry_multiplicity
  _atom_site_fract_x
  _atom_site_fract_y
  _atom_site_fract_z
  _atom_site_occupancy
  Co  Co1       1.0  1.00000  0.00000  0.00000  1.0000
  H   H1        1.0  0.21055  0.17018  0.79710  1.0000
  H   H2        1.0  0.78945  0.82982  0.20291  1.0000
  H   H3        1.0  0.02164  0.23350  0.17858  1.0000
  H   H4        1.0  0.97836  0.76651  0.82142  1.0000
  H   H5        1.0  0.17568  0.44817  0.15554  1.0000
  H   H6        1.0  0.82431  0.55184  0.84446  1.0000
  H   H7        1.0  0.60647  0.17041  0.05878  1.0000
  H   H8        1.0  0.39353  0.82959  0.94122  1.0000
  H   H9        1.0  0.89212  0.20680  0.72773  1.0000
  H   H10       1.0  0.10788  0.79319  0.27227  1.0000
  H   H11       1.0  0.58614  0.43344  0.65555  1.0000
  H   H12       1.0  0.41386  0.56656  0.34445  1.0000
  H   H13       1.0  0.30471  0.56052  0.92308  1.0000
  H   H14       1.0  0.69529  0.43948  0.07692  1.0000
  H   H15       1.0  0.26874  0.48751  0.76879  1.0000
  H   H16       1.0  0.73126  0.51249  0.23121  1.0000
  H   H17       1.0  0.32897  0.71954  0.64703  1.0000
  H   H18       1.0  0.67103  0.28046  0.35296  1.0000
  H   H19       1.0  0.19284  0.82714  0.49983  1.0000
  H   H20       1.0  0.80716  0.17286  0.50017  1.0000
  H   H21       1.0  0.54490  0.83259  0.72741  1.0000
  H   H22       1.0  0.45511  0.16740  0.27259  1.0000
  H   H23       1.0  0.25742  0.03020  0.34392  1.0000
  H   H24       1.0  0.74259  0.96980  0.65607  1.0000
  C   C1        1.0  0.18914  0.21966  0.89691  1.0000
  C   C2        1.0  0.81086  0.78034  0.10309  1.0000
  C   C3        1.0  0.23759  0.34462  0.94833  1.0000
  C   C4        1.0  0.76241  0.65539  0.05167  1.0000
  C   C5        1.0  0.17438  0.36259  0.07966  1.0000
  C   C6        1.0  0.82561  0.63742  0.92034  1.0000
  C   C7        1.0  0.63052  0.22068  0.95931  1.0000
  C   C8        1.0  0.36948  0.77932  0.04070  1.0000
  C   C9        1.0  0.51606  0.34389  0.86151  1.0000
  C   C10       1.0  0.48394  0.65610  0.13849  1.0000
  C   C11       1.0  0.61833  0.35747  0.75423  1.0000
  C   C12       1.0  0.38167  0.64253  0.24578  1.0000
  C   C13       1.0  0.32752  0.44296  0.87277  1.0000
  C   C14       1.0  0.67248  0.55704  0.12723  1.0000
  C   C15       1.0  0.12653  0.96170  0.67753  1.0000
  C   C16       1.0  0.87348  0.03829  0.32248  1.0000
  C   C17       1.0  0.26284  0.84467  0.58784  1.0000
  C   C18       1.0  0.73716  0.15533  0.41216  1.0000
  C   C19       1.0  0.38685  0.92166  0.54059  1.0000
  C   C20       1.0  0.61315  0.07835  0.45941  1.0000
  C   C21       1.0  0.52465  0.90612  0.62714  1.0000
  C   C22       1.0  0.47535  0.09388  0.37286  1.0000
  C   C23       1.0  0.36379  0.01674  0.41269  1.0000
  C   C24       1.0  0.63623  0.98325  0.58730  1.0000
  N   N1        1.0  0.10068  0.16717  0.99008  1.0000
  N   N2        1.0  0.89932  0.83284  0.00993  1.0000
  N   N3        1.0  0.09452  0.25388  0.10085  1.0000
  N   N4        1.0  0.90547  0.74613  0.89915  1.0000
  N   N5        1.0  0.79054  0.16511  0.91417  1.0000
  N   N6        1.0  0.20946  0.83489  0.08583  1.0000
  N   N7        1.0  0.78197  0.25030  0.78973  1.0000
  N   N8        1.0  0.21803  0.74970  0.21028  1.0000
  O   O1        1.0  0.10211  0.89212  0.79206  1.0000
  O   O2        1.0  0.89791  0.10787  0.20794  1.0000
  O   O3        1.0  0.04821  0.11891  0.63435  1.0000
  O   O4        1.0  0.95179  0.88108  0.36565  1.0000
