data_image0
_chemical_formula_structural       Cd4H48C56S16N8
_chemical_formula_sum              "Cd4 H48 C56 S16 N8"
_cell_length_a       7.30569
_cell_length_b       14.8225
_cell_length_c       17.262
_cell_angle_alpha    90.9599
_cell_angle_beta     90
_cell_angle_gamma    90

_space_group_name_H-M_alt    "P 1"
_space_group_IT_number       1

loop_
  _space_group_symop_operation_xyz
  'x, y, z'

loop_
  _atom_site_type_symbol
  _atom_site_label
  _atom_site_symmetry_multiplicity
  _atom_site_fract_x
  _atom_site_fract_y
  _atom_site_fract_z
  _atom_site_occupancy
  Cd  Cd1       1.0  0.75352  0.52960  0.53175  1.0000
  Cd  Cd2       1.0  0.25350  0.97040  0.96824  1.0000
  Cd  Cd3       1.0  0.24649  0.47040  0.46824  1.0000
  Cd  Cd4       1.0  0.74648  0.02960  0.03176  1.0000
  H   H1        1.0  0.15290  0.59640  0.65155  1.0000
  H   H2        1.0  0.65289  0.90359  0.84845  1.0000
  H   H3        1.0  0.84711  0.40359  0.34845  1.0000
  H   H4        1.0  0.34710  0.09641  0.15155  1.0000
  H   H5        1.0  0.09499  0.27198  0.63341  1.0000
  H   H6        1.0  0.59499  0.22802  0.86658  1.0000
  H   H7        1.0  0.90501  0.72802  0.36658  1.0000
  H   H8        1.0  0.40500  0.77198  0.13342  1.0000
  H   H9        1.0  0.90600  0.68590  0.65919  1.0000
  H   H10       1.0  0.40598  0.81410  0.84080  1.0000
  H   H11       1.0  0.09402  0.31408  0.34080  1.0000
  H   H12       1.0  0.59401  0.18591  0.15919  1.0000
  H   H13       1.0  0.77385  0.83580  0.68613  1.0000
  H   H14       1.0  0.27384  0.66419  0.81387  1.0000
  H   H15       1.0  0.22615  0.16417  0.31389  1.0000
  H   H16       1.0  0.72615  0.33581  0.18612  1.0000
  H   H17       1.0  0.97831  0.97169  0.69632  1.0000
  H   H18       1.0  0.47830  0.52830  0.80368  1.0000
  H   H19       1.0  0.02167  0.02829  0.30370  1.0000
  H   H20       1.0  0.52170  0.47170  0.19632  1.0000
  H   H21       1.0  0.31303  0.95358  0.67681  1.0000
  H   H22       1.0  0.81302  0.54641  0.82320  1.0000
  H   H23       1.0  0.68695  0.04641  0.32320  1.0000
  H   H24       1.0  0.18698  0.45360  0.17681  1.0000
  H   H25       1.0  0.44620  0.80278  0.64957  1.0000
  H   H26       1.0  0.94618  0.69721  0.85045  1.0000
  H   H27       1.0  0.55380  0.19722  0.35044  1.0000
  H   H28       1.0  0.05380  0.30279  0.14957  1.0000
  H   H29       1.0  0.02114  0.18777  0.75037  1.0000
  H   H30       1.0  0.52113  0.31224  0.74964  1.0000
  H   H31       1.0  0.97886  0.81223  0.24963  1.0000
  H   H32       1.0  0.47886  0.68777  0.25037  1.0000
  H   H33       1.0  0.08556  0.17579  0.89132  1.0000
  H   H34       1.0  0.58556  0.32422  0.60869  1.0000
  H   H35       1.0  0.91443  0.82421  0.10868  1.0000
  H   H36       1.0  0.41445  0.67579  0.39132  1.0000
  H   H37       1.0  0.21167  0.30671  0.96519  1.0000
  H   H38       1.0  0.71168  0.19330  0.53480  1.0000
  H   H39       1.0  0.78832  0.69329  0.03480  1.0000
  H   H40       1.0  0.28835  0.80671  0.46520  1.0000
  H   H41       1.0  0.28220  0.44979  0.89652  1.0000
  H   H42       1.0  0.78219  0.05022  0.60347  1.0000
  H   H43       1.0  0.71782  0.55021  0.10347  1.0000
  H   H44       1.0  0.21782  0.94979  0.39653  1.0000
  H   H45       1.0  0.22060  0.46113  0.75483  1.0000
  H   H46       1.0  0.72058  0.03887  0.74516  1.0000
  H   H47       1.0  0.77943  0.53886  0.24516  1.0000
  H   H48       1.0  0.27942  0.96114  0.25483  1.0000
  C   C1        1.0  0.40329  0.61262  0.60716  1.0000
  C   C2        1.0  0.90327  0.88737  0.89284  1.0000
  C   C3        1.0  0.59672  0.38737  0.39284  1.0000
  C   C4        1.0  0.09672  0.11264  0.10716  1.0000
  C   C5        1.0  0.18491  0.73448  0.65198  1.0000
  C   C6        1.0  0.68489  0.76551  0.84803  1.0000
  C   C7        1.0  0.81509  0.26550  0.34802  1.0000
  C   C8        1.0  0.31509  0.23450  0.15198  1.0000
  C   C9        1.0  0.99547  0.74468  0.66295  1.0000
  C   C10       1.0  0.49546  0.75531  0.83705  1.0000
  C   C11       1.0  0.00453  0.25530  0.33706  1.0000
  C   C12       1.0  0.50453  0.24470  0.16295  1.0000
  C   C13       1.0  0.92129  0.82959  0.67807  1.0000
  C   C14       1.0  0.42128  0.67040  0.82193  1.0000
  C   C15       1.0  0.07870  0.17038  0.32194  1.0000
  C   C16       1.0  0.57871  0.32961  0.17806  1.0000
  C   C17       1.0  0.03486  0.90528  0.68297  1.0000
  C   C18       1.0  0.53485  0.59471  0.81704  1.0000
  C   C19       1.0  0.96513  0.09470  0.31705  1.0000
  C   C20       1.0  0.46515  0.40529  0.18297  1.0000
  C   C21       1.0  0.22312  0.89507  0.67205  1.0000
  C   C22       1.0  0.72311  0.60492  0.82795  1.0000
  C   C23       1.0  0.77686  0.10492  0.32796  1.0000
  C   C24       1.0  0.27689  0.39508  0.17205  1.0000
  C   C25       1.0  0.29929  0.81033  0.65686  1.0000
  C   C26       1.0  0.79927  0.68966  0.84316  1.0000
  C   C27       1.0  0.70071  0.18965  0.34315  1.0000
  C   C28       1.0  0.20072  0.31035  0.15685  1.0000
  C   C29       1.0  0.99163  0.39632  0.62479  1.0000
  C   C30       1.0  0.49163  0.10368  0.87520  1.0000
  C   C31       1.0  0.00837  0.60368  0.37520  1.0000
  C   C32       1.0  0.50837  0.89632  0.12479  1.0000
  C   C33       1.0  0.11265  0.32632  0.74489  1.0000
  C   C34       1.0  0.61263  0.17368  0.75511  1.0000
  C   C35       1.0  0.88736  0.67368  0.25511  1.0000
  C   C36       1.0  0.38736  0.82632  0.24489  1.0000
  C   C37       1.0  0.07803  0.24513  0.78267  1.0000
  C   C38       1.0  0.57802  0.25487  0.71733  1.0000
  C   C39       1.0  0.92197  0.75487  0.21732  1.0000
  C   C40       1.0  0.42198  0.74513  0.28267  1.0000
  C   C41       1.0  0.11337  0.23872  0.86174  1.0000
  C   C42       1.0  0.61335  0.26129  0.63826  1.0000
  C   C43       1.0  0.88663  0.76128  0.13825  1.0000
  C   C44       1.0  0.38665  0.73872  0.36174  1.0000
  C   C45       1.0  0.18482  0.31242  0.90331  1.0000
  C   C46       1.0  0.68481  0.18759  0.59668  1.0000
  C   C47       1.0  0.81518  0.68758  0.09668  1.0000
  C   C48       1.0  0.31520  0.81242  0.40332  1.0000
  C   C49       1.0  0.22299  0.39251  0.86486  1.0000
  C   C50       1.0  0.72297  0.10750  0.63513  1.0000
  C   C51       1.0  0.77703  0.60749  0.13513  1.0000
  C   C52       1.0  0.27703  0.89251  0.36487  1.0000
  C   C53       1.0  0.18753  0.39988  0.78571  1.0000
  C   C54       1.0  0.68751  0.10012  0.71428  1.0000
  C   C55       1.0  0.81249  0.60011  0.21428  1.0000
  C   C56       1.0  0.31249  0.89989  0.28572  1.0000
  S   S1        1.0  0.41690  0.49511  0.60362  1.0000
  S   S2        1.0  0.91689  0.00488  0.89637  1.0000
  S   S3        1.0  0.58311  0.50488  0.39637  1.0000
  S   S4        1.0  0.08310  0.99512  0.10363  1.0000
  S   S5        1.0  0.57261  0.67722  0.57033  1.0000
  S   S6        1.0  0.07259  0.82278  0.92968  1.0000
  S   S7        1.0  0.42740  0.32278  0.42967  1.0000
  S   S8        1.0  0.92741  0.17723  0.07031  1.0000
  S   S9        1.0  0.91358  0.49268  0.66813  1.0000
  S   S10       1.0  0.41359  0.00732  0.83187  1.0000
  S   S11       1.0  0.08642  0.50732  0.33187  1.0000
  S   S12       1.0  0.58642  0.99268  0.16813  1.0000
  S   S13       1.0  0.95626  0.37412  0.52708  1.0000
  S   S14       1.0  0.45626  0.12588  0.97292  1.0000
  S   S15       1.0  0.04374  0.62589  0.47292  1.0000
  S   S16       1.0  0.54373  0.87412  0.02708  1.0000
  N   N1        1.0  0.24791  0.64558  0.63899  1.0000
  N   N2        1.0  0.74789  0.85442  0.86102  1.0000
  N   N3        1.0  0.75210  0.35441  0.36101  1.0000
  N   N4        1.0  0.25209  0.14559  0.13899  1.0000
  N   N5        1.0  0.07480  0.33021  0.66444  1.0000
  N   N6        1.0  0.57479  0.16979  0.83556  1.0000
  N   N7        1.0  0.92521  0.66979  0.33556  1.0000
  N   N8        1.0  0.42521  0.83021  0.16444  1.0000
