data_image0
_chemical_formula_structural       FeH8PtC12N8
_chemical_formula_sum              "Fe1 H8 Pt1 C12 N8"
_cell_length_a       7.23563
_cell_length_b       7.30682
_cell_length_c       6.97781
_cell_angle_alpha    90.0004
_cell_angle_beta     90.0001
_cell_angle_gamma    97.7915

_space_group_name_H-M_alt    "P 1"
_space_group_IT_number       1

loop_
  _space_group_symop_operation_xyz
  'x, y, z'

loop_
  _atom_site_type_symbol
  _atom_site_label
  _atom_site_symmetry_multiplicity
  _atom_site_fract_x
  _atom_site_fract_y
  _atom_site_fract_z
  _atom_site_occupancy
  Fe  Fe1       1.0  0.47757  0.99903  0.50000  1.0000
  H   H1        1.0  0.83995  0.01007  0.79669  1.0000
  H   H2        1.0  0.18669  0.98770  0.79780  1.0000
  H   H3        1.0  0.18670  0.98772  0.20220  1.0000
  H   H4        1.0  0.83995  0.01007  0.20330  1.0000
  H   H5        1.0  0.84740  0.57323  0.79703  1.0000
  H   H6        1.0  0.14485  0.42685  0.79697  1.0000
  H   H7        1.0  0.14484  0.42685  0.20301  1.0000
  H   H8        1.0  0.84740  0.57324  0.20297  1.0000
  Pt  Pt1       1.0  0.49740  0.50147  0.00001  1.0000
  C   C1        1.0  0.91869  0.00619  0.66387  1.0000
  C   C2        1.0  0.10832  0.99288  0.66546  1.0000
  C   C3        1.0  0.10831  0.99289  0.33454  1.0000
  C   C4        1.0  0.91869  0.00620  0.33613  1.0000
  C   C5        1.0  0.48470  0.69464  0.80394  1.0000
  C   C6        1.0  0.50333  0.30693  0.80397  1.0000
  C   C7        1.0  0.50335  0.30694  0.19603  1.0000
  C   C8        1.0  0.48470  0.69465  0.19606  1.0000
  C   C9        1.0  0.91452  0.54116  0.66277  1.0000
  C   C10       1.0  0.07766  0.45886  0.66275  1.0000
  C   C11       1.0  0.07765  0.45887  0.33725  1.0000
  C   C12       1.0  0.91452  0.54116  0.33723  1.0000
  N   N1        1.0  0.82422  0.01422  0.50000  1.0000
  N   N2        1.0  0.20611  0.98925  0.50000  1.0000
  N   N3        1.0  0.47532  0.81308  0.69278  1.0000
  N   N4        1.0  0.50002  0.18666  0.69264  1.0000
  N   N5        1.0  0.50004  0.18666  0.30737  1.0000
  N   N6        1.0  0.47532  0.81309  0.30722  1.0000
  N   N7        1.0  0.83161  0.58234  0.50000  1.0000
  N   N8        1.0  0.16015  0.41710  0.50000  1.0000
