data_image0
_chemical_formula_structural       FeH8PdC12N8
_chemical_formula_sum              "Fe1 H8 Pd1 C12 N8"
_cell_length_a       7.23258
_cell_length_b       7.27575
_cell_length_c       7.02096
_cell_angle_alpha    89.9999
_cell_angle_beta     90.0013
_cell_angle_gamma    97.4935

_space_group_name_H-M_alt    "P 1"
_space_group_IT_number       1

loop_
  _space_group_symop_operation_xyz
  'x, y, z'

loop_
  _atom_site_type_symbol
  _atom_site_label
  _atom_site_symmetry_multiplicity
  _atom_site_fract_x
  _atom_site_fract_y
  _atom_site_fract_z
  _atom_site_occupancy
  Fe  Fe1       1.0  0.52297  0.00157  0.50000  1.0000
  H   H1        1.0  0.81387  0.01144  0.79602  1.0000
  H   H2        1.0  0.16032  0.98974  0.79498  1.0000
  H   H3        1.0  0.16031  0.98974  0.20503  1.0000
  H   H4        1.0  0.81385  0.01145  0.20399  1.0000
  H   H5        1.0  0.85442  0.57352  0.79494  1.0000
  H   H6        1.0  0.15236  0.42580  0.79499  1.0000
  H   H7        1.0  0.15235  0.42580  0.20498  1.0000
  H   H8        1.0  0.85441  0.57352  0.20503  1.0000
  Pd  Pd1       1.0  0.50207  0.49916  0.00000  1.0000
  C   C1        1.0  0.89208  0.00663  0.66433  1.0000
  C   C2        1.0  0.08189  0.99365  0.66280  1.0000
  C   C3        1.0  0.08188  0.99365  0.33722  1.0000
  C   C4        1.0  0.89207  0.00663  0.33569  1.0000
  C   C5        1.0  0.49589  0.69407  0.80435  1.0000
  C   C6        1.0  0.51550  0.30560  0.80429  1.0000
  C   C7        1.0  0.51551  0.30561  0.19573  1.0000
  C   C8        1.0  0.49588  0.69408  0.19566  1.0000
  C   C9        1.0  0.92162  0.54101  0.66169  1.0000
  C   C10       1.0  0.08525  0.45838  0.66168  1.0000
  C   C11       1.0  0.08525  0.45838  0.33830  1.0000
  C   C12       1.0  0.92162  0.54101  0.33828  1.0000
  N   N1        1.0  0.79418  0.01047  0.50001  1.0000
  N   N2        1.0  0.17655  0.98599  0.50001  1.0000
  N   N3        1.0  0.50048  0.81352  0.69212  1.0000
  N   N4        1.0  0.52480  0.18801  0.69223  1.0000
  N   N5        1.0  0.52480  0.18801  0.30778  1.0000
  N   N6        1.0  0.50047  0.81352  0.30788  1.0000
  N   N7        1.0  0.83901  0.58302  0.49999  1.0000
  N   N8        1.0  0.16833  0.41702  0.49999  1.0000
