data_image0
_chemical_formula_structural       Mo4P4H24C16O24
_chemical_formula_sum              "Mo4 P4 H24 C16 O24"
_cell_length_a       9.31672
_cell_length_b       10.4776
_cell_length_c       11.9719
_cell_angle_alpha    115.966
_cell_angle_beta     111.005
_cell_angle_gamma    90.0356

_space_group_name_H-M_alt    "P 1"
_space_group_IT_number       1

loop_
  _space_group_symop_operation_xyz
  'x, y, z'

loop_
  _atom_site_type_symbol
  _atom_site_label
  _atom_site_symmetry_multiplicity
  _atom_site_fract_x
  _atom_site_fract_y
  _atom_site_fract_z
  _atom_site_occupancy
  Mo  Mo1       1.0  0.76830  0.12317  0.52798  1.0000
  Mo  Mo2       1.0  0.73171  0.59522  0.47227  1.0000
  Mo  Mo3       1.0  0.23168  0.87682  0.47202  1.0000
  Mo  Mo4       1.0  0.26829  0.40477  0.52772  1.0000
  P   P1        1.0  0.53106  0.28481  0.37005  1.0000
  P   P2        1.0  0.96910  0.91516  0.63016  1.0000
  P   P3        1.0  0.46895  0.71521  0.62998  1.0000
  P   P4        1.0  0.03090  0.08482  0.36983  1.0000
  H   H1        1.0  0.34527  0.06943  0.24041  1.0000
  H   H2        1.0  0.15580  0.83053  0.76008  1.0000
  H   H3        1.0  0.65475  0.93058  0.75959  1.0000
  H   H4        1.0  0.84419  0.16947  0.23991  1.0000
  H   H5        1.0  0.28802  0.19779  0.18317  1.0000
  H   H6        1.0  0.21181  0.01640  0.81722  1.0000
  H   H7        1.0  0.71198  0.80219  0.81684  1.0000
  H   H8        1.0  0.78819  0.98360  0.18278  1.0000
  H   H9        1.0  0.43744  0.87045  0.11265  1.0000
  H   H10       1.0  0.06295  0.75808  0.88696  1.0000
  H   H11       1.0  0.56257  0.12955  0.88735  1.0000
  H   H12       1.0  0.93704  0.24188  0.11303  1.0000
  H   H13       1.0  0.53099  0.74408  0.92941  1.0000
  H   H14       1.0  0.96897  0.81400  0.06982  1.0000
  H   H15       1.0  0.46901  0.25591  0.07059  1.0000
  H   H16       1.0  0.03100  0.18596  0.93019  1.0000
  H   H17       1.0  0.86868  0.43108  0.67157  1.0000
  H   H18       1.0  0.63164  0.75955  0.32861  1.0000
  H   H19       1.0  0.13132  0.56893  0.32843  1.0000
  H   H20       1.0  0.36837  0.24047  0.67139  1.0000
  H   H21       1.0  0.01405  0.36564  0.66411  1.0000
  H   H22       1.0  0.48617  0.70087  0.33556  1.0000
  H   H23       1.0  0.98596  0.63437  0.33590  1.0000
  H   H24       1.0  0.51382  0.29914  0.66443  1.0000
  C   C1        1.0  0.38689  0.14583  0.21353  1.0000
  C   C2        1.0  0.11347  0.93344  0.78681  1.0000
  C   C3        1.0  0.61309  0.85411  0.78641  1.0000
  C   C4        1.0  0.88656  0.06658  0.21326  1.0000
  C   C5        1.0  0.44546  0.07135  0.10349  1.0000
  C   C6        1.0  0.05480  0.96840  0.89668  1.0000
  C   C7        1.0  0.55456  0.92865  0.89653  1.0000
  C   C8        1.0  0.94519  0.03161  0.10331  1.0000
  C   C9        1.0  0.46473  0.92749  0.06312  1.0000
  C   C10       1.0  0.03549  0.86453  0.93664  1.0000
  C   C11       1.0  0.53526  0.07253  0.93690  1.0000
  C   C12       1.0  0.96451  0.13546  0.06333  1.0000
  C   C13       1.0  0.51822  0.85661  0.96066  1.0000
  C   C14       1.0  0.98172  0.89562  0.03891  1.0000
  C   C15       1.0  0.48178  0.14340  0.03937  1.0000
  C   C16       1.0  0.01828  0.10437  0.96109  1.0000
  O   O1        1.0  0.67965  0.22053  0.41337  1.0000
  O   O2        1.0  0.82060  0.80732  0.58694  1.0000
  O   O3        1.0  0.32037  0.77946  0.58663  1.0000
  O   O4        1.0  0.17938  0.19267  0.41305  1.0000
  O   O5        1.0  0.46428  0.33928  0.47791  1.0000
  O   O6        1.0  0.03581  0.86177  0.52227  1.0000
  O   O7        1.0  0.53568  0.66073  0.52210  1.0000
  O   O8        1.0  0.96422  0.13823  0.47773  1.0000
  O   O9        1.0  0.58033  0.40659  0.34178  1.0000
  O   O10       1.0  0.91958  0.06508  0.65831  1.0000
  O   O11       1.0  0.41967  0.59342  0.65820  1.0000
  O   O12       1.0  0.08041  0.93495  0.34170  1.0000
  O   O13       1.0  0.68577  0.95095  0.39965  1.0000
  O   O14       1.0  0.81377  0.55149  0.60066  1.0000
  O   O15       1.0  0.31423  0.04905  0.60034  1.0000
  O   O16       1.0  0.18623  0.44851  0.39935  1.0000
  O   O17       1.0  0.64367  0.17311  0.60910  1.0000
  O   O18       1.0  0.85668  0.56391  0.39141  1.0000
  O   O19       1.0  0.35633  0.82689  0.39090  1.0000
  O   O20       1.0  0.14333  0.43609  0.60857  1.0000
  O   O21       1.0  0.92374  0.35566  0.68670  1.0000
  O   O22       1.0  0.57672  0.66872  0.31327  1.0000
  O   O23       1.0  0.07627  0.64436  0.31331  1.0000
  O   O24       1.0  0.42326  0.33128  0.68671  1.0000
