data_image0
_chemical_formula_structural       Cd2H44C40N4O10
_chemical_formula_sum              "Cd2 H44 C40 N4 O10"
_cell_length_a       8.67121
_cell_length_b       10.2026
_cell_length_c       10.9276
_cell_angle_alpha    81.3595
_cell_angle_beta     81.9862
_cell_angle_gamma    83.7942

_space_group_name_H-M_alt    "P 1"
_space_group_IT_number       1

loop_
  _space_group_symop_operation_xyz
  'x, y, z'

loop_
  _atom_site_type_symbol
  _atom_site_label
  _atom_site_symmetry_multiplicity
  _atom_site_fract_x
  _atom_site_fract_y
  _atom_site_fract_z
  _atom_site_occupancy
  Cd  Cd1       1.0  0.74960  0.13047  0.37967  1.0000
  Cd  Cd2       1.0  0.25041  0.86953  0.62032  1.0000
  H   H1        1.0  0.64893  0.92214  0.59997  1.0000
  H   H2        1.0  0.35107  0.07786  0.40003  1.0000
  H   H3        1.0  0.83507  0.88705  0.56064  1.0000
  H   H4        1.0  0.16493  0.11295  0.43936  1.0000
  H   H5        1.0  0.69568  0.85096  0.34207  1.0000
  H   H6        1.0  0.30431  0.14904  0.65792  1.0000
  H   H7        1.0  0.77309  0.67569  0.20506  1.0000
  H   H8        1.0  0.22691  0.32430  0.79494  1.0000
  H   H9        1.0  0.16234  0.89766  0.03288  1.0000
  H   H10       1.0  0.83766  0.10234  0.96712  1.0000
  H   H11       1.0  0.06288  0.06855  0.17534  1.0000
  H   H12       1.0  0.93712  0.93145  0.82466  1.0000
  H   H13       1.0  0.11689  0.69847  0.94529  1.0000
  H   H14       1.0  0.88312  0.30152  0.05471  1.0000
  H   H15       1.0  0.88932  0.51837  0.12150  1.0000
  H   H16       1.0  0.11068  0.48162  0.87850  1.0000
  H   H17       1.0  0.82053  0.16695  0.64293  1.0000
  H   H18       1.0  0.17948  0.83305  0.35707  1.0000
  H   H19       1.0  0.74233  0.30242  0.81573  1.0000
  H   H20       1.0  0.25767  0.69758  0.18427  1.0000
  H   H21       1.0  0.34470  0.47468  0.62991  1.0000
  H   H22       1.0  0.65530  0.52532  0.37010  1.0000
  H   H23       1.0  0.43926  0.32805  0.46429  1.0000
  H   H24       1.0  0.56073  0.67195  0.53571  1.0000
  H   H25       1.0  0.38902  0.56246  0.81674  1.0000
  H   H26       1.0  0.61098  0.43754  0.18326  1.0000
  H   H27       1.0  0.61356  0.37551  0.97651  1.0000
  H   H28       1.0  0.38644  0.62449  0.02349  1.0000
  H   H29       1.0  0.32491  0.20877  0.11152  1.0000
  H   H30       1.0  0.67509  0.79124  0.88848  1.0000
  H   H31       1.0  0.33268  0.04215  0.18521  1.0000
  H   H32       1.0  0.66732  0.95785  0.81479  1.0000
  H   H33       1.0  0.34941  0.06460  0.94929  1.0000
  H   H34       1.0  0.65059  0.93540  0.05071  1.0000
  H   H35       1.0  0.52410  0.14229  0.93609  1.0000
  H   H36       1.0  0.47590  0.85771  0.06392  1.0000
  H   H37       1.0  0.07907  0.50059  0.28107  1.0000
  H   H38       1.0  0.92092  0.49941  0.71892  1.0000
  H   H39       1.0  0.21069  0.36368  0.33252  1.0000
  H   H40       1.0  0.78932  0.63632  0.66747  1.0000
  H   H41       1.0  0.09595  0.37420  0.55364  1.0000
  H   H42       1.0  0.90405  0.62581  0.44636  1.0000
  H   H43       1.0  0.17393  0.52393  0.48216  1.0000
  H   H44       1.0  0.82608  0.47608  0.51783  1.0000
  C   C1        1.0  0.79835  0.85721  0.27220  1.0000
  C   C2        1.0  0.20164  0.14279  0.72780  1.0000
  C   C3        1.0  0.84345  0.75930  0.19640  1.0000
  C   C4        1.0  0.15655  0.24070  0.80360  1.0000
  C   C5        1.0  0.97644  0.77073  0.10676  1.0000
  C   C6        1.0  0.02356  0.22927  0.89323  1.0000
  C   C7        1.0  0.05800  0.88436  0.10034  1.0000
  C   C8        1.0  0.94200  0.11564  0.89965  1.0000
  C   C9        1.0  0.00386  0.97851  0.17967  1.0000
  C   C10       1.0  0.99614  0.02149  0.82032  1.0000
  C   C11       1.0  0.02787  0.67144  0.02375  1.0000
  C   C12       1.0  0.97213  0.32856  0.97624  1.0000
  C   C13       1.0  0.97374  0.54868  0.04080  1.0000
  C   C14       1.0  0.02626  0.45131  0.95920  1.0000
  C   C15       1.0  0.71496  0.23556  0.64449  1.0000
  C   C16       1.0  0.28504  0.76444  0.35551  1.0000
  C   C17       1.0  0.67034  0.31112  0.74056  1.0000
  C   C18       1.0  0.32965  0.68888  0.25945  1.0000
  C   C19       1.0  0.53437  0.40045  0.73874  1.0000
  C   C20       1.0  0.46563  0.59955  0.26126  1.0000
  C   C21       1.0  0.45083  0.40735  0.63587  1.0000
  C   C22       1.0  0.54917  0.59265  0.36414  1.0000
  C   C23       1.0  0.50280  0.32615  0.54412  1.0000
  C   C24       1.0  0.49720  0.67385  0.45589  1.0000
  C   C25       1.0  0.47914  0.48140  0.83712  1.0000
  C   C26       1.0  0.52086  0.51860  0.16288  1.0000
  C   C27       1.0  0.52898  0.45976  0.95205  1.0000
  C   C28       1.0  0.47102  0.54024  0.04795  1.0000
  C   C29       1.0  0.53611  0.14284  0.18846  1.0000
  C   C30       1.0  0.46389  0.85717  0.81154  1.0000
  C   C31       1.0  0.40154  0.11514  0.12251  1.0000
  C   C32       1.0  0.59846  0.88486  0.87750  1.0000
  C   C33       1.0  0.45337  0.06819  0.99553  1.0000
  C   C34       1.0  0.54662  0.93181  0.00447  1.0000
  C   C35       1.0  0.97194  0.31933  0.34974  1.0000
  C   C36       1.0  0.02806  0.68067  0.65026  1.0000
  C   C37       1.0  0.09353  0.41457  0.35331  1.0000
  C   C38       1.0  0.90647  0.58543  0.64668  1.0000
  C   C39       1.0  0.07846  0.46116  0.48235  1.0000
  C   C40       1.0  0.92155  0.53885  0.51764  1.0000
  N   N1        1.0  0.87614  0.96624  0.26415  1.0000
  N   N2        1.0  0.12386  0.03375  0.73585  1.0000
  N   N3        1.0  0.63291  0.24213  0.54704  1.0000
  N   N4        1.0  0.36710  0.75786  0.45296  1.0000
  O   O1        1.0  0.51426  0.12337  0.30983  1.0000
  O   O2        1.0  0.48574  0.87663  0.69017  1.0000
  O   O3        1.0  0.65937  0.18284  0.12737  1.0000
  O   O4        1.0  0.34063  0.81717  0.87264  1.0000
  O   O5        1.0  0.84756  0.36011  0.30191  1.0000
  O   O6        1.0  0.15244  0.63989  0.69809  1.0000
  O   O7        1.0  0.99656  0.19811  0.40166  1.0000
  O   O8        1.0  0.00345  0.80189  0.59835  1.0000
  O   O9        1.0  0.74075  0.94528  0.53744  1.0000
  O   O10       1.0  0.25925  0.05472  0.46256  1.0000
