data_image0
_chemical_formula_structural       FeH20PtC32N8O2
_chemical_formula_sum              "Fe1 H20 Pt1 C32 N8 O2"
_cell_length_a       7.50769
_cell_length_b       8.69898
_cell_length_c       11.9873
_cell_angle_alpha    105.92
_cell_angle_beta     100.287
_cell_angle_gamma    103.904

_space_group_name_H-M_alt    "P 1"
_space_group_IT_number       1

loop_
  _space_group_symop_operation_xyz
  'x, y, z'

loop_
  _atom_site_type_symbol
  _atom_site_label
  _atom_site_symmetry_multiplicity
  _atom_site_fract_x
  _atom_site_fract_y
  _atom_site_fract_z
  _atom_site_occupancy
  Fe  Fe1       1.0  0.50000  0.50000  1.00000  1.0000
  H   H1        1.0  0.86765  0.53038  0.93142  1.0000
  H   H2        1.0  0.13235  0.46962  0.06858  1.0000
  H   H3        1.0  0.02885  0.35157  0.81753  1.0000
  H   H4        1.0  0.97115  0.64843  0.18246  1.0000
  H   H5        1.0  0.53158  0.92785  0.74788  1.0000
  H   H6        1.0  0.46842  0.07215  0.25213  1.0000
  H   H7        1.0  0.38862  0.12457  0.85916  1.0000
  H   H8        1.0  0.61138  0.87543  0.14084  1.0000
  H   H9        1.0  0.52989  0.90039  0.54052  1.0000
  H   H10       1.0  0.47012  0.09961  0.45948  1.0000
  H   H11       1.0  0.70907  0.75259  0.41556  1.0000
  H   H12       1.0  0.29092  0.24739  0.58443  1.0000
  H   H13       1.0  0.24676  0.32180  0.26146  1.0000
  H   H14       1.0  0.75323  0.67820  0.73853  1.0000
  H   H15       1.0  0.04488  0.45031  0.37614  1.0000
  H   H16       1.0  0.95511  0.54969  0.62386  1.0000
  H   H17       1.0  0.28333  0.59642  0.84905  1.0000
  H   H18       1.0  0.71667  0.40359  0.15095  1.0000
  H   H19       1.0  0.40042  0.49546  0.77599  1.0000
  H   H20       1.0  0.59957  0.50454  0.22401  1.0000
  Pt  Pt1       1.0  1.00000  0.00001  1.00000  1.0000
  C   C1        1.0  0.79689  0.39662  0.88909  1.0000
  C   C2        1.0  0.20311  0.60338  0.11091  1.0000
  C   C3        1.0  0.88655  0.29628  0.82471  1.0000
  C   C4        1.0  0.11345  0.70372  0.17529  1.0000
  C   C5        1.0  0.79390  0.12256  0.77015  1.0000
  C   C6        1.0  0.20610  0.87744  0.22985  1.0000
  C   C7        1.0  0.61091  0.06099  0.78473  1.0000
  C   C8        1.0  0.38909  0.93901  0.21527  1.0000
  C   C9        1.0  0.53003  0.17134  0.84870  1.0000
  C   C10       1.0  0.46997  0.82867  0.15131  1.0000
  C   C11       1.0  0.88572  0.02050  0.70471  1.0000
  C   C12       1.0  0.11428  0.97949  0.29529  1.0000
  C   C13       1.0  0.97535  0.94156  0.64842  1.0000
  C   C14       1.0  0.02464  0.05843  0.35159  1.0000
  C   C15       1.0  0.07356  0.85425  0.58761  1.0000
  C   C16       1.0  0.92644  0.14575  0.41239  1.0000
  C   C17       1.0  0.16233  0.77336  0.53212  1.0000
  C   C18       1.0  0.83768  0.22664  0.46789  1.0000
  C   C19       1.0  0.27058  0.68829  0.46873  1.0000
  C   C20       1.0  0.72942  0.31170  0.53127  1.0000
  C   C21       1.0  0.46232  0.77198  0.48005  1.0000
  C   C22       1.0  0.53768  0.22802  0.51995  1.0000
  C   C23       1.0  0.56215  0.68928  0.41083  1.0000
  C   C24       1.0  0.43784  0.31072  0.58917  1.0000
  C   C25       1.0  0.30528  0.44929  0.32534  1.0000
  C   C26       1.0  0.69472  0.55071  0.67466  1.0000
  C   C27       1.0  0.19241  0.52110  0.39002  1.0000
  C   C28       1.0  0.80759  0.47890  0.60998  1.0000
  C   C29       1.0  0.20352  0.19684  0.00765  1.0000
  C   C30       1.0  0.79647  0.80318  0.99235  1.0000
  C   C31       1.0  0.87555  0.15047  0.08957  1.0000
  C   C32       1.0  0.12446  0.84954  0.91043  1.0000
  N   N1        1.0  0.61972  0.33865  0.90197  1.0000
  N   N2        1.0  0.38028  0.66136  0.09804  1.0000
  N   N3        1.0  0.31868  0.31444  0.00674  1.0000
  N   N4        1.0  0.68133  0.68557  0.99326  1.0000
  N   N5        1.0  0.80267  0.24090  0.14220  1.0000
  N   N6        1.0  0.19733  0.75911  0.85780  1.0000
  N   N7        1.0  0.48599  0.53138  0.33347  1.0000
  N   N8        1.0  0.51401  0.46861  0.66652  1.0000
  O   O1        1.0  0.32210  0.49088  0.83671  1.0000
  O   O2        1.0  0.67791  0.50913  0.16329  1.0000
