data_image0
_chemical_formula_structural       U2Cu2H30C36S4N4O28
_chemical_formula_sum              "U2 Cu2 H30 C36 S4 N4 O28"
_cell_length_a       9.08059
_cell_length_b       11.2494
_cell_length_c       13.3583
_cell_angle_alpha    72.873
_cell_angle_beta     78.8718
_cell_angle_gamma    67.3293

_space_group_name_H-M_alt    "P 1"
_space_group_IT_number       1

loop_
  _space_group_symop_operation_xyz
  'x, y, z'

loop_
  _atom_site_type_symbol
  _atom_site_label
  _atom_site_symmetry_multiplicity
  _atom_site_fract_x
  _atom_site_fract_y
  _atom_site_fract_z
  _atom_site_occupancy
  U   U1        1.0  0.37644  0.65211  0.69005  1.0000
  U   U2        1.0  0.62357  0.34788  0.30993  1.0000
  Cu  Cu1       1.0  0.81268  0.85881  0.61201  1.0000
  Cu  Cu2       1.0  0.18729  0.14122  0.38798  1.0000
  H   H1        1.0  0.74069  0.58497  0.66151  1.0000
  H   H2        1.0  0.25934  0.41502  0.33848  1.0000
  H   H3        1.0  0.69722  0.55949  0.56312  1.0000
  H   H4        1.0  0.30280  0.44053  0.43687  1.0000
  H   H5        1.0  0.69794  0.91374  0.41644  1.0000
  H   H6        1.0  0.30206  0.08618  0.58356  1.0000
  H   H7        1.0  0.56570  0.87995  0.50516  1.0000
  H   H8        1.0  0.43421  0.12009  0.49484  1.0000
  H   H9        1.0  0.09436  0.90469  0.00376  1.0000
  H   H10       1.0  0.90557  0.09535  0.99627  1.0000
  H   H11       1.0  0.26093  0.79155  0.15175  1.0000
  H   H12       1.0  0.73904  0.20848  0.84826  1.0000
  H   H13       1.0  0.56039  0.70509  0.11811  1.0000
  H   H14       1.0  0.43956  0.29492  0.88190  1.0000
  H   H15       1.0  0.68546  0.74684  0.93429  1.0000
  H   H16       1.0  0.31449  0.25317  0.06572  1.0000
  H   H17       1.0  0.31164  0.15095  0.83723  1.0000
  H   H18       1.0  0.68837  0.84902  0.16277  1.0000
  H   H19       1.0  0.13267  0.13841  0.00475  1.0000
  H   H20       1.0  0.86730  0.86159  0.99525  1.0000
  H   H21       1.0  0.88767  0.33394  0.02679  1.0000
  H   H22       1.0  0.11232  0.66608  0.97320  1.0000
  H   H23       1.0  0.82604  0.54047  0.88378  1.0000
  H   H24       1.0  0.17399  0.45955  0.11620  1.0000
  H   H25       1.0  0.02818  0.66528  0.46419  1.0000
  H   H26       1.0  0.97190  0.33471  0.53579  1.0000
  H   H27       1.0  0.25237  0.68418  0.32248  1.0000
  H   H28       1.0  0.74773  0.31585  0.67751  1.0000
  H   H29       1.0  0.32313  0.89433  0.28039  1.0000
  H   H30       1.0  0.67692  0.10571  0.71962  1.0000
  C   C1        1.0  0.54633  0.84137  0.75721  1.0000
  C   C2        1.0  0.45357  0.15865  0.24282  1.0000
  C   C3        1.0  0.46113  0.83637  0.86493  1.0000
  C   C4        1.0  0.53883  0.16362  0.13507  1.0000
  C   C5        1.0  0.29294  0.87934  0.88515  1.0000
  C   C6        1.0  0.70702  0.12067  0.11487  1.0000
  C   C7        1.0  0.22371  0.86642  0.98846  1.0000
  C   C8        1.0  0.77625  0.13360  0.01156  1.0000
  C   C9        1.0  0.31935  0.80326  0.07225  1.0000
  C   C10       1.0  0.68061  0.19675  0.92778  1.0000
  C   C11       1.0  0.48536  0.75716  0.05317  1.0000
  C   C12       1.0  0.51460  0.24284  0.94685  1.0000
  C   C13       1.0  0.55556  0.77800  0.95002  1.0000
  C   C14       1.0  0.44439  0.22200  0.04999  1.0000
  C   C15       1.0  0.00824  0.59828  0.70915  1.0000
  C   C16       1.0  0.99180  0.40170  0.29086  1.0000
  C   C17       1.0  0.03919  0.46516  0.78396  1.0000
  C   C18       1.0  0.96085  0.53487  0.21602  1.0000
  C   C19       1.0  0.17667  0.35477  0.77150  1.0000
  C   C20       1.0  0.82335  0.64524  0.22850  1.0000
  C   C21       1.0  0.20777  0.23671  0.84992  1.0000
  C   C22       1.0  0.79223  0.76328  0.15008  1.0000
  C   C23       1.0  0.10601  0.22992  0.94266  1.0000
  C   C24       1.0  0.89397  0.77008  0.05734  1.0000
  C   C25       1.0  0.96889  0.33903  0.95527  1.0000
  C   C26       1.0  0.03111  0.66098  0.04472  1.0000
  C   C27       1.0  0.93388  0.45529  0.87513  1.0000
  C   C28       1.0  0.06615  0.54473  0.12485  1.0000
  C   C29       1.0  0.04019  0.94937  0.47059  1.0000
  C   C30       1.0  0.95985  0.05063  0.52942  1.0000
  C   C31       1.0  0.06724  0.75048  0.44209  1.0000
  C   C32       1.0  0.93282  0.24950  0.55791  1.0000
  C   C33       1.0  0.18897  0.76300  0.36321  1.0000
  C   C34       1.0  0.81110  0.23701  0.63679  1.0000
  C   C35       1.0  0.22955  0.87652  0.34060  1.0000
  C   C36       1.0  0.77049  0.12350  0.65942  1.0000
  S   S1        1.0  0.15918  0.95448  0.78346  1.0000
  S   S2        1.0  0.84078  0.04553  0.21654  1.0000
  S   S3        1.0  0.31604  0.36023  0.65667  1.0000
  S   S4        1.0  0.68398  0.63976  0.34332  1.0000
  N   N1        1.0  0.99357  0.84496  0.49578  1.0000
  N   N2        1.0  0.00647  0.15501  0.50423  1.0000
  N   N3        1.0  0.15406  0.96922  0.39525  1.0000
  N   N4        1.0  0.84596  0.03079  0.60477  1.0000
  O   O1        1.0  0.39548  0.57877  0.82875  1.0000
  O   O2        1.0  0.60453  0.42120  0.17125  1.0000
  O   O3        1.0  0.36501  0.72645  0.55103  1.0000
  O   O4        1.0  0.63501  0.27357  0.44894  1.0000
  O   O5        1.0  0.50802  0.79699  0.69254  1.0000
  O   O6        1.0  0.49194  0.20300  0.30748  1.0000
  O   O7        1.0  0.66148  0.88560  0.73694  1.0000
  O   O8        1.0  0.33842  0.11445  0.26307  1.0000
  O   O9        1.0  0.18097  0.84618  0.73169  1.0000
  O   O10       1.0  0.81902  0.15381  0.26831  1.0000
  O   O11       1.0  0.99808  0.99824  0.83455  1.0000
  O   O12       1.0  0.00188  0.00176  0.16544  1.0000
  O   O13       1.0  0.20936  0.05964  0.70961  1.0000
  O   O14       1.0  0.79063  0.94036  0.29041  1.0000
  O   O15       1.0  0.11406  0.65105  0.68991  1.0000
  O   O16       1.0  0.88596  0.34894  0.31006  1.0000
  O   O17       1.0  0.87089  0.65796  0.67233  1.0000
  O   O18       1.0  0.12913  0.34203  0.32768  1.0000
  O   O19       1.0  0.40818  0.43998  0.67028  1.0000
  O   O20       1.0  0.59185  0.56001  0.32968  1.0000
  O   O21       1.0  0.42035  0.22498  0.65814  1.0000
  O   O22       1.0  0.57967  0.77500  0.34184  1.0000
  O   O23       1.0  0.21957  0.43073  0.56617  1.0000
  O   O24       1.0  0.78043  0.56925  0.43382  1.0000
  O   O25       1.0  0.66871  0.55002  0.64041  1.0000
  O   O26       1.0  0.33131  0.44998  0.35958  1.0000
  O   O27       1.0  0.65951  0.90605  0.49185  1.0000
  O   O28       1.0  0.34056  0.09377  0.50816  1.0000
