data_image0
_chemical_formula_structural       U4H32C36S4N4O32
_chemical_formula_sum              "U4 H32 C36 S4 N4 O32"
_cell_length_a       7.85506
_cell_length_b       12.0246
_cell_length_c       13.3182
_cell_angle_alpha    90
_cell_angle_beta     94.593
_cell_angle_gamma    90

_space_group_name_H-M_alt    "P 1"
_space_group_IT_number       1

loop_
  _space_group_symop_operation_xyz
  'x, y, z'

loop_
  _atom_site_type_symbol
  _atom_site_label
  _atom_site_symmetry_multiplicity
  _atom_site_fract_x
  _atom_site_fract_y
  _atom_site_fract_z
  _atom_site_occupancy
  U   U1        1.0  0.99364  0.28829  0.60341  1.0000
  U   U2        1.0  0.00636  0.78829  0.89659  1.0000
  U   U3        1.0  0.00637  0.71171  0.39659  1.0000
  U   U4        1.0  0.99363  0.21171  0.10341  1.0000
  H   H1        1.0  0.02179  0.04566  0.66504  1.0000
  H   H2        1.0  0.97821  0.54566  0.83496  1.0000
  H   H3        1.0  0.97821  0.95434  0.33496  1.0000
  H   H4        1.0  0.02179  0.45434  0.16504  1.0000
  H   H5        1.0  0.82042  0.06967  0.62263  1.0000
  H   H6        1.0  0.17958  0.56967  0.87737  1.0000
  H   H7        1.0  0.17958  0.93033  0.37737  1.0000
  H   H8        1.0  0.82042  0.43033  0.12263  1.0000
  H   H9        1.0  0.52375  0.13685  0.31896  1.0000
  H   H10       1.0  0.47625  0.63685  0.18104  1.0000
  H   H11       1.0  0.47625  0.86315  0.68104  1.0000
  H   H12       1.0  0.52375  0.36315  0.81896  1.0000
  H   H13       1.0  0.27433  0.26385  0.32528  1.0000
  H   H14       1.0  0.72567  0.76385  0.17472  1.0000
  H   H15       1.0  0.72567  0.73615  0.67472  1.0000
  H   H16       1.0  0.27433  0.23615  0.82528  1.0000
  H   H17       1.0  0.32163  0.46784  0.35017  1.0000
  H   H18       1.0  0.67837  0.96785  0.14983  1.0000
  H   H19       1.0  0.67837  0.53216  0.64983  1.0000
  H   H20       1.0  0.32163  0.03215  0.85017  1.0000
  H   H21       1.0  0.61771  0.54200  0.37051  1.0000
  H   H22       1.0  0.38229  0.04200  0.12949  1.0000
  H   H23       1.0  0.38229  0.45800  0.62949  1.0000
  H   H24       1.0  0.61771  0.95800  0.87051  1.0000
  H   H25       1.0  0.49297  0.34089  0.11286  1.0000
  H   H26       1.0  0.50702  0.84088  0.38714  1.0000
  H   H27       1.0  0.50702  0.65912  0.88714  1.0000
  H   H28       1.0  0.49297  0.15911  0.61286  1.0000
  H   H29       1.0  0.76546  0.60286  0.99972  1.0000
  H   H30       1.0  0.23454  0.10287  0.50028  1.0000
  H   H31       1.0  0.23454  0.39714  0.00028  1.0000
  H   H32       1.0  0.76546  0.89714  0.49972  1.0000
  C   C1        1.0  0.90756  0.43452  0.38882  1.0000
  C   C2        1.0  0.09244  0.93452  0.11118  1.0000
  C   C3        1.0  0.09245  0.56548  0.61118  1.0000
  C   C4        1.0  0.90755  0.06548  0.88882  1.0000
  C   C5        1.0  0.73721  0.38178  0.36348  1.0000
  C   C6        1.0  0.26279  0.88178  0.13652  1.0000
  C   C7        1.0  0.26279  0.61822  0.63652  1.0000
  C   C8        1.0  0.73721  0.11822  0.86348  1.0000
  C   C9        1.0  0.70848  0.26658  0.35016  1.0000
  C   C10       1.0  0.29152  0.76658  0.14984  1.0000
  C   C11       1.0  0.29152  0.73342  0.64985  1.0000
  C   C12       1.0  0.70848  0.23342  0.85016  1.0000
  C   C13       1.0  0.54267  0.22530  0.33342  1.0000
  C   C14       1.0  0.45733  0.72530  0.16658  1.0000
  C   C15       1.0  0.45733  0.77470  0.66658  1.0000
  C   C16       1.0  0.54267  0.27470  0.83342  1.0000
  C   C17       1.0  0.40330  0.29724  0.33527  1.0000
  C   C18       1.0  0.59671  0.79724  0.16473  1.0000
  C   C19       1.0  0.59671  0.70276  0.66473  1.0000
  C   C20       1.0  0.40329  0.20276  0.83527  1.0000
  C   C21       1.0  0.42958  0.41108  0.34912  1.0000
  C   C22       1.0  0.57042  0.91108  0.15088  1.0000
  C   C23       1.0  0.57042  0.58892  0.65088  1.0000
  C   C24       1.0  0.42958  0.08892  0.84912  1.0000
  C   C25       1.0  0.59556  0.45300  0.36059  1.0000
  C   C26       1.0  0.40444  0.95300  0.13941  1.0000
  C   C27       1.0  0.40444  0.54700  0.63941  1.0000
  C   C28       1.0  0.59556  0.04700  0.86059  1.0000
  C   C29       1.0  0.49676  0.41234  0.06282  1.0000
  C   C30       1.0  0.50323  0.91234  0.43718  1.0000
  C   C31       1.0  0.50323  0.58766  0.93718  1.0000
  C   C32       1.0  0.49676  0.08766  0.56282  1.0000
  C   C33       1.0  0.64644  0.55689  0.99975  1.0000
  C   C34       1.0  0.35356  0.05689  0.50025  1.0000
  C   C35       1.0  0.35356  0.44311  0.00025  1.0000
  C   C36       1.0  0.64644  0.94311  0.49975  1.0000
  S   S1        1.0  0.87800  0.16798  0.35334  1.0000
  S   S2        1.0  0.12201  0.66798  0.14666  1.0000
  S   S3        1.0  0.12201  0.83202  0.64666  1.0000
  S   S4        1.0  0.87799  0.33202  0.85334  1.0000
  N   N1        1.0  0.64314  0.46974  0.06244  1.0000
  N   N2        1.0  0.35686  0.96974  0.43756  1.0000
  N   N3        1.0  0.35686  0.53026  0.93756  1.0000
  N   N4        1.0  0.64314  0.03026  0.56244  1.0000
  O   O1        1.0  0.76637  0.31275  0.59679  1.0000
  O   O2        1.0  0.23363  0.81275  0.90321  1.0000
  O   O3        1.0  0.23363  0.68725  0.40321  1.0000
  O   O4        1.0  0.76637  0.18725  0.09679  1.0000
  O   O5        1.0  0.21918  0.25668  0.61210  1.0000
  O   O6        1.0  0.78082  0.75668  0.88790  1.0000
  O   O7        1.0  0.78082  0.74332  0.38790  1.0000
  O   O8        1.0  0.21918  0.24332  0.11210  1.0000
  O   O9        1.0  0.01558  0.38824  0.45212  1.0000
  O   O10       1.0  0.98442  0.88824  0.04788  1.0000
  O   O11       1.0  0.98443  0.61177  0.54789  1.0000
  O   O12       1.0  0.01557  0.11176  0.95212  1.0000
  O   O13       1.0  0.93491  0.52835  0.34926  1.0000
  O   O14       1.0  0.06509  0.02835  0.15073  1.0000
  O   O15       1.0  0.06509  0.47165  0.65074  1.0000
  O   O16       1.0  0.93491  0.97165  0.84926  1.0000
  O   O17       1.0  0.95833  0.16429  0.45773  1.0000
  O   O18       1.0  0.04167  0.66429  0.04227  1.0000
  O   O19       1.0  0.04167  0.83571  0.54227  1.0000
  O   O20       1.0  0.95833  0.33571  0.95773  1.0000
  O   O21       1.0  0.00461  0.21041  0.28511  1.0000
  O   O22       1.0  0.99540  0.71041  0.21489  1.0000
  O   O23       1.0  0.99539  0.78959  0.71489  1.0000
  O   O24       1.0  0.00461  0.28959  0.78511  1.0000
  O   O25       1.0  0.80770  0.06024  0.32218  1.0000
  O   O26       1.0  0.19231  0.56024  0.17782  1.0000
  O   O27       1.0  0.19230  0.93976  0.67782  1.0000
  O   O28       1.0  0.80770  0.43976  0.82218  1.0000
  O   O29       1.0  0.93338  0.10384  0.65425  1.0000
  O   O30       1.0  0.06662  0.60384  0.84575  1.0000
  O   O31       1.0  0.06662  0.89616  0.34575  1.0000
  O   O32       1.0  0.93338  0.39616  0.15425  1.0000
