data_image0
_chemical_formula_structural       Hg2H78C46N6Cl4O4
_chemical_formula_sum              "Hg2 H78 C46 N6 Cl4 O4"
_cell_length_a       9.35871
_cell_length_b       10.7863
_cell_length_c       13.477
_cell_angle_alpha    81.0905
_cell_angle_beta     88.7375
_cell_angle_gamma    88.428

_space_group_name_H-M_alt    "P 1"
_space_group_IT_number       1

loop_
  _space_group_symop_operation_xyz
  'x, y, z'

loop_
  _atom_site_type_symbol
  _atom_site_label
  _atom_site_symmetry_multiplicity
  _atom_site_fract_x
  _atom_site_fract_y
  _atom_site_fract_z
  _atom_site_occupancy
  Hg  Hg1       1.0  0.21553  0.73962  0.39564  1.0000
  Hg  Hg2       1.0  0.78447  0.26038  0.60436  1.0000
  H   H1        1.0  0.34689  0.59123  0.60883  1.0000
  H   H2        1.0  0.65311  0.40877  0.39117  1.0000
  H   H3        1.0  0.30131  0.19127  0.62339  1.0000
  H   H4        1.0  0.69868  0.80873  0.37661  1.0000
  H   H5        1.0  0.09018  0.46400  0.40213  1.0000
  H   H6        1.0  0.90982  0.53600  0.59787  1.0000
  H   H7        1.0  0.37914  0.11522  0.35708  1.0000
  H   H8        1.0  0.62086  0.88478  0.64292  1.0000
  H   H9        1.0  0.36065  0.26733  0.38985  1.0000
  H   H10       1.0  0.63935  0.73267  0.61015  1.0000
  H   H11       1.0  0.28160  0.19400  0.18811  1.0000
  H   H12       1.0  0.71840  0.80601  0.81189  1.0000
  H   H13       1.0  0.54427  0.18921  0.21964  1.0000
  H   H14       1.0  0.45573  0.81080  0.78036  1.0000
  H   H15       1.0  0.53014  0.34453  0.24809  1.0000
  H   H16       1.0  0.46987  0.65548  0.75191  1.0000
  H   H17       1.0  0.49635  0.31631  0.12455  1.0000
  H   H18       1.0  0.50365  0.68370  0.87545  1.0000
  H   H19       1.0  0.24956  0.42479  0.13046  1.0000
  H   H20       1.0  0.75044  0.57521  0.86954  1.0000
  H   H21       1.0  0.28293  0.45520  0.25316  1.0000
  H   H22       1.0  0.71707  0.54480  0.74684  1.0000
  H   H23       1.0  0.12683  0.37502  0.22960  1.0000
  H   H24       1.0  0.87317  0.62498  0.77040  1.0000
  H   H25       1.0  0.03568  0.02020  0.40098  1.0000
  H   H26       1.0  0.96432  0.97980  0.59902  1.0000
  H   H27       1.0  0.17808  0.01512  0.31275  1.0000
  H   H28       1.0  0.82192  0.98488  0.68725  1.0000
  H   H29       1.0  0.05618  0.17551  0.19084  1.0000
  H   H30       1.0  0.94382  0.82449  0.80917  1.0000
  H   H31       1.0  0.00978  0.94593  0.19550  1.0000
  H   H32       1.0  0.99022  0.05407  0.80450  1.0000
  H   H33       1.0  0.85913  0.04221  0.15285  1.0000
  H   H34       1.0  0.14087  0.95779  0.84715  1.0000
  H   H35       1.0  0.86237  0.95928  0.27773  1.0000
  H   H36       1.0  0.13764  0.04072  0.72227  1.0000
  H   H37       1.0  0.92153  0.29716  0.30959  1.0000
  H   H38       1.0  0.07848  0.70284  0.69041  1.0000
  H   H39       1.0  0.80730  0.16860  0.34405  1.0000
  H   H40       1.0  0.19270  0.83140  0.65595  1.0000
  H   H41       1.0  0.80966  0.25031  0.21837  1.0000
  H   H42       1.0  0.19034  0.74969  0.78163  1.0000
  H   H43       1.0  0.53258  0.34849  0.92635  1.0000
  H   H44       1.0  0.46742  0.65151  0.07365  1.0000
  H   H45       1.0  0.64358  0.32176  0.82337  1.0000
  H   H46       1.0  0.35642  0.67824  0.17664  1.0000
  H   H47       1.0  0.47642  0.12189  0.96305  1.0000
  H   H48       1.0  0.52358  0.87810  0.03695  1.0000
  H   H49       1.0  0.60301  0.96672  0.87166  1.0000
  H   H50       1.0  0.39699  0.03327  0.12834  1.0000
  H   H51       1.0  0.68536  0.09020  0.78946  1.0000
  H   H52       1.0  0.31464  0.90979  0.21054  1.0000
  H   H53       1.0  0.49832  0.07091  0.78556  1.0000
  H   H54       1.0  0.50167  0.92909  0.21443  1.0000
  H   H55       1.0  0.71774  0.04451  0.02062  1.0000
  H   H56       1.0  0.28225  0.95548  0.97938  1.0000
  H   H57       1.0  0.68837  0.20190  0.04148  1.0000
  H   H58       1.0  0.31162  0.79810  0.95852  1.0000
  H   H59       1.0  0.79789  0.16948  0.93851  1.0000
  H   H60       1.0  0.20211  0.83051  0.06150  1.0000
  H   H61       1.0  0.29086  0.16525  0.86249  1.0000
  H   H62       1.0  0.70913  0.83476  0.13751  1.0000
  H   H63       1.0  0.20832  0.28734  0.77927  1.0000
  H   H64       1.0  0.79168  0.71266  0.22073  1.0000
  H   H65       1.0  0.31804  0.31620  0.98642  1.0000
  H   H66       1.0  0.68196  0.68380  0.01358  1.0000
  H   H67       1.0  0.11363  0.17071  0.99886  1.0000
  H   H68       1.0  0.88637  0.82929  0.00114  1.0000
  H   H69       1.0  0.01219  0.28523  0.91882  1.0000
  H   H70       1.0  0.98781  0.71477  0.08118  1.0000
  H   H71       1.0  0.06223  0.31519  0.03916  1.0000
  H   H72       1.0  0.93777  0.68481  0.96085  1.0000
  H   H73       1.0  0.18038  0.52068  0.95912  1.0000
  H   H74       1.0  0.81962  0.47932  0.04088  1.0000
  H   H75       1.0  0.13253  0.49281  0.83771  1.0000
  H   H76       1.0  0.86747  0.50719  0.16229  1.0000
  H   H77       1.0  0.31396  0.51738  0.86392  1.0000
  H   H78       1.0  0.68604  0.48262  0.13608  1.0000
  C   C1        1.0  0.29955  0.51034  0.58368  1.0000
  C   C2        1.0  0.70045  0.48967  0.41632  1.0000
  C   C3        1.0  0.33327  0.38803  0.62969  1.0000
  C   C4        1.0  0.66673  0.61198  0.37031  1.0000
  C   C5        1.0  0.27442  0.28797  0.59142  1.0000
  C   C6        1.0  0.72558  0.71203  0.40858  1.0000
  C   C7        1.0  0.18577  0.31365  0.50823  1.0000
  C   C8        1.0  0.81424  0.68635  0.49177  1.0000
  C   C9        1.0  0.15688  0.43868  0.46795  1.0000
  C   C10       1.0  0.84312  0.56132  0.53205  1.0000
  C   C11       1.0  0.11279  0.21250  0.46504  1.0000
  C   C12       1.0  0.88721  0.78750  0.53496  1.0000
  C   C13       1.0  0.31465  0.20318  0.34415  1.0000
  C   C14       1.0  0.68535  0.79682  0.65585  1.0000
  C   C15       1.0  0.32467  0.26127  0.23296  1.0000
  C   C16       1.0  0.67533  0.73874  0.76704  1.0000
  C   C17       1.0  0.48284  0.27819  0.20462  1.0000
  C   C18       1.0  0.51716  0.72181  0.79537  1.0000
  C   C19       1.0  0.24096  0.38563  0.21062  1.0000
  C   C20       1.0  0.75905  0.61437  0.78938  1.0000
  C   C21       1.0  0.09490  0.07648  0.33961  1.0000
  C   C22       1.0  0.90510  0.92352  0.66039  1.0000
  C   C23       1.0  0.99303  0.12516  0.25358  1.0000
  C   C24       1.0  0.00697  0.87484  0.74642  1.0000
  C   C25       1.0  0.92785  0.01189  0.21750  1.0000
  C   C26       1.0  0.07216  0.98811  0.78250  1.0000
  C   C27       1.0  0.87643  0.21526  0.28332  1.0000
  C   C28       1.0  0.12357  0.78474  0.71668  1.0000
  C   C29       1.0  0.45004  0.37237  0.70524  1.0000
  C   C30       1.0  0.54996  0.62763  0.29476  1.0000
  C   C31       1.0  0.54814  0.28883  0.86732  1.0000
  C   C32       1.0  0.45186  0.71116  0.13268  1.0000
  C   C33       1.0  0.57071  0.15144  0.91545  1.0000
  C   C34       1.0  0.42929  0.84855  0.08455  1.0000
  C   C35       1.0  0.58951  0.06501  0.83616  1.0000
  C   C36       1.0  0.41049  0.93499  0.16384  1.0000
  C   C37       1.0  0.70090  0.14158  0.98304  1.0000
  C   C38       1.0  0.29909  0.85842  0.01697  1.0000
  C   C39       1.0  0.28675  0.26779  0.83929  1.0000
  C   C40       1.0  0.71325  0.73221  0.16071  1.0000
  C   C41       1.0  0.23558  0.33232  0.92823  1.0000
  C   C42       1.0  0.76442  0.66769  0.07177  1.0000
  C   C43       1.0  0.09821  0.27216  0.97393  1.0000
  C   C44       1.0  0.90179  0.72784  0.02607  1.0000
  C   C45       1.0  0.21487  0.47375  0.89552  1.0000
  C   C46       1.0  0.78513  0.52625  0.10448  1.0000
  N   N1        1.0  0.21186  0.53442  0.50585  1.0000
  N   N2        1.0  0.78814  0.46558  0.49415  1.0000
  N   N3        1.0  0.16959  0.17352  0.38189  1.0000
  N   N4        1.0  0.83042  0.82648  0.61811  1.0000
  N   N5        1.0  0.42718  0.30864  0.79896  1.0000
  N   N6        1.0  0.57282  0.69136  0.20103  1.0000
  Cl  Cl1       1.0  0.07076  0.68059  0.26831  1.0000
  Cl  Cl2       1.0  0.92924  0.31941  0.73169  1.0000
  Cl  Cl3       1.0  0.38671  0.85291  0.46970  1.0000
  Cl  Cl4       1.0  0.61329  0.14709  0.53030  1.0000
  O   O1        1.0  0.99860  0.17037  0.50545  1.0000
  O   O2        1.0  0.00140  0.82963  0.49455  1.0000
  O   O3        1.0  0.56705  0.41970  0.67610  1.0000
  O   O4        1.0  0.43295  0.58030  0.32390  1.0000
