data_image0
_chemical_formula_structural       Hg2H78C46Br4N6O4
_chemical_formula_sum              "Hg2 H78 C46 Br4 N6 O4"
_cell_length_a       8.76902
_cell_length_b       11.783
_cell_length_c       13.828
_cell_angle_alpha    94.58
_cell_angle_beta     103.393
_cell_angle_gamma    91.6627

_space_group_name_H-M_alt    "P 1"
_space_group_IT_number       1

loop_
  _space_group_symop_operation_xyz
  'x, y, z'

loop_
  _atom_site_type_symbol
  _atom_site_label
  _atom_site_symmetry_multiplicity
  _atom_site_fract_x
  _atom_site_fract_y
  _atom_site_fract_z
  _atom_site_occupancy
  Hg  Hg1       1.0  0.16451  0.45282  0.62313  1.0000
  Hg  Hg2       1.0  0.83549  0.54718  0.37686  1.0000
  H   H1        1.0  0.43717  0.63521  0.74365  1.0000
  H   H2        1.0  0.56282  0.36479  0.25635  1.0000
  H   H3        1.0  0.66553  0.80875  0.54871  1.0000
  H   H4        1.0  0.33446  0.19125  0.45129  1.0000
  H   H5        1.0  0.27659  0.56222  0.43874  1.0000
  H   H6        1.0  0.72341  0.43778  0.56126  1.0000
  H   H7        1.0  0.33453  0.96113  0.35944  1.0000
  H   H8        1.0  0.66547  0.03887  0.64056  1.0000
  H   H9        1.0  0.37638  0.88419  0.46674  1.0000
  H   H10       1.0  0.62362  0.11581  0.53326  1.0000
  H   H11       1.0  0.15445  0.74502  0.38970  1.0000
  H   H12       1.0  0.84555  0.25498  0.61029  1.0000
  H   H13       1.0  0.12041  0.91187  0.50303  1.0000
  H   H14       1.0  0.87960  0.08812  0.49697  1.0000
  H   H15       1.0  0.94500  0.87568  0.41129  1.0000
  H   H16       1.0  0.05501  0.12431  0.58871  1.0000
  H   H17       1.0  0.06643  0.99504  0.39966  1.0000
  H   H18       1.0  0.93357  0.00496  0.60034  1.0000
  H   H19       1.0  0.13830  0.76183  0.20910  1.0000
  H   H20       1.0  0.86171  0.23817  0.79090  1.0000
  H   H21       1.0  0.07943  0.90473  0.22186  1.0000
  H   H22       1.0  0.92057  0.09527  0.77814  1.0000
  H   H23       1.0  0.95609  0.78783  0.23813  1.0000
  H   H24       1.0  0.04392  0.21217  0.76187  1.0000
  H   H25       1.0  0.37027  0.89410  0.21225  1.0000
  H   H26       1.0  0.62973  0.10590  0.78775  1.0000
  H   H27       1.0  0.43012  0.75305  0.18903  1.0000
  H   H28       1.0  0.56988  0.24694  0.81097  1.0000
  H   H29       1.0  0.70250  0.81136  0.27602  1.0000
  H   H30       1.0  0.29750  0.18863  0.72399  1.0000
  H   H31       1.0  0.61122  0.81859  0.09210  1.0000
  H   H32       1.0  0.38879  0.18141  0.90791  1.0000
  H   H33       1.0  0.75873  0.92739  0.14362  1.0000
  H   H34       1.0  0.24128  0.07260  0.85639  1.0000
  H   H35       1.0  0.55894  0.96241  0.11019  1.0000
  H   H36       1.0  0.44107  0.03759  0.88981  1.0000
  H   H37       1.0  0.65460  0.97033  0.39442  1.0000
  H   H38       1.0  0.34540  0.02967  0.60558  1.0000
  H   H39       1.0  0.57924  0.05217  0.29332  1.0000
  H   H40       1.0  0.42077  0.94782  0.70668  1.0000
  H   H41       1.0  0.78130  0.01952  0.32215  1.0000
  H   H42       1.0  0.21870  0.98048  0.67785  1.0000
  H   H43       1.0  0.89623  0.59183  0.80971  1.0000
  H   H44       1.0  0.10376  0.40817  0.19030  1.0000
  H   H45       1.0  0.69276  0.57625  0.75781  1.0000
  H   H46       1.0  0.30724  0.42375  0.24220  1.0000
  H   H47       1.0  0.85466  0.61079  0.98004  1.0000
  H   H48       1.0  0.14534  0.38921  0.01996  1.0000
  H   H49       1.0  0.59740  0.59320  0.01755  1.0000
  H   H50       1.0  0.40259  0.40681  0.98245  1.0000
  H   H51       1.0  0.50106  0.56851  0.88966  1.0000
  H   H52       1.0  0.49893  0.43149  0.11034  1.0000
  H   H53       1.0  0.59023  0.70531  0.93841  1.0000
  H   H54       1.0  0.40976  0.29469  0.06159  1.0000
  H   H55       1.0  0.74930  0.41150  0.98017  1.0000
  H   H56       1.0  0.25069  0.58850  0.01983  1.0000
  H   H57       1.0  0.87749  0.41899  0.89763  1.0000
  H   H58       1.0  0.12250  0.58101  0.10237  1.0000
  H   H59       1.0  0.67032  0.40741  0.84922  1.0000
  H   H60       1.0  0.32968  0.59260  0.15078  1.0000
  H   H61       1.0  0.86097  0.79427  0.96973  1.0000
  H   H62       1.0  0.13903  0.20573  0.03026  1.0000
  H   H63       1.0  0.86100  0.90066  0.88550  1.0000
  H   H64       1.0  0.13900  0.09934  0.11450  1.0000
  H   H65       1.0  0.08128  0.70185  0.91351  1.0000
  H   H66       1.0  0.91872  0.29815  0.08649  1.0000
  H   H67       1.0  0.22165  0.79916  0.80307  1.0000
  H   H68       1.0  0.77835  0.20084  0.19693  1.0000
  H   H69       1.0  0.07461  0.90139  0.78312  1.0000
  H   H70       1.0  0.92539  0.09861  0.21688  1.0000
  H   H71       1.0  0.02707  0.75636  0.73858  1.0000
  H   H72       1.0  0.97293  0.24365  0.26142  1.0000
  H   H73       1.0  0.13409  0.85186  0.05807  1.0000
  H   H74       1.0  0.86590  0.14814  0.94193  1.0000
  H   H75       1.0  0.14677  0.95785  0.97547  1.0000
  H   H76       1.0  0.85323  0.04215  0.02454  1.0000
  H   H77       1.0  0.28681  0.85114  0.99327  1.0000
  H   H78       1.0  0.71319  0.14886  0.00673  1.0000
  C   C1        1.0  0.45319  0.65161  0.67001  1.0000
  C   C2        1.0  0.54681  0.34839  0.32999  1.0000
  C   C3        1.0  0.57281  0.72645  0.65796  1.0000
  C   C4        1.0  0.42719  0.27355  0.34203  1.0000
  C   C5        1.0  0.57801  0.74714  0.56051  1.0000
  C   C6        1.0  0.42199  0.25285  0.43949  1.0000
  C   C7        1.0  0.47189  0.68896  0.47948  1.0000
  C   C8        1.0  0.52811  0.31104  0.52052  1.0000
  C   C9        1.0  0.36096  0.61194  0.49889  1.0000
  C   C10       1.0  0.63904  0.38806  0.50110  1.0000
  C   C11       1.0  0.48274  0.70623  0.37455  1.0000
  C   C12       1.0  0.51726  0.29377  0.62545  1.0000
  C   C13       1.0  0.32797  0.87603  0.38567  1.0000
  C   C14       1.0  0.67203  0.12397  0.61433  1.0000
  C   C15       1.0  0.15607  0.83089  0.36315  1.0000
  C   C16       1.0  0.84394  0.16911  0.63685  1.0000
  C   C17       1.0  0.06715  0.90773  0.42270  1.0000
  C   C18       1.0  0.93286  0.09227  0.57730  1.0000
  C   C19       1.0  0.07829  0.82088  0.25161  1.0000
  C   C20       1.0  0.92171  0.17912  0.74839  1.0000
  C   C21       1.0  0.45425  0.83053  0.24076  1.0000
  C   C22       1.0  0.54576  0.16947  0.75924  1.0000
  C   C23       1.0  0.62177  0.87751  0.24744  1.0000
  C   C24       1.0  0.37823  0.12249  0.75256  1.0000
  C   C25       1.0  0.63852  0.89737  0.14232  1.0000
  C   C26       1.0  0.36149  0.10262  0.85768  1.0000
  C   C27       1.0  0.66174  0.98616  0.31825  1.0000
  C   C28       1.0  0.33826  0.01384  0.68175  1.0000
  C   C29       1.0  0.68689  0.79492  0.74222  1.0000
  C   C30       1.0  0.31311  0.20509  0.25778  1.0000
  C   C31       1.0  0.78137  0.61776  0.82092  1.0000
  C   C32       1.0  0.21862  0.38224  0.17908  1.0000
  C   C33       1.0  0.75668  0.57545  0.91861  1.0000
  C   C34       1.0  0.24331  0.42456  0.08139  1.0000
  C   C35       1.0  0.60281  0.61306  0.94217  1.0000
  C   C36       1.0  0.39719  0.38694  0.05783  1.0000
  C   C37       1.0  0.76455  0.44567  0.91122  1.0000
  C   C38       1.0  0.23544  0.55433  0.08879  1.0000
  C   C39       1.0  0.88568  0.81153  0.89761  1.0000
  C   C40       1.0  0.11432  0.18847  0.10239  1.0000
  C   C41       1.0  0.05869  0.79144  0.89982  1.0000
  C   C42       1.0  0.94130  0.20856  0.10018  1.0000
  C   C43       1.0  0.09756  0.81318  0.80064  1.0000
  C   C44       1.0  0.90243  0.18682  0.19936  1.0000
  C   C45       1.0  0.16216  0.86711  0.98665  1.0000
  C   C46       1.0  0.83784  0.13289  0.01335  1.0000
  Br  Br1       1.0  0.06568  0.34970  0.45095  1.0000
  Br  Br2       1.0  0.93431  0.65029  0.54905  1.0000
  Br  Br3       1.0  0.17265  0.47841  0.80544  1.0000
  Br  Br4       1.0  0.82734  0.52159  0.19455  1.0000
  N   N1        1.0  0.35073  0.59637  0.59204  1.0000
  N   N2        1.0  0.64928  0.40363  0.40795  1.0000
  N   N3        1.0  0.42746  0.80335  0.33755  1.0000
  N   N4        1.0  0.57254  0.19665  0.66245  1.0000
  N   N5        1.0  0.77437  0.74161  0.81807  1.0000
  N   N6        1.0  0.22563  0.25840  0.18193  1.0000
  O   O1        1.0  0.54541  0.63372  0.32700  1.0000
  O   O2        1.0  0.45458  0.36628  0.67300  1.0000
  O   O3        1.0  0.69734  0.90027  0.73752  1.0000
  O   O4        1.0  0.30266  0.09973  0.26248  1.0000
