data_image0
_chemical_formula_structural       Cu2H24C20N8O8
_chemical_formula_sum              "Cu2 H24 C20 N8 O8"
_cell_length_a       4.71701
_cell_length_b       9.47075
_cell_length_c       13.5109
_cell_angle_alpha    90.0001
_cell_angle_beta     90.0004
_cell_angle_gamma    95.8619

_space_group_name_H-M_alt    "P 1"
_space_group_IT_number       1

loop_
  _space_group_symop_operation_xyz
  'x, y, z'

loop_
  _atom_site_type_symbol
  _atom_site_label
  _atom_site_symmetry_multiplicity
  _atom_site_fract_x
  _atom_site_fract_y
  _atom_site_fract_z
  _atom_site_occupancy
  Cu  Cu1       1.0  0.00000  0.50000  0.50000  1.0000
  Cu  Cu2       1.0  1.00000  1.00000  0.00000  1.0000
  H   H1        1.0  0.89178  0.33499  0.29579  1.0000
  H   H2        1.0  0.10822  0.16502  0.79580  1.0000
  H   H3        1.0  0.10823  0.66502  0.70421  1.0000
  H   H4        1.0  0.89178  0.83498  0.20421  1.0000
  H   H5        1.0  0.49578  0.41602  0.16000  1.0000
  H   H6        1.0  0.50422  0.08399  0.66000  1.0000
  H   H7        1.0  0.50424  0.58399  0.84000  1.0000
  H   H8        1.0  0.49577  0.91601  0.33999  1.0000
  H   H9        1.0  0.27137  0.63801  0.25496  1.0000
  H   H10       1.0  0.72862  0.86199  0.75496  1.0000
  H   H11       1.0  0.72865  0.36199  0.74504  1.0000
  H   H12       1.0  0.27136  0.13800  0.24504  1.0000
  H   H13       1.0  0.96674  0.95621  0.60923  1.0000
  H   H14       1.0  0.03326  0.54379  0.10922  1.0000
  H   H15       1.0  0.03325  0.04379  0.39077  1.0000
  H   H16       1.0  0.96674  0.45621  0.89077  1.0000
  H   H17       1.0  0.69719  0.92577  0.51976  1.0000
  H   H18       1.0  0.30281  0.57423  0.01976  1.0000
  H   H19       1.0  0.30281  0.07424  0.48024  1.0000
  H   H20       1.0  0.69719  0.42577  0.98024  1.0000
  H   H21       1.0  0.50041  0.66089  0.42189  1.0000
  H   H22       1.0  0.49958  0.83911  0.92189  1.0000
  H   H23       1.0  0.49960  0.33911  0.57811  1.0000
  H   H24       1.0  0.50041  0.16088  0.07811  1.0000
  C   C1        1.0  0.74952  0.41753  0.30079  1.0000
  C   C2        1.0  0.25048  0.08248  0.80079  1.0000
  C   C3        1.0  0.25049  0.58248  0.69921  1.0000
  C   C4        1.0  0.74951  0.91752  0.19921  1.0000
  C   C5        1.0  0.55208  0.46064  0.23223  1.0000
  C   C6        1.0  0.44793  0.03936  0.73223  1.0000
  C   C7        1.0  0.44794  0.53937  0.76777  1.0000
  C   C8        1.0  0.55206  0.96063  0.26777  1.0000
  C   C9        1.0  0.43330  0.57194  0.27841  1.0000
  C   C10       1.0  0.56670  0.92806  0.77841  1.0000
  C   C11       1.0  0.56672  0.42807  0.72159  1.0000
  C   C12       1.0  0.43329  0.07193  0.22159  1.0000
  C   C13       1.0  0.03879  0.79653  0.50501  1.0000
  C   C14       1.0  0.96121  0.70347  0.00501  1.0000
  C   C15       1.0  0.96121  0.20347  0.49499  1.0000
  C   C16       1.0  0.03879  0.29653  0.99499  1.0000
  C   C17       1.0  0.92931  0.93781  0.52963  1.0000
  C   C18       1.0  0.07069  0.56219  0.02963  1.0000
  C   C19       1.0  0.07068  0.06220  0.47037  1.0000
  C   C20       1.0  0.92931  0.43780  0.97036  1.0000
  N   N1        1.0  0.75118  0.49787  0.38309  1.0000
  N   N2        1.0  0.24882  0.00213  0.88309  1.0000
  N   N3        1.0  0.24882  0.50213  0.61691  1.0000
  N   N4        1.0  0.75118  0.99787  0.11691  1.0000
  N   N5        1.0  0.55771  0.59143  0.36787  1.0000
  N   N6        1.0  0.44228  0.90857  0.86787  1.0000
  N   N7        1.0  0.44229  0.40857  0.63213  1.0000
  N   N8        1.0  0.55771  0.09143  0.13213  1.0000
  O   O1        1.0  0.88062  0.68668  0.53816  1.0000
  O   O2        1.0  0.11939  0.81332  0.03816  1.0000
  O   O3        1.0  0.11938  0.31333  0.46184  1.0000
  O   O4        1.0  0.88061  0.18667  0.96184  1.0000
  O   O5        1.0  0.26487  0.79096  0.45674  1.0000
  O   O6        1.0  0.73513  0.70904  0.95674  1.0000
  O   O7        1.0  0.73513  0.20904  0.54326  1.0000
  O   O8        1.0  0.26486  0.29096  0.04326  1.0000
