data_image0
_chemical_formula_structural       Cu4H4C4Br4N8
_chemical_formula_sum              "Cu4 H4 C4 Br4 N8"
_cell_length_a       6.27896
_cell_length_b       6.58924
_cell_length_c       9.60101
_cell_angle_alpha    89.9975
_cell_angle_beta     90.0025
_cell_angle_gamma    118.536

_space_group_name_H-M_alt    "P 1"
_space_group_IT_number       1

loop_
  _space_group_symop_operation_xyz
  'x, y, z'

loop_
  _atom_site_type_symbol
  _atom_site_label
  _atom_site_symmetry_multiplicity
  _atom_site_fract_x
  _atom_site_fract_y
  _atom_site_fract_z
  _atom_site_occupancy
  Cu  Cu1       1.0  0.60265  0.72766  0.75001  1.0000
  Cu  Cu2       1.0  0.39735  0.27234  0.25001  1.0000
  Cu  Cu3       1.0  0.12586  0.72867  0.25001  1.0000
  Cu  Cu4       1.0  0.87413  0.27131  0.74999  1.0000
  H   H1        1.0  0.79366  0.58772  0.50009  1.0000
  H   H2        1.0  0.20634  0.41228  0.00009  1.0000
  H   H3        1.0  0.20636  0.41228  0.49993  1.0000
  H   H4        1.0  0.79368  0.58775  0.99992  1.0000
  C   C1        1.0  0.88797  0.77613  0.50005  1.0000
  C   C2        1.0  0.11197  0.22384  0.00002  1.0000
  C   C3        1.0  0.11198  0.22384  0.49998  1.0000
  C   C4        1.0  0.88798  0.77612  0.99996  1.0000
  Br  Br1       1.0  0.51881  0.31797  0.75001  1.0000
  Br  Br2       1.0  0.48120  0.68203  0.25000  1.0000
  Br  Br3       1.0  0.79945  0.31877  0.25005  1.0000
  Br  Br4       1.0  0.20056  0.68122  0.74984  1.0000
  N   N1        1.0  0.81024  0.88238  0.58902  1.0000
  N   N2        1.0  0.18978  0.11763  0.08904  1.0000
  N   N3        1.0  0.07225  0.88250  0.41100  1.0000
  N   N4        1.0  0.92775  0.11751  0.91103  1.0000
  N   N5        1.0  0.18977  0.11762  0.41097  1.0000
  N   N6        1.0  0.81023  0.88239  0.91099  1.0000
  N   N7        1.0  0.92775  0.11750  0.58898  1.0000
  N   N8        1.0  0.07227  0.88251  0.08899  1.0000
