data_image0
_chemical_formula_structural       Ag4H36C32S4N8
_chemical_formula_sum              "Ag4 H36 C32 S4 N8"
_cell_length_a       8.03871
_cell_length_b       8.40519
_cell_length_c       13.2614
_cell_angle_alpha    99.9662
_cell_angle_beta     90
_cell_angle_gamma    90

_space_group_name_H-M_alt    "P 1"
_space_group_IT_number       1

loop_
  _space_group_symop_operation_xyz
  'x, y, z'

loop_
  _atom_site_type_symbol
  _atom_site_label
  _atom_site_symmetry_multiplicity
  _atom_site_fract_x
  _atom_site_fract_y
  _atom_site_fract_z
  _atom_site_occupancy
  Ag  Ag1       1.0  0.94287  0.82774  0.86205  1.0000
  Ag  Ag2       1.0  0.44287  0.17226  0.63795  1.0000
  Ag  Ag3       1.0  0.05713  0.17226  0.13795  1.0000
  Ag  Ag4       1.0  0.55713  0.82774  0.36206  1.0000
  H   H1        1.0  0.59752  0.79593  0.96384  1.0000
  H   H2        1.0  0.09752  0.20407  0.53616  1.0000
  H   H3        1.0  0.40249  0.20408  0.03616  1.0000
  H   H4        1.0  0.90249  0.79592  0.46385  1.0000
  H   H5        1.0  0.58812  0.77269  0.82947  1.0000
  H   H6        1.0  0.08811  0.22731  0.67052  1.0000
  H   H7        1.0  0.41189  0.22731  0.17052  1.0000
  H   H8        1.0  0.91189  0.77269  0.32948  1.0000
  H   H9        1.0  0.43405  0.68028  0.89667  1.0000
  H   H10       1.0  0.93405  0.31972  0.60333  1.0000
  H   H11       1.0  0.56596  0.31973  0.10333  1.0000
  H   H12       1.0  0.06596  0.68027  0.39667  1.0000
  H   H13       1.0  0.46927  0.39558  0.88616  1.0000
  H   H14       1.0  0.96926  0.60442  0.61384  1.0000
  H   H15       1.0  0.53073  0.60442  0.11384  1.0000
  H   H16       1.0  0.03073  0.39558  0.38616  1.0000
  H   H17       1.0  0.65476  0.15282  0.86328  1.0000
  H   H18       1.0  0.15476  0.84718  0.63673  1.0000
  H   H19       1.0  0.34524  0.84719  0.13672  1.0000
  H   H20       1.0  0.84524  0.15281  0.36328  1.0000
  H   H21       1.0  0.96283  0.19304  0.85473  1.0000
  H   H22       1.0  0.46283  0.80697  0.64527  1.0000
  H   H23       1.0  0.03716  0.80697  0.14527  1.0000
  H   H24       1.0  0.53717  0.19304  0.35473  1.0000
  H   H25       1.0  0.15559  0.56259  0.81271  1.0000
  H   H26       1.0  0.65559  0.43741  0.68730  1.0000
  H   H27       1.0  0.84441  0.43741  0.18730  1.0000
  H   H28       1.0  0.34441  0.56259  0.31271  1.0000
  H   H29       1.0  0.16676  0.54393  0.94279  1.0000
  H   H30       1.0  0.66676  0.45607  0.55721  1.0000
  H   H31       1.0  0.83324  0.45607  0.05721  1.0000
  H   H32       1.0  0.33324  0.54393  0.44279  1.0000
  H   H33       1.0  0.19405  0.36906  0.84648  1.0000
  H   H34       1.0  0.69405  0.63094  0.65352  1.0000
  H   H35       1.0  0.80595  0.63094  0.15352  1.0000
  H   H36       1.0  0.30595  0.36906  0.34648  1.0000
  C   C1        1.0  0.27528  0.03805  0.84295  1.0000
  C   C2        1.0  0.77528  0.96195  0.65705  1.0000
  C   C3        1.0  0.72471  0.96196  0.15706  1.0000
  C   C4        1.0  0.22471  0.03805  0.34295  1.0000
  C   C5        1.0  0.67286  0.56198  0.88514  1.0000
  C   C6        1.0  0.17286  0.43802  0.61486  1.0000
  C   C7        1.0  0.32714  0.43802  0.11486  1.0000
  C   C8        1.0  0.82714  0.56198  0.38514  1.0000
  C   C9        1.0  0.60357  0.40844  0.88152  1.0000
  C   C10       1.0  0.10357  0.59156  0.61848  1.0000
  C   C11       1.0  0.39643  0.59157  0.11848  1.0000
  C   C12       1.0  0.89643  0.40843  0.38152  1.0000
  C   C13       1.0  0.70702  0.27362  0.86898  1.0000
  C   C14       1.0  0.20702  0.72638  0.63102  1.0000
  C   C15       1.0  0.29298  0.72638  0.13102  1.0000
  C   C16       1.0  0.79298  0.27362  0.36898  1.0000
  C   C17       1.0  0.87823  0.29574  0.86330  1.0000
  C   C18       1.0  0.37823  0.70426  0.63670  1.0000
  C   C19       1.0  0.12177  0.70426  0.13670  1.0000
  C   C20       1.0  0.62177  0.29574  0.36330  1.0000
  C   C21       1.0  0.94179  0.45194  0.86892  1.0000
  C   C22       1.0  0.44179  0.54806  0.63108  1.0000
  C   C23       1.0  0.05821  0.54806  0.13108  1.0000
  C   C24       1.0  0.55821  0.45194  0.36892  1.0000
  C   C25       1.0  0.56641  0.70951  0.89431  1.0000
  C   C26       1.0  0.06641  0.29049  0.60569  1.0000
  C   C27       1.0  0.43359  0.29049  0.10569  1.0000
  C   C28       1.0  0.93360  0.70951  0.39431  1.0000
  C   C29       1.0  0.12505  0.48241  0.86714  1.0000
  C   C30       1.0  0.62505  0.51759  0.63286  1.0000
  C   C31       1.0  0.87495  0.51759  0.13286  1.0000
  C   C32       1.0  0.37495  0.48242  0.36714  1.0000
  S   S1        1.0  0.19821  0.96034  0.93822  1.0000
  S   S2        1.0  0.69821  0.03966  0.56178  1.0000
  S   S3        1.0  0.80179  0.03966  0.06178  1.0000
  S   S4        1.0  0.30178  0.96034  0.43822  1.0000
  N   N1        1.0  0.83278  0.90511  0.72494  1.0000
  N   N2        1.0  0.33277  0.09488  0.77505  1.0000
  N   N3        1.0  0.16723  0.09488  0.27506  1.0000
  N   N4        1.0  0.66723  0.90512  0.22495  1.0000
  N   N5        1.0  0.83947  0.58174  0.87811  1.0000
  N   N6        1.0  0.33947  0.41826  0.62189  1.0000
  N   N7        1.0  0.16053  0.41826  0.12189  1.0000
  N   N8        1.0  0.66053  0.58174  0.37811  1.0000
