data_image0
_chemical_formula_structural       Ag8H56C56S8N16
_chemical_formula_sum              "Ag8 H56 C56 S8 N16"
_cell_length_a       8.11604
_cell_length_b       11.2405
_cell_length_c       18.055
_cell_angle_alpha    90
_cell_angle_beta     90
_cell_angle_gamma    90

_space_group_name_H-M_alt    "P 1"
_space_group_IT_number       1

loop_
  _space_group_symop_operation_xyz
  'x, y, z'

loop_
  _atom_site_type_symbol
  _atom_site_label
  _atom_site_symmetry_multiplicity
  _atom_site_fract_x
  _atom_site_fract_y
  _atom_site_fract_z
  _atom_site_occupancy
  Ag  Ag1       1.0  0.81266  0.84876  0.92317  1.0000
  Ag  Ag2       1.0  0.81265  0.34878  0.57683  1.0000
  Ag  Ag3       1.0  0.31266  0.65122  0.92317  1.0000
  Ag  Ag4       1.0  0.31267  0.15123  0.57683  1.0000
  Ag  Ag5       1.0  0.18734  0.15123  0.07684  1.0000
  Ag  Ag6       1.0  0.18734  0.65123  0.42316  1.0000
  Ag  Ag7       1.0  0.68733  0.34876  0.07684  1.0000
  Ag  Ag8       1.0  0.68733  0.84877  0.42316  1.0000
  H   H1        1.0  0.91009  0.00126  0.78279  1.0000
  H   H2        1.0  0.91009  0.50127  0.71722  1.0000
  H   H3        1.0  0.41010  0.49874  0.78279  1.0000
  H   H4        1.0  0.41010  0.99874  0.71721  1.0000
  H   H5        1.0  0.08991  0.99874  0.21722  1.0000
  H   H6        1.0  0.08990  0.49874  0.28278  1.0000
  H   H7        1.0  0.58990  0.50126  0.21722  1.0000
  H   H8        1.0  0.58989  0.00126  0.28278  1.0000
  H   H9        1.0  0.88876  0.12487  0.65644  1.0000
  H   H10       1.0  0.88877  0.62486  0.84356  1.0000
  H   H11       1.0  0.38876  0.37514  0.65644  1.0000
  H   H12       1.0  0.38876  0.87514  0.84356  1.0000
  H   H13       1.0  0.11123  0.87515  0.34356  1.0000
  H   H14       1.0  0.11124  0.37513  0.15644  1.0000
  H   H15       1.0  0.61123  0.62486  0.34356  1.0000
  H   H16       1.0  0.61124  0.12486  0.15644  1.0000
  H   H17       1.0  0.02844  0.01415  0.62689  1.0000
  H   H18       1.0  0.02845  0.51415  0.87311  1.0000
  H   H19       1.0  0.52846  0.48585  0.62689  1.0000
  H   H20       1.0  0.52845  0.98585  0.87311  1.0000
  H   H21       1.0  0.97155  0.98585  0.37311  1.0000
  H   H22       1.0  0.97156  0.48585  0.12689  1.0000
  H   H23       1.0  0.47155  0.51415  0.37311  1.0000
  H   H24       1.0  0.47155  0.01415  0.12689  1.0000
  H   H25       1.0  0.84645  0.03946  0.57525  1.0000
  H   H26       1.0  0.84647  0.53946  0.92476  1.0000
  H   H27       1.0  0.34646  0.46055  0.57524  1.0000
  H   H28       1.0  0.34646  0.96054  0.92476  1.0000
  H   H29       1.0  0.15353  0.96055  0.42476  1.0000
  H   H30       1.0  0.15355  0.46055  0.07524  1.0000
  H   H31       1.0  0.65354  0.53945  0.42476  1.0000
  H   H32       1.0  0.65354  0.03945  0.07524  1.0000
  H   H33       1.0  0.68180  0.86294  0.58514  1.0000
  H   H34       1.0  0.68182  0.36293  0.91486  1.0000
  H   H35       1.0  0.18180  0.63706  0.58514  1.0000
  H   H36       1.0  0.18181  0.13707  0.91486  1.0000
  H   H37       1.0  0.31819  0.13707  0.41486  1.0000
  H   H38       1.0  0.31819  0.63706  0.08514  1.0000
  H   H39       1.0  0.81820  0.36294  0.41486  1.0000
  H   H40       1.0  0.81820  0.86293  0.08514  1.0000
  H   H41       1.0  0.55402  0.70468  0.66333  1.0000
  H   H42       1.0  0.55403  0.20468  0.83667  1.0000
  H   H43       1.0  0.05400  0.79531  0.66333  1.0000
  H   H44       1.0  0.05401  0.29532  0.83667  1.0000
  H   H45       1.0  0.44598  0.29532  0.33667  1.0000
  H   H46       1.0  0.44598  0.79531  0.16333  1.0000
  H   H47       1.0  0.94600  0.20469  0.33667  1.0000
  H   H48       1.0  0.94599  0.70468  0.16333  1.0000
  H   H49       1.0  0.61677  0.70086  0.79975  1.0000
  H   H50       1.0  0.61677  0.20087  0.70025  1.0000
  H   H51       1.0  0.11676  0.79913  0.79975  1.0000
  H   H52       1.0  0.11677  0.29913  0.70025  1.0000
  H   H53       1.0  0.38323  0.29913  0.20025  1.0000
  H   H54       1.0  0.38322  0.79913  0.29975  1.0000
  H   H55       1.0  0.88324  0.20087  0.20025  1.0000
  H   H56       1.0  0.88324  0.70087  0.29975  1.0000
  C   C1        1.0  0.13424  0.86944  0.02445  1.0000
  C   C2        1.0  0.13423  0.36945  0.47556  1.0000
  C   C3        1.0  0.63424  0.63055  0.02445  1.0000
  C   C4        1.0  0.63424  0.13056  0.47555  1.0000
  C   C5        1.0  0.86576  0.13055  0.97555  1.0000
  C   C6        1.0  0.86577  0.63056  0.52445  1.0000
  C   C7        1.0  0.36577  0.36944  0.97555  1.0000
  C   C8        1.0  0.36577  0.86945  0.52445  1.0000
  C   C9        1.0  0.83312  0.93637  0.75383  1.0000
  C   C10       1.0  0.83313  0.43637  0.74617  1.0000
  C   C11       1.0  0.33313  0.56363  0.75382  1.0000
  C   C12       1.0  0.33312  0.06363  0.74618  1.0000
  C   C13       1.0  0.16687  0.06363  0.24617  1.0000
  C   C14       1.0  0.16687  0.56363  0.25382  1.0000
  C   C15       1.0  0.66686  0.43637  0.24618  1.0000
  C   C16       1.0  0.66687  0.93637  0.25382  1.0000
  C   C17       1.0  0.80905  0.94444  0.67710  1.0000
  C   C18       1.0  0.80906  0.44444  0.82291  1.0000
  C   C19       1.0  0.30905  0.55556  0.67710  1.0000
  C   C20       1.0  0.30905  0.05555  0.82290  1.0000
  C   C21       1.0  0.19094  0.05556  0.32290  1.0000
  C   C22       1.0  0.19095  0.55555  0.17710  1.0000
  C   C23       1.0  0.69095  0.44444  0.32290  1.0000
  C   C24       1.0  0.69095  0.94444  0.17709  1.0000
  C   C25       1.0  0.70521  0.85994  0.64458  1.0000
  C   C26       1.0  0.70522  0.35994  0.85542  1.0000
  C   C27       1.0  0.20521  0.64006  0.64458  1.0000
  C   C28       1.0  0.20521  0.14006  0.85542  1.0000
  C   C29       1.0  0.29479  0.14007  0.35542  1.0000
  C   C30       1.0  0.29479  0.64006  0.14458  1.0000
  C   C31       1.0  0.79480  0.35995  0.35543  1.0000
  C   C32       1.0  0.79479  0.85993  0.14458  1.0000
  C   C33       1.0  0.63425  0.77130  0.68803  1.0000
  C   C34       1.0  0.63426  0.27129  0.81197  1.0000
  C   C35       1.0  0.13424  0.72870  0.68803  1.0000
  C   C36       1.0  0.13425  0.22870  0.81197  1.0000
  C   C37       1.0  0.36575  0.22870  0.31197  1.0000
  C   C38       1.0  0.36575  0.72870  0.18803  1.0000
  C   C39       1.0  0.86576  0.27130  0.31197  1.0000
  C   C40       1.0  0.86575  0.77130  0.18803  1.0000
  C   C41       1.0  0.66879  0.76887  0.76348  1.0000
  C   C42       1.0  0.66881  0.26888  0.73651  1.0000
  C   C43       1.0  0.16878  0.73113  0.76348  1.0000
  C   C44       1.0  0.16879  0.23112  0.73652  1.0000
  C   C45       1.0  0.33121  0.23113  0.23652  1.0000
  C   C46       1.0  0.33120  0.73112  0.26348  1.0000
  C   C47       1.0  0.83122  0.26887  0.23652  1.0000
  C   C48       1.0  0.83122  0.76887  0.26348  1.0000
  C   C49       1.0  0.89664  0.03593  0.63155  1.0000
  C   C50       1.0  0.89664  0.53593  0.86846  1.0000
  C   C51       1.0  0.39664  0.46407  0.63154  1.0000
  C   C52       1.0  0.39664  0.96407  0.86846  1.0000
  C   C53       1.0  0.10336  0.96408  0.36846  1.0000
  C   C54       1.0  0.10336  0.46407  0.13154  1.0000
  C   C55       1.0  0.60336  0.53593  0.36846  1.0000
  C   C56       1.0  0.60336  0.03592  0.13154  1.0000
  S   S1        1.0  0.05763  0.75027  0.98410  1.0000
  S   S2        1.0  0.05763  0.25028  0.51591  1.0000
  S   S3        1.0  0.55763  0.74972  0.98410  1.0000
  S   S4        1.0  0.55763  0.24972  0.51591  1.0000
  S   S5        1.0  0.94237  0.24971  0.01590  1.0000
  S   S6        1.0  0.94237  0.74973  0.48410  1.0000
  S   S7        1.0  0.44237  0.25027  0.01590  1.0000
  S   S8        1.0  0.44238  0.75028  0.48410  1.0000
  N   N1        1.0  0.18831  0.95391  0.05485  1.0000
  N   N2        1.0  0.18831  0.45393  0.44517  1.0000
  N   N3        1.0  0.68831  0.54607  0.05484  1.0000
  N   N4        1.0  0.68831  0.04608  0.44516  1.0000
  N   N5        1.0  0.81169  0.04607  0.94516  1.0000
  N   N6        1.0  0.81169  0.54609  0.55483  1.0000
  N   N7        1.0  0.31170  0.45392  0.94516  1.0000
  N   N8        1.0  0.31168  0.95393  0.55484  1.0000
  N   N9        1.0  0.76631  0.85044  0.79610  1.0000
  N   N10       1.0  0.76630  0.35046  0.70390  1.0000
  N   N11       1.0  0.26631  0.64955  0.79610  1.0000
  N   N12       1.0  0.26632  0.14955  0.70390  1.0000
  N   N13       1.0  0.23370  0.14955  0.20390  1.0000
  N   N14       1.0  0.23368  0.64955  0.29610  1.0000
  N   N15       1.0  0.73369  0.35045  0.20390  1.0000
  N   N16       1.0  0.73369  0.85045  0.29610  1.0000
