data_image0
_chemical_formula_structural       Cu2H20C12N4O10
_chemical_formula_sum              "Cu2 H20 C12 N4 O10"
_cell_length_a       7.9856
_cell_length_b       8.31539
_cell_length_c       8.57945
_cell_angle_alpha    92.1473
_cell_angle_beta     115.294
_cell_angle_gamma    110.629

_space_group_name_H-M_alt    "P 1"
_space_group_IT_number       1

loop_
  _space_group_symop_operation_xyz
  'x, y, z'

loop_
  _atom_site_type_symbol
  _atom_site_label
  _atom_site_symmetry_multiplicity
  _atom_site_fract_x
  _atom_site_fract_y
  _atom_site_fract_z
  _atom_site_occupancy
  Cu  Cu1       1.0  0.58272  0.63396  0.62561  1.0000
  Cu  Cu2       1.0  0.41727  0.36602  0.37439  1.0000
  H   H1        1.0  0.08923  0.67452  0.04742  1.0000
  H   H2        1.0  0.91078  0.32547  0.95260  1.0000
  H   H3        1.0  0.19394  0.85965  0.22450  1.0000
  H   H4        1.0  0.80607  0.14036  0.77551  1.0000
  H   H5        1.0  0.81348  0.64604  0.09948  1.0000
  H   H6        1.0  0.18651  0.35395  0.90051  1.0000
  H   H7        1.0  0.89961  0.49050  0.19910  1.0000
  H   H8        1.0  0.10040  0.50950  0.80090  1.0000
  H   H9        1.0  0.00930  0.85982  0.39662  1.0000
  H   H10       1.0  0.99067  0.14018  0.60337  1.0000
  H   H11       1.0  0.10075  0.70729  0.49669  1.0000
  H   H12       1.0  0.89925  0.29273  0.50331  1.0000
  H   H13       1.0  0.43083  0.69513  0.86965  1.0000
  H   H14       1.0  0.56917  0.30487  0.13034  1.0000
  H   H15       1.0  0.49687  0.83116  0.06482  1.0000
  H   H16       1.0  0.50314  0.16885  0.93517  1.0000
  H   H17       1.0  0.82856  0.06399  0.21815  1.0000
  H   H18       1.0  0.17144  0.93601  0.78184  1.0000
  H   H19       1.0  0.99687  0.08335  0.13271  1.0000
  H   H20       1.0  0.00315  0.91665  0.86729  1.0000
  C   C1        1.0  0.28656  0.64880  0.30057  1.0000
  C   C2        1.0  0.71343  0.35119  0.69942  1.0000
  C   C3        1.0  0.13119  0.71540  0.18656  1.0000
  C   C4        1.0  0.86881  0.28461  0.81345  1.0000
  C   C5        1.0  0.94039  0.63290  0.20999  1.0000
  C   C6        1.0  0.05960  0.36710  0.79002  1.0000
  C   C7        1.0  0.97055  0.71767  0.38579  1.0000
  C   C8        1.0  0.02943  0.28233  0.61421  1.0000
  C   C9        1.0  0.79122  0.63877  0.42106  1.0000
  C   C10       1.0  0.20878  0.36123  0.57894  1.0000
  C   C11       1.0  0.71059  0.89654  0.97627  1.0000
  C   C12       1.0  0.28942  0.10346  0.02373  1.0000
  N   N1        1.0  0.52184  0.81216  0.96076  1.0000
  N   N2        1.0  0.47817  0.18784  0.03923  1.0000
  N   N3        1.0  0.85182  0.03014  0.11703  1.0000
  N   N4        1.0  0.14819  0.96986  0.88297  1.0000
  O   O1        1.0  0.41392  0.73925  0.45747  1.0000
  O   O2        1.0  0.58608  0.26075  0.54252  1.0000
  O   O3        1.0  0.26891  0.50068  0.23241  1.0000
  O   O4        1.0  0.73108  0.49930  0.76759  1.0000
  O   O5        1.0  0.79485  0.72827  0.54706  1.0000
  O   O6        1.0  0.20516  0.27174  0.45296  1.0000
  O   O7        1.0  0.65243  0.48836  0.32621  1.0000
  O   O8        1.0  0.34756  0.51164  0.67379  1.0000
  O   O9        1.0  0.75166  0.85443  0.85771  1.0000
  O   O10       1.0  0.24835  0.14557  0.14229  1.0000
