data_image0
_chemical_formula_structural       Cu2H26C28N8O10
_chemical_formula_sum              "Cu2 H26 C28 N8 O10"
_cell_length_a       6.65548
_cell_length_b       10.0985
_cell_length_c       12.0462
_cell_angle_alpha    112.999
_cell_angle_beta     99.4906
_cell_angle_gamma    101.206

_space_group_name_H-M_alt    "P 1"
_space_group_IT_number       1

loop_
  _space_group_symop_operation_xyz
  'x, y, z'

loop_
  _atom_site_type_symbol
  _atom_site_label
  _atom_site_symmetry_multiplicity
  _atom_site_fract_x
  _atom_site_fract_y
  _atom_site_fract_z
  _atom_site_occupancy
  Cu  Cu1       1.0  0.81833  0.69762  0.84637  1.0000
  Cu  Cu2       1.0  0.18166  0.30238  0.15363  1.0000
  H   H1        1.0  0.09619  0.56273  0.86857  1.0000
  H   H2        1.0  0.90380  0.43726  0.13142  1.0000
  H   H3        1.0  0.25355  0.69553  0.85260  1.0000
  H   H4        1.0  0.74644  0.30447  0.14740  1.0000
  H   H5        1.0  0.00374  0.10770  0.93513  1.0000
  H   H6        1.0  0.99625  0.89230  0.06487  1.0000
  H   H7        1.0  0.05595  0.27760  0.93505  1.0000
  H   H8        1.0  0.94404  0.72240  0.06495  1.0000
  H   H9        1.0  0.87249  0.83207  0.65218  1.0000
  H   H10       1.0  0.12751  0.16793  0.34782  1.0000
  H   H11       1.0  0.70663  0.38226  0.37931  1.0000
  H   H12       1.0  0.29337  0.61773  0.62069  1.0000
  H   H13       1.0  0.65850  0.63778  0.32244  1.0000
  H   H14       1.0  0.34152  0.36223  0.67757  1.0000
  H   H15       1.0  0.92150  0.61890  0.33422  1.0000
  H   H16       1.0  0.07851  0.38110  0.66579  1.0000
  H   H17       1.0  0.23407  0.83314  0.48733  1.0000
  H   H18       1.0  0.76594  0.16686  0.51267  1.0000
  H   H19       1.0  0.60944  0.88955  0.41104  1.0000
  H   H20       1.0  0.39057  0.11045  0.58896  1.0000
  H   H21       1.0  0.38635  0.39671  0.91254  1.0000
  H   H22       1.0  0.61365  0.60329  0.08747  1.0000
  H   H23       1.0  0.24348  0.95346  0.89711  1.0000
  H   H24       1.0  0.75651  0.04654  0.10289  1.0000
  H   H25       1.0  0.78156  0.11271  0.78045  1.0000
  H   H26       1.0  0.21843  0.88728  0.21955  1.0000
  C   C1        1.0  0.82792  0.71077  0.60783  1.0000
  C   C2        1.0  0.17208  0.28923  0.39217  1.0000
  C   C3        1.0  0.74565  0.47919  0.46961  1.0000
  C   C4        1.0  0.25435  0.52082  0.53039  1.0000
  C   C5        1.0  0.81800  0.67515  0.38617  1.0000
  C   C6        1.0  0.18202  0.32485  0.61384  1.0000
  C   C7        1.0  0.91137  0.84291  0.44278  1.0000
  C   C8        1.0  0.08865  0.15709  0.55723  1.0000
  C   C9        1.0  0.13169  0.90664  0.49277  1.0000
  C   C10       1.0  0.86834  0.09336  0.50724  1.0000
  C   C11       1.0  0.78078  0.93791  0.45070  1.0000
  C   C12       1.0  0.21924  0.06210  0.54931  1.0000
  C   C13       1.0  0.74972  0.39350  0.83898  1.0000
  C   C14       1.0  0.25027  0.60649  0.16101  1.0000
  C   C15       1.0  0.59743  0.26629  0.84402  1.0000
  C   C16       1.0  0.40257  0.73371  0.15597  1.0000
  C   C17       1.0  0.42067  0.28941  0.88901  1.0000
  C   C18       1.0  0.57932  0.71059  0.11099  1.0000
  C   C19       1.0  0.29228  0.17718  0.90806  1.0000
  C   C20       1.0  0.70771  0.82281  0.09193  1.0000
  C   C21       1.0  0.34024  0.04070  0.88067  1.0000
  C   C22       1.0  0.65976  0.95930  0.11933  1.0000
  C   C23       1.0  0.51917  0.01890  0.83726  1.0000
  C   C24       1.0  0.48082  0.98110  0.16274  1.0000
  C   C25       1.0  0.64439  0.13003  0.81617  1.0000
  C   C26       1.0  0.35560  0.86997  0.18382  1.0000
  C   C27       1.0  0.58718  0.88319  0.82694  1.0000
  C   C28       1.0  0.41281  0.11681  0.17306  1.0000
  N   N1        1.0  0.79284  0.62290  0.66465  1.0000
  N   N2        1.0  0.20715  0.37710  0.33535  1.0000
  N   N3        1.0  0.74098  0.47564  0.57775  1.0000
  N   N4        1.0  0.25901  0.52436  0.42226  1.0000
  N   N5        1.0  0.79965  0.62416  0.48454  1.0000
  N   N6        1.0  0.20035  0.37585  0.51546  1.0000
  N   N7        1.0  0.12123  0.20569  0.96103  1.0000
  N   N8        1.0  0.87877  0.79431  0.03896  1.0000
  O   O1        1.0  0.67179  0.49878  0.83584  1.0000
  O   O2        1.0  0.32821  0.50122  0.16416  1.0000
  O   O3        1.0  0.94018  0.39007  0.84259  1.0000
  O   O4        1.0  0.05982  0.60993  0.15740  1.0000
  O   O5        1.0  0.79060  0.90103  0.85331  1.0000
  O   O6        1.0  0.20940  0.09897  0.14670  1.0000
  O   O7        1.0  0.45284  0.76064  0.79806  1.0000
  O   O8        1.0  0.54716  0.23936  0.20194  1.0000
  O   O9        1.0  0.14240  0.67244  0.89278  1.0000
  O   O10       1.0  0.85759  0.32756  0.10722  1.0000
