data_image0
_chemical_formula_structural       Zn2H20C28N6O8
_chemical_formula_sum              "Zn2 H20 C28 N6 O8"
_cell_length_a       6.77039
_cell_length_b       7.74647
_cell_length_c       13.2269
_cell_angle_alpha    73.4535
_cell_angle_beta     86.2108
_cell_angle_gamma    87.3731

_space_group_name_H-M_alt    "P 1"
_space_group_IT_number       1

loop_
  _space_group_symop_operation_xyz
  'x, y, z'

loop_
  _atom_site_type_symbol
  _atom_site_label
  _atom_site_symmetry_multiplicity
  _atom_site_fract_x
  _atom_site_fract_y
  _atom_site_fract_z
  _atom_site_occupancy
  Zn  Zn1       1.0  0.39516  0.39011  0.13833  1.0000
  Zn  Zn2       1.0  0.60485  0.60988  0.86166  1.0000
  H   H1        1.0  0.86159  0.45897  0.20033  1.0000
  H   H2        1.0  0.13841  0.54103  0.79967  1.0000
  H   H3        1.0  0.57267  0.91749  0.26392  1.0000
  H   H4        1.0  0.42731  0.08251  0.73608  1.0000
  H   H5        1.0  0.94903  0.88058  0.28671  1.0000
  H   H6        1.0  0.05097  0.11942  0.71329  1.0000
  H   H7        1.0  0.08560  0.72198  0.23416  1.0000
  H   H8        1.0  0.91439  0.27802  0.76584  1.0000
  H   H9        1.0  0.28038  0.53200  0.36588  1.0000
  H   H10       1.0  0.71960  0.46801  0.63412  1.0000
  H   H11       1.0  0.68385  0.67145  0.45411  1.0000
  H   H12       1.0  0.31614  0.32856  0.54590  1.0000
  H   H13       1.0  0.36154  0.93060  0.49417  1.0000
  H   H14       1.0  0.63848  0.06940  0.50583  1.0000
  H   H15       1.0  0.15296  0.78637  0.65428  1.0000
  H   H16       1.0  0.84706  0.21364  0.34572  1.0000
  H   H17       1.0  0.89066  0.70555  0.98625  1.0000
  H   H18       1.0  0.10934  0.29444  0.01375  1.0000
  H   H19       1.0  0.64084  0.94531  0.00094  1.0000
  H   H20       1.0  0.35916  0.05469  0.99906  1.0000
  C   C1        1.0  0.74641  0.55800  0.20797  1.0000
  C   C2        1.0  0.25358  0.44200  0.79203  1.0000
  C   C3        1.0  0.59848  0.79413  0.24021  1.0000
  C   C4        1.0  0.40150  0.20586  0.75978  1.0000
  C   C5        1.0  0.95889  0.73845  0.28713  1.0000
  C   C6        1.0  0.04110  0.26156  0.71287  1.0000
  C   C7        1.0  0.98044  0.61540  0.39757  1.0000
  C   C8        1.0  0.01954  0.38461  0.60243  1.0000
  C   C9        1.0  0.15790  0.51890  0.42496  1.0000
  C   C10       1.0  0.84209  0.48110  0.57504  1.0000
  C   C11       1.0  0.82272  0.59542  0.47351  1.0000
  C   C12       1.0  0.17727  0.40459  0.52649  1.0000
  C   C13       1.0  0.25072  0.17348  0.31568  1.0000
  C   C14       1.0  0.74929  0.82652  0.68432  1.0000
  C   C15       1.0  0.11885  0.08167  0.40924  1.0000
  C   C16       1.0  0.88116  0.91833  0.59077  1.0000
  C   C17       1.0  0.20291  0.96017  0.49682  1.0000
  C   C18       1.0  0.79710  0.03983  0.50319  1.0000
  C   C19       1.0  0.08564  0.87986  0.58684  1.0000
  C   C20       1.0  0.91437  0.12014  0.41316  1.0000
  C   C21       1.0  0.28456  0.72333  0.98009  1.0000
  C   C22       1.0  0.71544  0.27667  0.01990  1.0000
  C   C23       1.0  0.13849  0.86681  0.99066  1.0000
  C   C24       1.0  0.86152  0.13319  0.00934  1.0000
  C   C25       1.0  0.93627  0.83501  0.99233  1.0000
  C   C26       1.0  0.06374  0.16499  0.00767  1.0000
  C   C27       1.0  0.79774  0.96830  0.00159  1.0000
  C   C28       1.0  0.20227  0.03170  0.99841  1.0000
  N   N1        1.0  0.55887  0.56298  0.18395  1.0000
  N   N2        1.0  0.44113  0.43702  0.81604  1.0000
  N   N3        1.0  0.46402  0.71236  0.20402  1.0000
  N   N4        1.0  0.53597  0.28764  0.79598  1.0000
  N   N5        1.0  0.77643  0.70170  0.24392  1.0000
  N   N6        1.0  0.22356  0.29830  0.75608  1.0000
  O   O1        1.0  0.16718  0.28733  0.23638  1.0000
  O   O2        1.0  0.83283  0.71267  0.76362  1.0000
  O   O3        1.0  0.43487  0.14345  0.31586  1.0000
  O   O4        1.0  0.56513  0.85654  0.68414  1.0000
  O   O5        1.0  0.23942  0.55968  0.02338  1.0000
  O   O6        1.0  0.76058  0.44032  0.97662  1.0000
  O   O7        1.0  0.44567  0.77472  0.92582  1.0000
  O   O8        1.0  0.55433  0.22528  0.07418  1.0000
