data_image0
_chemical_formula_structural       Zn4H36C48N6O16
_chemical_formula_sum              "Zn4 H36 C48 N6 O16"
_cell_length_a       9.67344
_cell_length_b       10.8969
_cell_length_c       12.077
_cell_angle_alpha    83.792
_cell_angle_beta     79.0916
_cell_angle_gamma    72.6511

_space_group_name_H-M_alt    "P 1"
_space_group_IT_number       1

loop_
  _space_group_symop_operation_xyz
  'x, y, z'

loop_
  _atom_site_type_symbol
  _atom_site_label
  _atom_site_symmetry_multiplicity
  _atom_site_fract_x
  _atom_site_fract_y
  _atom_site_fract_z
  _atom_site_occupancy
  Zn  Zn1       1.0  0.09716  0.13176  0.37556  1.0000
  Zn  Zn2       1.0  0.90284  0.86824  0.62444  1.0000
  Zn  Zn3       1.0  0.39195  0.06618  0.16429  1.0000
  Zn  Zn4       1.0  0.60805  0.93382  0.83570  1.0000
  H   H1        1.0  0.22266  0.92152  0.58817  1.0000
  H   H2        1.0  0.77734  0.07848  0.41183  1.0000
  H   H3        1.0  0.61968  0.84872  0.35270  1.0000
  H   H4        1.0  0.38032  0.15128  0.64730  1.0000
  H   H5        1.0  0.46644  0.76214  0.65583  1.0000
  H   H6        1.0  0.53356  0.23786  0.34417  1.0000
  H   H7        1.0  0.63252  0.74320  0.55814  1.0000
  H   H8        1.0  0.36748  0.25680  0.44186  1.0000
  H   H9        1.0  0.72774  0.56832  0.43809  1.0000
  H   H10       1.0  0.27226  0.43168  0.56191  1.0000
  H   H11       1.0  0.28649  0.63775  0.62261  1.0000
  H   H12       1.0  0.71351  0.36225  0.37739  1.0000
  H   H13       1.0  0.44530  0.43395  0.15371  1.0000
  H   H14       1.0  0.55470  0.56605  0.84629  1.0000
  H   H15       1.0  0.26694  0.78221  0.33264  1.0000
  H   H16       1.0  0.73306  0.21779  0.66736  1.0000
  H   H17       1.0  0.02291  0.50538  0.36696  1.0000
  H   H18       1.0  0.97709  0.49462  0.63304  1.0000
  H   H19       1.0  0.59372  0.61773  0.22710  1.0000
  H   H20       1.0  0.40628  0.38227  0.77290  1.0000
  H   H21       1.0  0.47729  0.76518  0.17827  1.0000
  H   H22       1.0  0.52271  0.23482  0.82173  1.0000
  H   H23       1.0  0.54141  0.63161  0.09246  1.0000
  H   H24       1.0  0.45859  0.36839  0.90754  1.0000
  H   H25       1.0  0.26231  0.80021  0.04495  1.0000
  H   H26       1.0  0.73769  0.19979  0.95505  1.0000
  H   H27       1.0  0.89052  0.72856  0.94365  1.0000
  H   H28       1.0  0.10948  0.27144  0.05635  1.0000
  H   H29       1.0  0.82414  0.00149  0.19356  1.0000
  H   H30       1.0  0.17586  0.99851  0.80644  1.0000
  H   H31       1.0  0.23663  0.55863  0.95704  1.0000
  H   H32       1.0  0.76337  0.44137  0.04296  1.0000
  H   H33       1.0  0.28558  0.68236  0.86517  1.0000
  H   H34       1.0  0.71442  0.31763  0.13483  1.0000
  H   H35       1.0  0.13504  0.62809  0.84644  1.0000
  H   H36       1.0  0.86496  0.37191  0.15356  1.0000
  C   C1        1.0  0.30316  0.92626  0.51300  1.0000
  C   C2        1.0  0.69684  0.07374  0.48700  1.0000
  C   C3        1.0  0.50628  0.88973  0.39114  1.0000
  C   C4        1.0  0.49372  0.11027  0.60886  1.0000
  C   C5        1.0  0.51769  0.74257  0.56808  1.0000
  C   C6        1.0  0.48231  0.25743  0.43192  1.0000
  C   C7        1.0  0.50835  0.61622  0.53417  1.0000
  C   C8        1.0  0.49165  0.38378  0.46583  1.0000
  C   C9        1.0  0.62767  0.53840  0.46446  1.0000
  C   C10       1.0  0.37233  0.46160  0.53554  1.0000
  C   C11       1.0  0.38079  0.57716  0.56940  1.0000
  C   C12       1.0  0.61921  0.42284  0.43060  1.0000
  C   C13       1.0  0.23583  0.32135  0.24808  1.0000
  C   C14       1.0  0.76417  0.67865  0.75192  1.0000
  C   C15       1.0  0.23490  0.45627  0.25940  1.0000
  C   C16       1.0  0.76510  0.54373  0.74060  1.0000
  C   C17       1.0  0.35769  0.49764  0.20960  1.0000
  C   C18       1.0  0.64231  0.50235  0.79040  1.0000
  C   C19       1.0  0.37011  0.61648  0.23276  1.0000
  C   C20       1.0  0.62989  0.38352  0.76724  1.0000
  C   C21       1.0  0.25782  0.69151  0.30950  1.0000
  C   C22       1.0  0.74218  0.30849  0.69050  1.0000
  C   C23       1.0  0.13148  0.65419  0.35590  1.0000
  C   C24       1.0  0.86852  0.34581  0.64410  1.0000
  C   C25       1.0  0.11892  0.53684  0.32926  1.0000
  C   C26       1.0  0.88108  0.46316  0.67075  1.0000
  C   C27       1.0  0.50221  0.66026  0.17987  1.0000
  C   C28       1.0  0.49779  0.33974  0.82013  1.0000
  C   C29       1.0  0.01324  0.73436  0.43932  1.0000
  C   C30       1.0  0.98676  0.26564  0.56068  1.0000
  C   C31       1.0  0.10955  0.97774  0.19571  1.0000
  C   C32       1.0  0.89045  0.02226  0.80429  1.0000
  C   C33       1.0  0.04968  0.90488  0.12853  1.0000
  C   C34       1.0  0.95033  0.09512  0.87147  1.0000
  C   C35       1.0  0.14434  0.81561  0.05282  1.0000
  C   C36       1.0  0.85566  0.18439  0.94718  1.0000
  C   C37       1.0  0.08935  0.74817  0.98762  1.0000
  C   C38       1.0  0.91065  0.25183  0.01238  1.0000
  C   C39       1.0  0.93685  0.77602  0.99624  1.0000
  C   C40       1.0  0.06315  0.22398  0.00377  1.0000
  C   C41       1.0  0.84161  0.86752  0.06946  1.0000
  C   C42       1.0  0.15839  0.13248  0.93054  1.0000
  C   C43       1.0  0.89836  0.92977  0.13744  1.0000
  C   C44       1.0  0.10164  0.07023  0.86256  1.0000
  C   C45       1.0  0.67985  0.90678  0.07133  1.0000
  C   C46       1.0  0.32015  0.09322  0.92867  1.0000
  C   C47       1.0  0.19171  0.64936  0.90944  1.0000
  C   C48       1.0  0.80829  0.35064  0.09056  1.0000
  N   N1        1.0  0.27980  0.00560  0.42299  1.0000
  N   N2        1.0  0.72020  0.99440  0.57701  1.0000
  N   N3        1.0  0.40732  0.98289  0.34624  1.0000
  N   N4        1.0  0.59268  0.01711  0.65375  1.0000
  N   N5        1.0  0.44506  0.85186  0.49577  1.0000
  N   N6        1.0  0.55494  0.14814  0.50423  1.0000
  O   O1        1.0  0.11704  0.28976  0.28267  1.0000
  O   O2        1.0  0.88296  0.71024  0.71733  1.0000
  O   O3        1.0  0.35889  0.24397  0.20865  1.0000
  O   O4        1.0  0.64111  0.75603  0.79135  1.0000
  O   O5        1.0  0.05764  0.80592  0.49737  1.0000
  O   O6        1.0  0.94236  0.19408  0.50263  1.0000
  O   O7        1.0  0.88391  0.72812  0.45314  1.0000
  O   O8        1.0  0.11609  0.27188  0.54686  1.0000
  O   O9        1.0  0.24548  0.96973  0.16900  1.0000
  O   O10       1.0  0.75452  0.03027  0.83100  1.0000
  O   O11       1.0  0.02121  0.04216  0.27644  1.0000
  O   O12       1.0  0.97879  0.95784  0.72356  1.0000
  O   O13       1.0  0.60368  0.98195  0.14937  1.0000
  O   O14       1.0  0.39632  0.01805  0.85063  1.0000
  O   O15       1.0  0.62555  0.86600  0.00016  1.0000
  O   O16       1.0  0.37445  0.13400  0.99984  1.0000
