data_image0
_chemical_formula_structural       Cu2H10C10I2N4
_chemical_formula_sum              "Cu2 H10 C10 I2 N4"
_cell_length_a       4.12397
_cell_length_b       7.66396
_cell_length_c       10.6495
_cell_angle_alpha    88.0218
_cell_angle_beta     87.8372
_cell_angle_gamma    79.2602

_space_group_name_H-M_alt    "P 1"
_space_group_IT_number       1

loop_
  _space_group_symop_operation_xyz
  'x, y, z'

loop_
  _atom_site_type_symbol
  _atom_site_label
  _atom_site_symmetry_multiplicity
  _atom_site_fract_x
  _atom_site_fract_y
  _atom_site_fract_z
  _atom_site_occupancy
  Cu  Cu1       1.0  0.30590  0.12359  0.93932  1.0000
  Cu  Cu2       1.0  0.69408  0.87640  0.06068  1.0000
  H   H1        1.0  0.49759  0.06306  0.34820  1.0000
  H   H2        1.0  0.50239  0.93694  0.65180  1.0000
  H   H3        1.0  0.23655  0.96749  0.25425  1.0000
  H   H4        1.0  0.76345  0.03251  0.74577  1.0000
  H   H5        1.0  0.21738  0.94047  0.42324  1.0000
  H   H6        1.0  0.78263  0.05951  0.57678  1.0000
  H   H7        1.0  0.71166  0.63835  0.67780  1.0000
  H   H8        1.0  0.28838  0.36165  0.32220  1.0000
  H   H9        1.0  0.87549  0.45543  0.87340  1.0000
  H   H10       1.0  0.12447  0.54456  0.12661  1.0000
  C   C1        1.0  0.63780  0.78221  0.33460  1.0000
  C   C2        1.0  0.36219  0.21780  0.66539  1.0000
  C   C3        1.0  0.37970  0.94656  0.34006  1.0000
  C   C4        1.0  0.62030  0.05345  0.65993  1.0000
  C   C5        1.0  0.95409  0.54600  0.43949  1.0000
  C   C6        1.0  0.04595  0.45401  0.56052  1.0000
  C   C7        1.0  0.89660  0.51733  0.67412  1.0000
  C   C8        1.0  0.10340  0.48268  0.32588  1.0000
  C   C9        1.0  0.98946  0.41730  0.78190  1.0000
  C   C10       1.0  0.01056  0.58269  0.21808  1.0000
  I   I1        1.0  0.73561  0.21663  0.08285  1.0000
  I   I2        1.0  0.26436  0.78337  0.91714  1.0000
  N   N1        1.0  0.78140  0.73374  0.22036  1.0000
  N   N2        1.0  0.21859  0.26626  0.77964  1.0000
  N   N3        1.0  0.71954  0.69437  0.44264  1.0000
  N   N4        1.0  0.28049  0.30563  0.55736  1.0000
