data_image0
_chemical_formula_structural       CuH10C10N6O6
_chemical_formula_sum              "Cu1 H10 C10 N6 O6"
_cell_length_a       5.84355
_cell_length_b       7.5672
_cell_length_c       8.86849
_cell_angle_alpha    82.655
_cell_angle_beta     80.8396
_cell_angle_gamma    69.0787

_space_group_name_H-M_alt    "P 1"
_space_group_IT_number       1

loop_
  _space_group_symop_operation_xyz
  'x, y, z'

loop_
  _atom_site_type_symbol
  _atom_site_label
  _atom_site_symmetry_multiplicity
  _atom_site_fract_x
  _atom_site_fract_y
  _atom_site_fract_z
  _atom_site_occupancy
  Cu  Cu1       1.0  0.50000  0.50000  0.50000  1.0000
  H   H1        1.0  0.17047  0.51572  0.29567  1.0000
  H   H2        1.0  0.82952  0.48431  0.70432  1.0000
  H   H3        1.0  0.41033  0.40115  0.15481  1.0000
  H   H4        1.0  0.58965  0.59886  0.84519  1.0000
  H   H5        1.0  0.14460  0.58836  0.09642  1.0000
  H   H6        1.0  0.85539  0.41166  0.90357  1.0000
  H   H7        1.0  0.73478  0.02504  0.18735  1.0000
  H   H8        1.0  0.26524  0.97495  0.81264  1.0000
  H   H9        1.0  0.71705  0.78846  0.41168  1.0000
  H   H10       1.0  0.28296  0.21153  0.58832  1.0000
  C   C1        1.0  0.39452  0.67962  0.18737  1.0000
  C   C2        1.0  0.60548  0.32040  0.81263  1.0000
  C   C3        1.0  0.27103  0.53882  0.18393  1.0000
  C   C4        1.0  0.72896  0.46118  0.81608  1.0000
  C   C5        1.0  0.50759  0.92963  0.06703  1.0000
  C   C6        1.0  0.49241  0.07036  0.93297  1.0000
  C   C7        1.0  0.63623  0.92749  0.18743  1.0000
  C   C8        1.0  0.36378  0.07251  0.81256  1.0000
  C   C9        1.0  0.62741  0.79667  0.31075  1.0000
  C   C10       1.0  0.37259  0.20332  0.68924  1.0000
  N   N1        1.0  0.50790  0.67375  0.31141  1.0000
  N   N2        1.0  0.49209  0.32625  0.68859  1.0000
  N   N3        1.0  0.39098  0.80517  0.06696  1.0000
  N   N4        1.0  0.60903  0.19483  0.93304  1.0000
  N   N5        1.0  0.09940  0.78120  0.61671  1.0000
  N   N6        1.0  0.90059  0.21879  0.38329  1.0000
  O   O1        1.0  0.33816  0.73066  0.62146  1.0000
  O   O2        1.0  0.66184  0.26934  0.37855  1.0000
  O   O3        1.0  0.02650  0.67916  0.54818  1.0000
  O   O4        1.0  0.97350  0.32082  0.45185  1.0000
  O   O5        1.0  0.03894  0.07548  0.31978  1.0000
  O   O6        1.0  0.96106  0.92452  0.68022  1.0000
