data_image0
_chemical_formula_structural       Cu4H40C40I4N16
_chemical_formula_sum              "Cu4 H40 C40 I4 N16"
_cell_length_a       3.94855
_cell_length_b       16.5208
_cell_length_c       17.6327
_cell_angle_alpha    89.2712
_cell_angle_beta     83.8901
_cell_angle_gamma    83.1366

_space_group_name_H-M_alt    "P 1"
_space_group_IT_number       1

loop_
  _space_group_symop_operation_xyz
  'x, y, z'

loop_
  _atom_site_type_symbol
  _atom_site_label
  _atom_site_symmetry_multiplicity
  _atom_site_fract_x
  _atom_site_fract_y
  _atom_site_fract_z
  _atom_site_occupancy
  Cu  Cu1       1.0  0.43978  0.97498  0.78674  1.0000
  Cu  Cu2       1.0  0.20153  0.02508  0.21315  1.0000
  Cu  Cu3       1.0  0.16396  0.52514  0.28664  1.0000
  Cu  Cu4       1.0  0.97656  0.47488  0.71318  1.0000
  H   H1        1.0  0.05603  0.69223  0.75462  1.0000
  H   H2        1.0  0.50279  0.30790  0.24590  1.0000
  H   H3        1.0  0.49760  0.80788  0.25463  1.0000
  H   H4        1.0  0.55979  0.19195  0.74583  1.0000
  H   H5        1.0  0.10683  0.66844  0.89400  1.0000
  H   H6        1.0  0.66938  0.33130  0.10678  1.0000
  H   H7        1.0  0.52504  0.83148  0.39401  1.0000
  H   H8        1.0  0.74999  0.16865  0.60672  1.0000
  H   H9        1.0  0.24083  0.87129  0.99995  1.0000
  H   H10       1.0  0.11146  0.12839  0.99969  1.0000
  H   H11       1.0  0.86165  0.62861  0.49986  1.0000
  H   H12       1.0  0.98902  0.37163  0.49966  1.0000
  H   H13       1.0  0.32141  0.95616  0.93989  1.0000
  H   H14       1.0  0.21796  0.04350  0.05986  1.0000
  H   H15       1.0  0.02687  0.54379  0.43971  1.0000
  H   H16       1.0  0.01082  0.45645  0.55991  1.0000
  H   H17       1.0  0.62027  0.91631  0.00497  1.0000
  H   H18       1.0  0.54067  0.08343  0.99532  1.0000
  H   H19       1.0  0.28614  0.58359  0.50478  1.0000
  H   H20       1.0  0.37343  0.41656  0.49534  1.0000
  H   H21       1.0  0.88090  0.71617  0.64307  1.0000
  H   H22       1.0  0.24203  0.28396  0.35718  1.0000
  H   H23       1.0  0.34694  0.78393  0.14295  1.0000
  H   H24       1.0  0.27652  0.21598  0.85716  1.0000
  H   H25       1.0  0.73822  0.76960  0.51520  1.0000
  H   H26       1.0  0.02570  0.23063  0.48475  1.0000
  H   H27       1.0  0.26046  0.73027  0.01498  1.0000
  H   H28       1.0  0.00845  0.26942  0.98480  1.0000
  H   H29       1.0  0.43668  0.04460  0.55176  1.0000
  H   H30       1.0  0.03444  0.95578  0.44796  1.0000
  H   H31       1.0  0.23146  0.45539  0.05188  1.0000
  H   H32       1.0  0.74037  0.54411  0.94812  1.0000
  H   H33       1.0  0.35741  0.05779  0.65403  1.0000
  H   H34       1.0  0.06682  0.94246  0.34572  1.0000
  H   H35       1.0  0.16439  0.44239  0.15414  1.0000
  H   H36       1.0  0.76020  0.55757  0.84588  1.0000
  H   H37       1.0  0.04782  0.02160  0.60130  1.0000
  H   H38       1.0  0.67064  0.97895  0.39815  1.0000
  H   H39       1.0  0.81926  0.47848  0.10118  1.0000
  H   H40       1.0  0.40024  0.52101  0.89810  1.0000
  C   C1        1.0  0.61956  0.84336  0.90554  1.0000
  C   C2        1.0  0.36883  0.15638  0.09461  1.0000
  C   C3        1.0  0.21208  0.65666  0.40545  1.0000
  C   C4        1.0  0.27447  0.34353  0.59459  1.0000
  C   C5        1.0  0.73579  0.80844  0.77730  1.0000
  C   C6        1.0  0.32159  0.19161  0.22287  1.0000
  C   C7        1.0  0.29281  0.69173  0.27725  1.0000
  C   C8        1.0  0.26279  0.30830  0.72286  1.0000
  C   C9        1.0  0.92784  0.73624  0.79700  1.0000
  C   C10       1.0  0.46119  0.26374  0.20343  1.0000
  C   C11       1.0  0.41329  0.76384  0.29698  1.0000
  C   C12       1.0  0.47417  0.23613  0.70337  1.0000
  C   C13       1.0  0.95606  0.72294  0.87423  1.0000
  C   C14       1.0  0.55368  0.27681  0.12633  1.0000
  C   C15       1.0  0.42851  0.77703  0.37421  1.0000
  C   C16       1.0  0.57957  0.22308  0.62627  1.0000
  C   C17       1.0  0.44084  0.90069  0.96552  1.0000
  C   C18       1.0  0.30694  0.09900  0.03444  1.0000
  C   C19       1.0  0.09095  0.59925  0.46537  1.0000
  C   C20       1.0  0.15522  0.40096  0.53443  1.0000
  C   C21       1.0  0.47795  0.93386  0.61652  1.0000
  C   C22       1.0  0.02854  0.06645  0.38318  1.0000
  C   C23       1.0  0.16168  0.56624  0.11646  1.0000
  C   C24       1.0  0.84587  0.43354  0.88322  1.0000
  C   C25       1.0  0.68276  0.83195  0.69817  1.0000
  C   C26       1.0  0.21338  0.16821  0.30187  1.0000
  C   C27       1.0  0.26368  0.66824  0.19810  1.0000
  C   C28       1.0  0.13168  0.33172  0.80188  1.0000
  C   C29       1.0  0.76577  0.77879  0.63641  1.0000
  C   C30       1.0  0.18216  0.22141  0.36367  1.0000
  C   C31       1.0  0.29420  0.72134  0.13632  1.0000
  C   C32       1.0  0.15420  0.27853  0.86366  1.0000
  C   C33       1.0  0.68747  0.80859  0.56540  1.0000
  C   C34       1.0  0.06283  0.19170  0.43449  1.0000
  C   C35       1.0  0.24705  0.69141  0.06526  1.0000
  C   C36       1.0  0.00603  0.30831  0.93451  1.0000
  C   C37       1.0  0.32455  0.01978  0.60541  1.0000
  C   C38       1.0  0.94950  0.98059  0.39423  1.0000
  C   C39       1.0  0.09404  0.48030  0.10542  1.0000
  C   C40       1.0  0.68075  0.51938  0.89430  1.0000
  I   I1        1.0  0.88274  0.06450  0.82575  1.0000
  I   I2        1.0  0.77095  0.93540  0.17445  1.0000
  I   I3        1.0  0.69643  0.43565  0.32569  1.0000
  I   I4        1.0  0.45653  0.56459  0.67442  1.0000
  N   N1        1.0  0.80196  0.77532  0.92842  1.0000
  N   N2        1.0  0.50655  0.22430  0.07199  1.0000
  N   N3        1.0  0.32678  0.72464  0.42837  1.0000
  N   N4        1.0  0.48004  0.27562  0.57194  1.0000
  N   N5        1.0  0.58450  0.86243  0.83171  1.0000
  N   N6        1.0  0.27857  0.13751  0.16832  1.0000
  N   N7        1.0  0.19559  0.63771  0.33163  1.0000
  N   N8        1.0  0.16572  0.36241  0.66832  1.0000
  N   N9        1.0  0.54354  0.88523  0.55505  1.0000
  N   N10       1.0  0.98456  0.11513  0.44463  1.0000
  N   N11       1.0  0.17977  0.61476  0.05492  1.0000
  N   N12       1.0  0.85121  0.38488  0.94469  1.0000
  N   N13       1.0  0.54006  0.91004  0.68809  1.0000
  N   N14       1.0  0.13855  0.09014  0.31181  1.0000
  N   N15       1.0  0.19915  0.59014  0.18803  1.0000
  N   N16       1.0  0.97886  0.40981  0.81181  1.0000
