data_image0
_chemical_formula_structural       Ag4H40C40N20O12
_chemical_formula_sum              "Ag4 H40 C40 N20 O12"
_cell_length_a       3.82699
_cell_length_b       15.2367
_cell_length_c       19.739
_cell_angle_alpha    90
_cell_angle_beta     90
_cell_angle_gamma    90

_space_group_name_H-M_alt    "P 1"
_space_group_IT_number       1

loop_
  _space_group_symop_operation_xyz
  'x, y, z'

loop_
  _atom_site_type_symbol
  _atom_site_label
  _atom_site_symmetry_multiplicity
  _atom_site_fract_x
  _atom_site_fract_y
  _atom_site_fract_z
  _atom_site_occupancy
  Ag  Ag1       1.0  0.00000  0.36971  0.75000  1.0000
  Ag  Ag2       1.0  0.50000  0.13029  0.25000  1.0000
  Ag  Ag3       1.0  0.00000  0.63029  0.25000  1.0000
  Ag  Ag4       1.0  0.50000  0.86971  0.75000  1.0000
  H   H1        1.0  0.86522  0.73249  0.36483  1.0000
  H   H2        1.0  0.63477  0.76751  0.86483  1.0000
  H   H3        1.0  0.13478  0.73249  0.13517  1.0000
  H   H4        1.0  0.36522  0.76751  0.63517  1.0000
  H   H5        1.0  0.13478  0.26751  0.63517  1.0000
  H   H6        1.0  0.36523  0.23249  0.13517  1.0000
  H   H7        1.0  0.86522  0.26751  0.86483  1.0000
  H   H8        1.0  0.63478  0.23249  0.36483  1.0000
  H   H9        1.0  0.95548  0.74206  0.45418  1.0000
  H   H10       1.0  0.54452  0.75794  0.95417  1.0000
  H   H11       1.0  0.04452  0.74206  0.04583  1.0000
  H   H12       1.0  0.45548  0.75794  0.54582  1.0000
  H   H13       1.0  0.04452  0.25794  0.54582  1.0000
  H   H14       1.0  0.45548  0.24206  0.04582  1.0000
  H   H15       1.0  0.95548  0.25794  0.95418  1.0000
  H   H16       1.0  0.54452  0.24206  0.45418  1.0000
  H   H17       1.0  0.27910  0.76733  0.39267  1.0000
  H   H18       1.0  0.22089  0.73267  0.89267  1.0000
  H   H19       1.0  0.72090  0.76733  0.10733  1.0000
  H   H20       1.0  0.77911  0.73267  0.60733  1.0000
  H   H21       1.0  0.72089  0.23267  0.60733  1.0000
  H   H22       1.0  0.77911  0.26733  0.10733  1.0000
  H   H23       1.0  0.27911  0.23267  0.89267  1.0000
  H   H24       1.0  0.22089  0.26733  0.39267  1.0000
  H   H25       1.0  0.34766  0.46740  0.30136  1.0000
  H   H26       1.0  0.15234  0.03260  0.80136  1.0000
  H   H27       1.0  0.65233  0.46740  0.19864  1.0000
  H   H28       1.0  0.84767  0.03259  0.69864  1.0000
  H   H29       1.0  0.65234  0.53260  0.69864  1.0000
  H   H30       1.0  0.84767  0.96740  0.19864  1.0000
  H   H31       1.0  0.34767  0.53259  0.80136  1.0000
  H   H32       1.0  0.15233  0.96741  0.30136  1.0000
  H   H33       1.0  0.59016  0.40229  0.40830  1.0000
  H   H34       1.0  0.90984  0.09771  0.90830  1.0000
  H   H35       1.0  0.40984  0.40229  0.09170  1.0000
  H   H36       1.0  0.09016  0.09771  0.59170  1.0000
  H   H37       1.0  0.40984  0.59771  0.59170  1.0000
  H   H38       1.0  0.09016  0.90229  0.09170  1.0000
  H   H39       1.0  0.59015  0.59771  0.90830  1.0000
  H   H40       1.0  0.90983  0.90229  0.40830  1.0000
  C   C1        1.0  0.19264  0.63076  0.40661  1.0000
  C   C2        1.0  0.30734  0.86924  0.90661  1.0000
  C   C3        1.0  0.80734  0.63076  0.09339  1.0000
  C   C4        1.0  0.69265  0.86924  0.59339  1.0000
  C   C5        1.0  0.80735  0.36924  0.59339  1.0000
  C   C6        1.0  0.69265  0.13076  0.09339  1.0000
  C   C7        1.0  0.19265  0.36924  0.90661  1.0000
  C   C8        1.0  0.30735  0.13076  0.40661  1.0000
  C   C9        1.0  0.44109  0.51717  0.46676  1.0000
  C   C10       1.0  0.05891  0.98283  0.96676  1.0000
  C   C11       1.0  0.55891  0.51717  0.03324  1.0000
  C   C12       1.0  0.94109  0.98283  0.53324  1.0000
  C   C13       1.0  0.55891  0.48283  0.53324  1.0000
  C   C14       1.0  0.94109  0.01717  0.03324  1.0000
  C   C15       1.0  0.44108  0.48283  0.96676  1.0000
  C   C16       1.0  0.05891  0.01717  0.46676  1.0000
  C   C17       1.0  0.06077  0.72283  0.40475  1.0000
  C   C18       1.0  0.43922  0.77717  0.90475  1.0000
  C   C19       1.0  0.93923  0.72283  0.09525  1.0000
  C   C20       1.0  0.56077  0.77717  0.59525  1.0000
  C   C21       1.0  0.93923  0.27717  0.59525  1.0000
  C   C22       1.0  0.56078  0.22283  0.09525  1.0000
  C   C23       1.0  0.06077  0.27717  0.90475  1.0000
  C   C24       1.0  0.43923  0.22283  0.40475  1.0000
  C   C25       1.0  0.34275  0.50370  0.34879  1.0000
  C   C26       1.0  0.15725  0.99630  0.84879  1.0000
  C   C27       1.0  0.65725  0.50370  0.15121  1.0000
  C   C28       1.0  0.84276  0.99630  0.65121  1.0000
  C   C29       1.0  0.65726  0.49630  0.65121  1.0000
  C   C30       1.0  0.84275  0.00370  0.15121  1.0000
  C   C31       1.0  0.34275  0.49630  0.84879  1.0000
  C   C32       1.0  0.15725  0.00370  0.34879  1.0000
  C   C33       1.0  0.47206  0.46701  0.40801  1.0000
  C   C34       1.0  0.02794  0.03299  0.90801  1.0000
  C   C35       1.0  0.52793  0.46701  0.09199  1.0000
  C   C36       1.0  0.97206  0.03299  0.59199  1.0000
  C   C37       1.0  0.52794  0.53299  0.59199  1.0000
  C   C38       1.0  0.97207  0.96701  0.09199  1.0000
  C   C39       1.0  0.47206  0.53299  0.90801  1.0000
  C   C40       1.0  0.02793  0.96701  0.40801  1.0000
  N   N1        1.0  0.30351  0.59868  0.46589  1.0000
  N   N2        1.0  0.19648  0.90132  0.96589  1.0000
  N   N3        1.0  0.69648  0.59868  0.03411  1.0000
  N   N4        1.0  0.80352  0.90132  0.53411  1.0000
  N   N5        1.0  0.69648  0.40132  0.53411  1.0000
  N   N6        1.0  0.80352  0.09868  0.03411  1.0000
  N   N7        1.0  0.30352  0.40132  0.96589  1.0000
  N   N8        1.0  0.19649  0.09868  0.46589  1.0000
  N   N9        1.0  0.20175  0.58474  0.34762  1.0000
  N   N10       1.0  0.29824  0.91526  0.84762  1.0000
  N   N11       1.0  0.79824  0.58474  0.15238  1.0000
  N   N12       1.0  0.70176  0.91526  0.65238  1.0000
  N   N13       1.0  0.79825  0.41526  0.65238  1.0000
  N   N14       1.0  0.70176  0.08474  0.15238  1.0000
  N   N15       1.0  0.20175  0.41526  0.84762  1.0000
  N   N16       1.0  0.29824  0.08474  0.34762  1.0000
  N   N17       1.0  0.50000  0.17787  0.75000  1.0000
  N   N18       1.0  0.00000  0.32213  0.25000  1.0000
  N   N19       1.0  0.50000  0.82213  0.25000  1.0000
  N   N20       1.0  1.00000  0.67787  0.75000  1.0000
  O   O1        1.0  0.33890  0.13740  0.70396  1.0000
  O   O2        1.0  0.16110  0.36260  0.20396  1.0000
  O   O3        1.0  0.66110  0.13740  0.79604  1.0000
  O   O4        1.0  0.83890  0.36260  0.29604  1.0000
  O   O5        1.0  0.66109  0.86260  0.29604  1.0000
  O   O6        1.0  0.83891  0.63740  0.79604  1.0000
  O   O7        1.0  0.33891  0.86260  0.20396  1.0000
  O   O8        1.0  0.16108  0.63740  0.70395  1.0000
  O   O9        1.0  0.50000  0.26247  0.75000  1.0000
  O   O10       1.0  0.00000  0.23753  0.25000  1.0000
  O   O11       1.0  0.50000  0.73753  0.25000  1.0000
  O   O12       1.0  0.00000  0.76247  0.75000  1.0000
