data_image0
_chemical_formula_structural       Zn4H48C64N8O24
_chemical_formula_sum              "Zn4 H48 C64 N8 O24"
_cell_length_a       6.95133
_cell_length_b       14.9691
_cell_length_c       16.1364
_cell_angle_alpha    107.392
_cell_angle_beta     90
_cell_angle_gamma    90

_space_group_name_H-M_alt    "P 1"
_space_group_IT_number       1

loop_
  _space_group_symop_operation_xyz
  'x, y, z'

loop_
  _atom_site_type_symbol
  _atom_site_label
  _atom_site_symmetry_multiplicity
  _atom_site_fract_x
  _atom_site_fract_y
  _atom_site_fract_z
  _atom_site_occupancy
  Zn  Zn1       1.0  0.73393  0.96594  0.67973  1.0000
  Zn  Zn2       1.0  0.23394  0.53405  0.82027  1.0000
  Zn  Zn3       1.0  0.26606  0.03405  0.32027  1.0000
  Zn  Zn4       1.0  0.76607  0.46594  0.17973  1.0000
  H   H1        1.0  0.21758  0.11953  0.15574  1.0000
  H   H2        1.0  0.71758  0.38048  0.34426  1.0000
  H   H3        1.0  0.78243  0.88048  0.84426  1.0000
  H   H4        1.0  0.28242  0.61953  0.65574  1.0000
  H   H5        1.0  0.85554  0.16712  0.69250  1.0000
  H   H6        1.0  0.35556  0.33287  0.80750  1.0000
  H   H7        1.0  0.14443  0.83288  0.30751  1.0000
  H   H8        1.0  0.64445  0.66712  0.19250  1.0000
  H   H9        1.0  0.90032  0.25979  0.58948  1.0000
  H   H10       1.0  0.40033  0.24020  0.91052  1.0000
  H   H11       1.0  0.09964  0.74021  0.41053  1.0000
  H   H12       1.0  0.59968  0.75980  0.08948  1.0000
  H   H13       1.0  0.83345  0.17989  0.42887  1.0000
  H   H14       1.0  0.33345  0.32011  0.07114  1.0000
  H   H15       1.0  0.16653  0.82011  0.57114  1.0000
  H   H16       1.0  0.66655  0.67989  0.92886  1.0000
  H   H17       1.0  0.74116  0.01210  0.38179  1.0000
  H   H18       1.0  0.24116  0.48790  0.11821  1.0000
  H   H19       1.0  0.25884  0.98790  0.61822  1.0000
  H   H20       1.0  0.75884  0.51210  0.88179  1.0000
  H   H21       1.0  0.65518  0.87239  0.35321  1.0000
  H   H22       1.0  0.15519  0.62760  0.14679  1.0000
  H   H23       1.0  0.34481  0.12761  0.64679  1.0000
  H   H24       1.0  0.84483  0.37240  0.85321  1.0000
  H   H25       1.0  0.57745  0.70305  0.33065  1.0000
  H   H26       1.0  0.07746  0.79695  0.16935  1.0000
  H   H27       1.0  0.42253  0.29696  0.66934  1.0000
  H   H28       1.0  0.92254  0.20305  0.83065  1.0000
  H   H29       1.0  0.58494  0.64037  0.45702  1.0000
  H   H30       1.0  0.08496  0.85962  0.04297  1.0000
  H   H31       1.0  0.41504  0.35962  0.54297  1.0000
  H   H32       1.0  0.91505  0.14037  0.95703  1.0000
  H   H33       1.0  0.65693  0.75017  0.60467  1.0000
  H   H34       1.0  0.15695  0.74982  0.89533  1.0000
  H   H35       1.0  0.34305  0.24982  0.39532  1.0000
  H   H36       1.0  0.84306  0.25017  0.10467  1.0000
  H   H37       1.0  0.47358  0.13197  0.97180  1.0000
  H   H38       1.0  0.97357  0.36804  0.52820  1.0000
  H   H39       1.0  0.52643  0.86804  0.02820  1.0000
  H   H40       1.0  0.02643  0.63197  0.47180  1.0000
  H   H41       1.0  0.10971  0.93954  0.89828  1.0000
  H   H42       1.0  0.60972  0.56047  0.60172  1.0000
  H   H43       1.0  0.89028  0.06047  0.10172  1.0000
  H   H44       1.0  0.39029  0.43954  0.39827  1.0000
  H   H45       1.0  0.25633  0.88814  0.80640  1.0000
  H   H46       1.0  0.75633  0.61187  0.69361  1.0000
  H   H47       1.0  0.74367  0.11187  0.19361  1.0000
  H   H48       1.0  0.24367  0.38813  0.30639  1.0000
  C   C1        1.0  0.83123  0.13592  0.62319  1.0000
  C   C2        1.0  0.33123  0.36407  0.87681  1.0000
  C   C3        1.0  0.16876  0.86407  0.37682  1.0000
  C   C4        1.0  0.66877  0.63593  0.12319  1.0000
  C   C5        1.0  0.85419  0.18695  0.56454  1.0000
  C   C6        1.0  0.35420  0.31305  0.93546  1.0000
  C   C7        1.0  0.14579  0.81305  0.43547  1.0000
  C   C8        1.0  0.64581  0.68695  0.06454  1.0000
  C   C9        1.0  0.81905  0.14208  0.47681  1.0000
  C   C10       1.0  0.31905  0.35792  0.02319  1.0000
  C   C11       1.0  0.18094  0.85793  0.52320  1.0000
  C   C12       1.0  0.68095  0.64208  0.97680  1.0000
  C   C13       1.0  0.76588  0.04790  0.45036  1.0000
  C   C14       1.0  0.26588  0.45210  0.04964  1.0000
  C   C15       1.0  0.23411  0.95211  0.54965  1.0000
  C   C16       1.0  0.73413  0.54790  0.95036  1.0000
  C   C17       1.0  0.74715  0.00077  0.51294  1.0000
  C   C18       1.0  0.24717  0.49923  0.98706  1.0000
  C   C19       1.0  0.25283  0.99923  0.48706  1.0000
  C   C20       1.0  0.75285  0.50077  0.01294  1.0000
  C   C21       1.0  0.69615  0.90035  0.49200  1.0000
  C   C22       1.0  0.19618  0.59964  0.00800  1.0000
  C   C23       1.0  0.30383  0.09965  0.50799  1.0000
  C   C24       1.0  0.80384  0.40035  0.99201  1.0000
  C   C25       1.0  0.65417  0.84375  0.40786  1.0000
  C   C26       1.0  0.15419  0.65625  0.09214  1.0000
  C   C27       1.0  0.34582  0.15626  0.59214  1.0000
  C   C28       1.0  0.84582  0.34374  0.90786  1.0000
  C   C29       1.0  0.61113  0.74969  0.39490  1.0000
  C   C30       1.0  0.11114  0.75030  0.10510  1.0000
  C   C31       1.0  0.38886  0.25031  0.60509  1.0000
  C   C32       1.0  0.88886  0.24969  0.89490  1.0000
  C   C33       1.0  0.61235  0.71395  0.46536  1.0000
  C   C34       1.0  0.11237  0.78605  0.03464  1.0000
  C   C35       1.0  0.38762  0.28605  0.53463  1.0000
  C   C36       1.0  0.88764  0.21395  0.96536  1.0000
  C   C37       1.0  0.65458  0.77426  0.54720  1.0000
  C   C38       1.0  0.15460  0.72573  0.95279  1.0000
  C   C39       1.0  0.34540  0.22573  0.45279  1.0000
  C   C40       1.0  0.84541  0.27426  0.04720  1.0000
  C   C41       1.0  0.46024  0.04720  0.80577  1.0000
  C   C42       1.0  0.96024  0.45280  0.69423  1.0000
  C   C43       1.0  0.53976  0.95280  0.19422  1.0000
  C   C44       1.0  0.03977  0.54720  0.30577  1.0000
  C   C45       1.0  0.32952  0.02916  0.87413  1.0000
  C   C46       1.0  0.82951  0.47084  0.62587  1.0000
  C   C47       1.0  0.67049  0.97084  0.12587  1.0000
  C   C48       1.0  0.17048  0.52916  0.37413  1.0000
  C   C49       1.0  0.36287  0.07796  0.95794  1.0000
  C   C50       1.0  0.86285  0.42205  0.54206  1.0000
  C   C51       1.0  0.63714  0.92205  0.04206  1.0000
  C   C52       1.0  0.13714  0.57795  0.45794  1.0000
  C   C53       1.0  0.26943  0.06169  0.03441  1.0000
  C   C54       1.0  0.76941  0.43831  0.46559  1.0000
  C   C55       1.0  0.73060  0.93831  0.96560  1.0000
  C   C56       1.0  0.23058  0.56169  0.53441  1.0000
  C   C57       1.0  0.03382  0.97379  0.78266  1.0000
  C   C58       1.0  0.53381  0.52622  0.71734  1.0000
  C   C59       1.0  0.96618  0.02622  0.21734  1.0000
  C   C60       1.0  0.46618  0.47379  0.28266  1.0000
  C   C61       1.0  0.18301  0.95307  0.84327  1.0000
  C   C62       1.0  0.68302  0.54693  0.65673  1.0000
  C   C63       1.0  0.81698  0.04693  0.15674  1.0000
  C   C64       1.0  0.31698  0.45307  0.34327  1.0000
  N   N1        1.0  0.77825  0.04575  0.59816  1.0000
  N   N2        1.0  0.27826  0.45424  0.90184  1.0000
  N   N3        1.0  0.22173  0.95425  0.40185  1.0000
  N   N4        1.0  0.72175  0.54575  0.09816  1.0000
  N   N5        1.0  0.69472  0.86515  0.56022  1.0000
  N   N6        1.0  0.19474  0.63484  0.93978  1.0000
  N   N7        1.0  0.30526  0.13484  0.43978  1.0000
  N   N8        1.0  0.80527  0.36515  0.06022  1.0000
  O   O1        1.0  0.48547  0.97324  0.73905  1.0000
  O   O2        1.0  0.98548  0.52676  0.76095  1.0000
  O   O3        1.0  0.51452  0.02675  0.26095  1.0000
  O   O4        1.0  0.01452  0.47325  0.23905  1.0000
  O   O5        1.0  0.54086  0.12416  0.81618  1.0000
  O   O6        1.0  0.04087  0.37584  0.68382  1.0000
  O   O7        1.0  0.45914  0.87583  0.18382  1.0000
  O   O8        1.0  0.95914  0.62417  0.31618  1.0000
  O   O9        1.0  0.89312  0.91325  0.75947  1.0000
  O   O10       1.0  0.39312  0.58676  0.74053  1.0000
  O   O11       1.0  0.10688  0.08676  0.24053  1.0000
  O   O12       1.0  0.60687  0.41325  0.25947  1.0000
  O   O13       1.0  0.04385  0.04366  0.75553  1.0000
  O   O14       1.0  0.54385  0.45634  0.74447  1.0000
  O   O15       1.0  0.95614  0.95634  0.24448  1.0000
  O   O16       1.0  0.45614  0.54366  0.25552  1.0000
  O   O17       1.0  0.19271  0.98792  0.03541  1.0000
  O   O18       1.0  0.69265  0.51209  0.46459  1.0000
  O   O19       1.0  0.80738  0.01209  0.96460  1.0000
  O   O20       1.0  0.30735  0.48791  0.53541  1.0000
  O   O21       1.0  0.28019  0.13671  0.10609  1.0000
  O   O22       1.0  0.78019  0.36330  0.39392  1.0000
  O   O23       1.0  0.71982  0.86330  0.89392  1.0000
  O   O24       1.0  0.21980  0.63671  0.60608  1.0000
