data_image0
_chemical_formula_structural       Mn2H20C28N16
_chemical_formula_sum              "Mn2 H20 C28 N16"
_cell_length_a       7.39235
_cell_length_b       8.53027
_cell_length_c       12.6795
_cell_angle_alpha    89.2643
_cell_angle_beta     90.0883
_cell_angle_gamma    114.772

_space_group_name_H-M_alt    "P 1"
_space_group_IT_number       1

loop_
  _space_group_symop_operation_xyz
  'x, y, z'

loop_
  _atom_site_type_symbol
  _atom_site_label
  _atom_site_symmetry_multiplicity
  _atom_site_fract_x
  _atom_site_fract_y
  _atom_site_fract_z
  _atom_site_occupancy
  Mn  Mn1       1.0  0.00000  0.50001  1.00000  1.0000
  Mn  Mn2       1.0  0.49999  0.99998  0.50000  1.0000
  H   H1        1.0  0.94676  0.18367  0.14019  1.0000
  H   H2        1.0  0.54848  0.30228  0.64295  1.0000
  H   H3        1.0  0.05323  0.81634  0.85982  1.0000
  H   H4        1.0  0.45153  0.69771  0.35705  1.0000
  H   H5        1.0  0.77201  0.86262  0.14698  1.0000
  H   H6        1.0  0.71927  0.62431  0.64488  1.0000
  H   H7        1.0  0.22798  0.13739  0.85302  1.0000
  H   H8        1.0  0.28075  0.37569  0.35513  1.0000
  H   H9        1.0  0.57300  0.70777  0.98907  1.0000
  H   H10       1.0  0.92128  0.78111  0.48702  1.0000
  H   H11       1.0  0.42700  0.29224  0.01092  1.0000
  H   H12       1.0  0.07873  0.21888  0.51298  1.0000
  H   H13       1.0  0.56916  0.88382  0.82895  1.0000
  H   H14       1.0  0.92934  0.60701  0.32942  1.0000
  H   H15       1.0  0.43086  0.11620  0.17105  1.0000
  H   H16       1.0  0.07065  0.39298  0.67058  1.0000
  H   H17       1.0  0.75732  0.20440  0.83502  1.0000
  H   H18       1.0  0.74381  0.28692  0.33889  1.0000
  H   H19       1.0  0.24270  0.79562  0.16498  1.0000
  H   H20       1.0  0.25618  0.71307  0.66111  1.0000
  C   C1        1.0  0.86097  0.11182  0.07306  1.0000
  C   C2        1.0  0.63517  0.37534  0.57557  1.0000
  C   C3        1.0  0.13902  0.88819  0.92694  1.0000
  C   C4        1.0  0.36484  0.62465  0.42444  1.0000
  C   C5        1.0  0.76280  0.93267  0.07637  1.0000
  C   C6        1.0  0.73114  0.55454  0.57599  1.0000
  C   C7        1.0  0.23719  0.06734  0.92364  1.0000
  C   C8        1.0  0.26888  0.44545  0.42402  1.0000
  C   C9        1.0  0.65475  0.84767  0.98830  1.0000
  C   C10       1.0  0.84075  0.64124  0.48762  1.0000
  C   C11       1.0  0.34526  0.15234  0.01170  1.0000
  C   C12       1.0  0.15925  0.35875  0.51239  1.0000
  C   C13       1.0  0.65181  0.94456  0.89951  1.0000
  C   C14       1.0  0.84631  0.54558  0.40057  1.0000
  C   C15       1.0  0.34819  0.05545  0.10049  1.0000
  C   C16       1.0  0.15368  0.45441  0.59943  1.0000
  C   C17       1.0  0.75595  0.12340  0.90256  1.0000
  C   C18       1.0  0.74379  0.36665  0.40521  1.0000
  C   C19       1.0  0.24406  0.87662  0.09744  1.0000
  C   C20       1.0  0.25620  0.63334  0.59480  1.0000
  C   C21       1.0  0.66284  0.50365  0.15986  1.0000
  C   C22       1.0  0.84178  0.99700  0.64093  1.0000
  C   C23       1.0  0.33715  0.49635  0.84014  1.0000
  C   C24       1.0  0.15821  0.00299  0.35906  1.0000
  C   C25       1.0  0.35659  0.50601  0.15455  1.0000
  C   C26       1.0  0.15339  0.99969  0.63823  1.0000
  C   C27       1.0  0.64341  0.49399  0.84545  1.0000
  C   C28       1.0  0.84661  0.00030  0.36176  1.0000
  N   N1        1.0  0.85748  0.20650  0.98797  1.0000
  N   N2        1.0  0.64208  0.28208  0.49179  1.0000
  N   N3        1.0  0.14252  0.79351  0.01203  1.0000
  N   N4        1.0  0.35792  0.71791  0.50821  1.0000
  N   N5        1.0  0.79860  0.47935  0.12801  1.0000
  N   N6        1.0  0.69523  0.00096  0.60594  1.0000
  N   N7        1.0  0.20140  0.52066  0.87198  1.0000
  N   N8        1.0  0.30476  0.99902  0.39405  1.0000
  N   N9        1.0  0.20112  0.48461  0.11835  1.0000
  N   N10       1.0  0.30388  0.00572  0.60200  1.0000
  N   N11       1.0  0.79888  0.51539  0.88164  1.0000
  N   N12       1.0  0.69611  0.99427  0.39800  1.0000
  N   N13       1.0  0.52181  0.53398  0.20213  1.0000
  N   N14       1.0  0.99603  0.99169  0.68779  1.0000
  N   N15       1.0  0.47818  0.46601  0.79787  1.0000
  N   N16       1.0  0.00397  0.00830  0.31221  1.0000
