data_image0
_chemical_formula_structural       Mn2H16C28N16
_chemical_formula_sum              "Mn2 H16 C28 N16"
_cell_length_a       6.47018
_cell_length_b       9.21816
_cell_length_c       12.706
_cell_angle_alpha    89.3879
_cell_angle_beta     87.9601
_cell_angle_gamma    69.4901

_space_group_name_H-M_alt    "P 1"
_space_group_IT_number       1

loop_
  _space_group_symop_operation_xyz
  'x, y, z'

loop_
  _atom_site_type_symbol
  _atom_site_label
  _atom_site_symmetry_multiplicity
  _atom_site_fract_x
  _atom_site_fract_y
  _atom_site_fract_z
  _atom_site_occupancy
  Mn  Mn1       1.0  0.60811  0.77945  0.74928  1.0000
  Mn  Mn2       1.0  0.39180  0.21701  0.25000  1.0000
  H   H1        1.0  0.03012  0.18730  0.79990  1.0000
  H   H2        1.0  0.21568  0.81746  0.29763  1.0000
  H   H3        1.0  0.96692  0.81715  0.20246  1.0000
  H   H4        1.0  0.78283  0.18824  0.70004  1.0000
  H   H5        1.0  0.32654  0.20655  0.90927  1.0000
  H   H6        1.0  0.53195  0.80090  0.40488  1.0000
  H   H7        1.0  0.66713  0.79967  0.09561  1.0000
  H   H8        1.0  0.46714  0.20712  0.59064  1.0000
  H   H9        1.0  0.34087  0.47099  0.94897  1.0000
  H   H10       1.0  0.81405  0.53767  0.44413  1.0000
  H   H11       1.0  0.64844  0.53611  0.05640  1.0000
  H   H12       1.0  0.18911  0.47187  0.55159  1.0000
  H   H13       1.0  0.04814  0.70368  0.87663  1.0000
  H   H14       1.0  0.75160  0.30334  0.37454  1.0000
  H   H15       1.0  0.94562  0.30229  0.12551  1.0000
  H   H16       1.0  0.24944  0.70419  0.62411  1.0000
  C   C1        1.0  0.87563  0.43557  0.78177  1.0000
  C   C2        1.0  0.31008  0.56817  0.28151  1.0000
  C   C3        1.0  0.12203  0.56792  0.21840  1.0000
  C   C4        1.0  0.68983  0.43626  0.71853  1.0000
  C   C5        1.0  0.03693  0.30040  0.81777  1.0000
  C   C6        1.0  0.33478  0.70460  0.31615  1.0000
  C   C7        1.0  0.96081  0.70408  0.18393  1.0000
  C   C8        1.0  0.66297  0.30129  0.68224  1.0000
  C   C9        1.0  0.20453  0.31137  0.87900  1.0000
  C   C10       1.0  0.51451  0.69508  0.37628  1.0000
  C   C11       1.0  0.79051  0.69408  0.12403  1.0000
  C   C12       1.0  0.48453  0.31197  0.62104  1.0000
  C   C13       1.0  0.21249  0.45730  0.90118  1.0000
  C   C14       1.0  0.66961  0.55035  0.39842  1.0000
  C   C15       1.0  0.78030  0.54915  0.10187  1.0000
  C   C16       1.0  0.33127  0.45799  0.59927  1.0000
  C   C17       1.0  0.04942  0.58721  0.86221  1.0000
  C   C18       1.0  0.63531  0.41962  0.36049  1.0000
  C   C19       1.0  0.94554  0.41871  0.13959  1.0000
  C   C20       1.0  0.36474  0.58789  0.63844  1.0000
  C   C21       1.0  0.74052  0.00951  0.88173  1.0000
  C   C22       1.0  0.77440  0.96971  0.38497  1.0000
  C   C23       1.0  0.25577  0.96948  0.11503  1.0000
  C   C24       1.0  0.24850  0.00957  0.61734  1.0000
  C   C25       1.0  0.67745  0.16182  0.02811  1.0000
  C   C26       1.0  0.82724  0.83008  0.53760  1.0000
  C   C27       1.0  0.34108  0.83012  0.96188  1.0000
  C   C28       1.0  0.16055  0.16274  0.47164  1.0000
  N   N1        1.0  0.88357  0.57728  0.80530  1.0000
  N   N2        1.0  0.45933  0.42802  0.30493  1.0000
  N   N3        1.0  0.11316  0.42753  0.19493  1.0000
  N   N4        1.0  0.54069  0.57870  0.69538  1.0000
  N   N5        1.0  0.70580  0.92970  0.81772  1.0000
  N   N6        1.0  0.67843  0.06209  0.32209  1.0000
  N   N7        1.0  0.25968  0.06190  0.17810  1.0000
  N   N8        1.0  0.36185  0.92880  0.68110  1.0000
  N   N9        1.0  0.57925  0.22817  0.10369  1.0000
  N   N10       1.0  0.78182  0.78890  0.62058  1.0000
  N   N11       1.0  0.42638  0.78921  0.87852  1.0000
  N   N12       1.0  0.19283  0.22918  0.39637  1.0000
  N   N13       1.0  0.79671  0.09574  0.94614  1.0000
  N   N14       1.0  0.89399  0.86278  0.44597  1.0000
  N   N15       1.0  0.24288  0.86241  0.05390  1.0000
  N   N16       1.0  0.10681  0.09658  0.55328  1.0000
