data_image0
_chemical_formula_structural       Cu2H18C26I2N2
_chemical_formula_sum              "Cu2 H18 C26 I2 N2"
_cell_length_a       4.0762
_cell_length_b       9.74334
_cell_length_c       13.9696
_cell_angle_alpha    92.4366
_cell_angle_beta     101.103
_cell_angle_gamma    96.3311

_space_group_name_H-M_alt    "P 1"
_space_group_IT_number       1

loop_
  _space_group_symop_operation_xyz
  'x, y, z'

loop_
  _atom_site_type_symbol
  _atom_site_label
  _atom_site_symmetry_multiplicity
  _atom_site_fract_x
  _atom_site_fract_y
  _atom_site_fract_z
  _atom_site_occupancy
  Cu  Cu1       1.0  0.96376  0.59165  0.24681  1.0000
  Cu  Cu2       1.0  0.03622  0.40835  0.75319  1.0000
  H   H1        1.0  0.74326  0.50224  0.39012  1.0000
  H   H2        1.0  0.25670  0.49776  0.60987  1.0000
  H   H3        1.0  0.60058  0.38029  0.53265  1.0000
  H   H4        1.0  0.39938  0.61970  0.46735  1.0000
  H   H5        1.0  0.65694  0.13123  0.54604  1.0000
  H   H6        1.0  0.34305  0.86877  0.45396  1.0000
  H   H7        1.0  0.85605  0.99938  0.41518  1.0000
  H   H8        1.0  0.14395  0.00062  0.58482  1.0000
  H   H9        1.0  0.07338  0.99738  0.26121  1.0000
  H   H10       1.0  0.92662  0.00262  0.73879  1.0000
  H   H11       1.0  0.13794  0.50326  0.09186  1.0000
  H   H12       1.0  0.86210  0.49674  0.90814  1.0000
  H   H13       1.0  0.33367  0.37931  0.95795  1.0000
  H   H14       1.0  0.66638  0.62069  0.04205  1.0000
  H   H15       1.0  0.39575  0.13000  0.96291  1.0000
  H   H16       1.0  0.60428  0.87000  0.03709  1.0000
  H   H17       1.0  0.26475  1.00000  0.10434  1.0000
  H   H18       1.0  0.73527  0.00000  0.89566  1.0000
  C   C1        1.0  0.88973  0.32165  0.32234  1.0000
  C   C2        1.0  0.11025  0.67835  0.67766  1.0000
  C   C3        1.0  0.77051  0.39265  0.39713  1.0000
  C   C4        1.0  0.22946  0.60735  0.60286  1.0000
  C   C5        1.0  0.69142  0.32479  0.47552  1.0000
  C   C6        1.0  0.30855  0.67521  0.52447  1.0000
  C   C7        1.0  0.72384  0.18199  0.48322  1.0000
  C   C8        1.0  0.27615  0.81801  0.51678  1.0000
  C   C9        1.0  0.83478  0.10968  0.41168  1.0000
  C   C10       1.0  0.16521  0.89031  0.58831  1.0000
  C   C11       1.0  0.92261  0.17665  0.32996  1.0000
  C   C12       1.0  0.07738  0.82335  0.67004  1.0000
  C   C13       1.0  0.04277  0.10701  0.25684  1.0000
  C   C14       1.0  0.95723  0.89299  0.74316  1.0000
  C   C15       1.0  0.08232  0.32225  0.17419  1.0000
  C   C16       1.0  0.91768  0.67775  0.82581  1.0000
  C   C17       1.0  0.16331  0.39310  0.09353  1.0000
  C   C18       1.0  0.83671  0.60690  0.90647  1.0000
  C   C19       1.0  0.27263  0.32423  0.01984  1.0000
  C   C20       1.0  0.72739  0.67577  0.98017  1.0000
  C   C21       1.0  0.30907  0.18128  0.02262  1.0000
  C   C22       1.0  0.69095  0.81872  0.97738  1.0000
  C   C23       1.0  0.23745  0.10981  0.10012  1.0000
  C   C24       1.0  0.76257  0.89019  0.89989  1.0000
  C   C25       1.0  0.12168  0.17722  0.17755  1.0000
  C   C26       1.0  0.87832  0.82278  0.82245  1.0000
  I   I1        1.0  0.51361  0.74840  0.25048  1.0000
  I   I2        1.0  0.48637  0.25160  0.74952  1.0000
  N   N1        1.0  0.97079  0.39181  0.24604  1.0000
  N   N2        1.0  0.02920  0.60819  0.75396  1.0000
