data_image0
_chemical_formula_structural       MnH16C20N6O10
_chemical_formula_sum              "Mn1 H16 C20 N6 O10"
_cell_length_a       6.29423
_cell_length_b       7.23962
_cell_length_c       11.0096
_cell_angle_alpha    87.0098
_cell_angle_beta     84.8335
_cell_angle_gamma    87.9112

_space_group_name_H-M_alt    "P 1"
_space_group_IT_number       1

loop_
  _space_group_symop_operation_xyz
  'x, y, z'

loop_
  _atom_site_type_symbol
  _atom_site_label
  _atom_site_symmetry_multiplicity
  _atom_site_fract_x
  _atom_site_fract_y
  _atom_site_fract_z
  _atom_site_occupancy
  Mn  Mn1       1.0  0.00001  0.00001  0.00000  1.0000
  H   H1        1.0  0.33552  0.79030  0.04014  1.0000
  H   H2        1.0  0.66450  0.20971  0.95986  1.0000
  H   H3        1.0  0.38512  0.97139  0.10972  1.0000
  H   H4        1.0  0.61491  0.02862  0.89027  1.0000
  H   H5        1.0  0.66425  0.80254  0.70214  1.0000
  H   H6        1.0  0.33574  0.19745  0.29786  1.0000
  H   H7        1.0  0.76683  0.68994  0.41359  1.0000
  H   H8        1.0  0.23315  0.31006  0.58642  1.0000
  H   H9        1.0  0.72282  0.18639  0.63690  1.0000
  H   H10       1.0  0.27716  0.81359  0.36310  1.0000
  H   H11       1.0  0.71096  0.00808  0.45064  1.0000
  H   H12       1.0  0.28904  0.99191  0.54935  1.0000
  H   H13       1.0  0.97143  0.76941  0.24522  1.0000
  H   H14       1.0  0.02855  0.23061  0.75479  1.0000
  H   H15       1.0  0.72975  0.62061  0.92055  1.0000
  H   H16       1.0  0.27029  0.37940  0.07944  1.0000
  C   C1        1.0  0.71836  0.13823  0.21561  1.0000
  C   C2        1.0  0.28165  0.86178  0.78438  1.0000
  C   C3        1.0  0.74049  0.24689  0.32580  1.0000
  C   C4        1.0  0.25951  0.75311  0.67419  1.0000
  C   C5        1.0  0.76409  0.43934  0.31560  1.0000
  C   C6        1.0  0.23590  0.56066  0.68440  1.0000
  C   C7        1.0  0.76301  0.53984  0.42058  1.0000
  C   C8        1.0  0.23697  0.46015  0.57943  1.0000
  C   C9        1.0  0.74919  0.44962  0.53591  1.0000
  C   C10       1.0  0.25078  0.55036  0.46410  1.0000
  C   C11       1.0  0.73631  0.25628  0.54651  1.0000
  C   C12       1.0  0.26368  0.74371  0.45349  1.0000
  C   C13       1.0  0.72899  0.15756  0.44203  1.0000
  C   C14       1.0  0.27100  0.84243  0.55797  1.0000
  C   C15       1.0  0.73204  0.55634  0.64843  1.0000
  C   C16       1.0  0.26795  0.44364  0.35157  1.0000
  C   C17       1.0  0.88671  0.70187  0.17992  1.0000
  C   C18       1.0  0.11329  0.29814  0.82009  1.0000
  C   C19       1.0  0.76647  0.62207  0.01527  1.0000
  C   C20       1.0  0.23356  0.37794  0.98473  1.0000
  N   N1        1.0  0.87489  0.75932  0.06339  1.0000
  N   N2        1.0  0.12513  0.24070  0.93661  1.0000
  N   N3        1.0  0.78856  0.53878  0.20116  1.0000
  N   N4        1.0  0.21144  0.46122  0.79884  1.0000
  N   N5        1.0  0.71195  0.48594  0.09598  1.0000
  N   N6        1.0  0.28807  0.51407  0.90402  1.0000
  O   O1        1.0  0.89386  0.10521  0.15250  1.0000
  O   O2        1.0  0.10616  0.89480  0.84750  1.0000
  O   O3        1.0  0.53061  0.09111  0.19770  1.0000
  O   O4        1.0  0.46940  0.90890  0.80228  1.0000
  O   O5        1.0  0.27002  0.89713  0.08112  1.0000
  O   O6        1.0  0.73000  0.10288  0.91887  1.0000
  O   O7        1.0  0.71217  0.48114  0.75152  1.0000
  O   O8        1.0  0.28781  0.51885  0.24848  1.0000
  O   O9        1.0  0.73312  0.74106  0.62739  1.0000
  O   O10       1.0  0.26687  0.25893  0.37261  1.0000
