data_image0
_chemical_formula_structural       Mn3H40C50N4O12
_chemical_formula_sum              "Mn3 H40 C50 N4 O12"
_cell_length_a       8.43808
_cell_length_b       11.126
_cell_length_c       13.444
_cell_angle_alpha    112.126
_cell_angle_beta     100.731
_cell_angle_gamma    93.8282

_space_group_name_H-M_alt    "P 1"
_space_group_IT_number       1

loop_
  _space_group_symop_operation_xyz
  'x, y, z'

loop_
  _atom_site_type_symbol
  _atom_site_label
  _atom_site_symmetry_multiplicity
  _atom_site_fract_x
  _atom_site_fract_y
  _atom_site_fract_z
  _atom_site_occupancy
  Mn  Mn1       1.0  0.49999  0.50002  0.50002  1.0000
  Mn  Mn2       1.0  0.21746  0.37218  0.22628  1.0000
  Mn  Mn3       1.0  0.78259  0.62782  0.77372  1.0000
  H   H1        1.0  0.07963  0.22664  0.53161  1.0000
  H   H2        1.0  0.92030  0.77331  0.46835  1.0000
  H   H3        1.0  0.96448  0.15383  0.39274  1.0000
  H   H4        1.0  0.03548  0.84617  0.60721  1.0000
  H   H5        1.0  0.14086  0.03657  0.56586  1.0000
  H   H6        1.0  0.85905  0.96336  0.43408  1.0000
  H   H7        1.0  0.24875  0.07895  0.27972  1.0000
  H   H8        1.0  0.75116  0.92101  0.72023  1.0000
  H   H9        1.0  0.53626  0.76173  0.46159  1.0000
  H   H10       1.0  0.46377  0.23830  0.53841  1.0000
  H   H11       1.0  0.56955  0.77113  0.33771  1.0000
  H   H12       1.0  0.43047  0.22889  0.66228  1.0000
  H   H13       1.0  0.41443  0.89742  0.25350  1.0000
  H   H14       1.0  0.58555  0.10258  0.74648  1.0000
  H   H15       1.0  0.29914  0.84975  0.53516  1.0000
  H   H16       1.0  0.70085  0.15024  0.46481  1.0000
  H   H17       1.0  0.75646  0.18931  0.25554  1.0000
  H   H18       1.0  0.24353  0.81069  0.74449  1.0000
  H   H19       1.0  0.61608  0.08939  0.28464  1.0000
  H   H20       1.0  0.38387  0.91064  0.71539  1.0000
  H   H21       1.0  0.34144  0.97772  0.13134  1.0000
  H   H22       1.0  0.65854  0.02232  0.86869  1.0000
  H   H23       1.0  0.76675  0.14578  0.06855  1.0000
  H   H24       1.0  0.23324  0.85426  0.93150  1.0000
  H   H25       1.0  0.35319  0.20835  0.01860  1.0000
  H   H26       1.0  0.64679  0.79160  0.98139  1.0000
  H   H27       1.0  0.28222  0.14225  0.81341  1.0000
  H   H28       1.0  0.71777  0.85771  0.18658  1.0000
  H   H29       1.0  0.02057  0.20085  0.72841  1.0000
  H   H30       1.0  0.97945  0.79913  0.27159  1.0000
  H   H31       1.0  0.84742  0.32245  0.85051  1.0000
  H   H32       1.0  0.15258  0.67753  0.14948  1.0000
  H   H33       1.0  0.69556  0.39279  0.95728  1.0000
  H   H34       1.0  0.30442  0.60716  0.04274  1.0000
  H   H35       1.0  0.53829  0.49479  0.10169  1.0000
  H   H36       1.0  0.46172  0.50520  0.89833  1.0000
  H   H37       1.0  0.67139  0.55082  0.30113  1.0000
  H   H38       1.0  0.32868  0.44923  0.69890  1.0000
  H   H39       1.0  0.95229  0.50320  0.34709  1.0000
  H   H40       1.0  0.04781  0.49689  0.65293  1.0000
  C   C1        1.0  0.17200  0.29294  0.41851  1.0000
  C   C2        1.0  0.82800  0.70705  0.58149  1.0000
  C   C3        1.0  0.08887  0.18619  0.44512  1.0000
  C   C4        1.0  0.91108  0.81378  0.55484  1.0000
  C   C5        1.0  0.18300  0.07092  0.42468  1.0000
  C   C6        1.0  0.81693  0.92904  0.57527  1.0000
  C   C7        1.0  0.19833  0.00469  0.49572  1.0000
  C   C8        1.0  0.80160  0.99526  0.50423  1.0000
  C   C9        1.0  0.25975  0.02899  0.33608  1.0000
  C   C10       1.0  0.74020  0.97098  0.66388  1.0000
  C   C11       1.0  0.38022  0.62033  0.31373  1.0000
  C   C12       1.0  0.61983  0.37968  0.68628  1.0000
  C   C13       1.0  0.47571  0.75662  0.38051  1.0000
  C   C14       1.0  0.52432  0.24340  0.61948  1.0000
  C   C15       1.0  0.36868  0.86202  0.39290  1.0000
  C   C16       1.0  0.63132  0.13797  0.60707  1.0000
  C   C17       1.0  0.35202  0.92688  0.32127  1.0000
  C   C18       1.0  0.64795  0.07310  0.67870  1.0000
  C   C19       1.0  0.28762  0.90049  0.47927  1.0000
  C   C20       1.0  0.71235  0.09948  0.52069  1.0000
  C   C21       1.0  0.53527  0.26548  0.28296  1.0000
  C   C22       1.0  0.46477  0.73459  0.71708  1.0000
  C   C23       1.0  0.62636  0.14938  0.23642  1.0000
  C   C24       1.0  0.37362  0.85065  0.76362  1.0000
  C   C25       1.0  0.56351  0.06991  0.11506  1.0000
  C   C26       1.0  0.43645  0.93014  0.88497  1.0000
  C   C27       1.0  0.41315  0.98688  0.07429  1.0000
  C   C28       1.0  0.58682  0.01317  0.92575  1.0000
  C   C29       1.0  0.64929  0.08191  0.03877  1.0000
  C   C30       1.0  0.35068  0.91815  0.96126  1.0000
  C   C31       1.0  0.24191  0.23047  0.97732  1.0000
  C   C32       1.0  0.75810  0.76948  0.02266  1.0000
  C   C33       1.0  0.20153  0.19484  0.86354  1.0000
  C   C34       1.0  0.79846  0.80512  0.13643  1.0000
  C   C35       1.0  0.05738  0.22717  0.81707  1.0000
  C   C36       1.0  0.94262  0.77280  0.18292  1.0000
  C   C37       1.0  0.95869  0.29402  0.88538  1.0000
  C   C38       1.0  0.04132  0.70596  0.11462  1.0000
  C   C39       1.0  0.00587  0.32530  0.99876  1.0000
  C   C40       1.0  0.99414  0.67466  0.00123  1.0000
  C   C41       1.0  0.90633  0.39261  0.07740  1.0000
  C   C42       1.0  0.09371  0.60738  0.92260  1.0000
  C   C43       1.0  0.74894  0.41817  0.04431  1.0000
  C   C44       1.0  0.25107  0.58179  0.95569  1.0000
  C   C45       1.0  0.66217  0.47591  0.12436  1.0000
  C   C46       1.0  0.33786  0.52408  0.87566  1.0000
  C   C47       1.0  0.73399  0.50785  0.23518  1.0000
  C   C48       1.0  0.26607  0.49217  0.76484  1.0000
  C   C49       1.0  0.89114  0.48105  0.26179  1.0000
  C   C50       1.0  0.10893  0.51900  0.73822  1.0000
  N   N1        1.0  0.14631  0.29347  0.04340  1.0000
  N   N2        1.0  0.85370  0.70649  0.95660  1.0000
  N   N3        1.0  0.97526  0.42520  0.18515  1.0000
  N   N4        1.0  0.02476  0.57481  0.81485  1.0000
  O   O1        1.0  0.28039  0.38016  0.49423  1.0000
  O   O2        1.0  0.71956  0.61984  0.50578  1.0000
  O   O3        1.0  0.12771  0.28228  0.31884  1.0000
  O   O4        1.0  0.87238  0.71768  0.68114  1.0000
  O   O5        1.0  0.35119  0.54653  0.36530  1.0000
  O   O6        1.0  0.64883  0.45351  0.63473  1.0000
  O   O7        1.0  0.32908  0.58017  0.21073  1.0000
  O   O8        1.0  0.67095  0.41982  0.78928  1.0000
  O   O9        1.0  0.57505  0.33107  0.38621  1.0000
  O   O10       1.0  0.42489  0.66892  0.61385  1.0000
  O   O11       1.0  0.42719  0.28653  0.21411  1.0000
  O   O12       1.0  0.57301  0.71367  0.78593  1.0000
