data_image0
_chemical_formula_structural       Cr2Cu2H80C40N8O8
_chemical_formula_sum              "Cr2 Cu2 H80 C40 N8 O8"
_cell_length_a       9.45411
_cell_length_b       11.6907
_cell_length_c       14.2623
_cell_angle_alpha    107.46
_cell_angle_beta     107.475
_cell_angle_gamma    102.373

_space_group_name_H-M_alt    "P 1"
_space_group_IT_number       1

loop_
  _space_group_symop_operation_xyz
  'x, y, z'

loop_
  _atom_site_type_symbol
  _atom_site_label
  _atom_site_symmetry_multiplicity
  _atom_site_fract_x
  _atom_site_fract_y
  _atom_site_fract_z
  _atom_site_occupancy
  Cr  Cr1       1.0  0.28253  0.17898  0.27686  1.0000
  Cr  Cr2       1.0  0.71748  0.82105  0.72312  1.0000
  Cu  Cu1       1.0  0.00000  0.00000  0.00000  1.0000
  Cu  Cu2       1.0  0.49999  0.49999  0.49999  1.0000
  H   H1        1.0  0.92426  0.13020  0.11816  1.0000
  H   H2        1.0  0.07574  0.86980  0.88184  1.0000
  H   H3        1.0  0.91613  0.05951  0.84476  1.0000
  H   H4        1.0  0.08387  0.94049  0.15525  1.0000
  H   H5        1.0  0.56827  0.35456  0.36541  1.0000
  H   H6        1.0  0.43174  0.64545  0.63459  1.0000
  H   H7        1.0  0.55056  0.68305  0.46599  1.0000
  H   H8        1.0  0.44944  0.31695  0.53401  1.0000
  H   H9        1.0  0.23289  0.37147  0.03953  1.0000
  H   H10       1.0  0.76711  0.62853  0.96047  1.0000
  H   H11       1.0  0.38179  0.31300  0.01600  1.0000
  H   H12       1.0  0.61821  0.68701  0.98400  1.0000
  H   H13       1.0  0.27813  0.25425  0.08735  1.0000
  H   H14       1.0  0.72189  0.74576  0.91265  1.0000
  H   H15       1.0  0.11731  0.22498  0.85544  1.0000
  H   H16       1.0  0.88268  0.77501  0.14456  1.0000
  H   H17       1.0  0.12258  0.00595  0.79336  1.0000
  H   H18       1.0  0.87742  0.99405  0.20664  1.0000
  H   H19       1.0  0.30729  0.12607  0.84668  1.0000
  H   H20       1.0  0.69270  0.87392  0.15333  1.0000
  H   H21       1.0  0.35555  0.96775  0.90942  1.0000
  H   H22       1.0  0.64445  0.03225  0.09058  1.0000
  H   H23       1.0  0.36539  0.09143  0.02291  1.0000
  H   H24       1.0  0.63460  0.90857  0.97710  1.0000
  H   H25       1.0  0.69618  0.06866  0.90085  1.0000
  H   H26       1.0  0.30382  0.93133  0.09915  1.0000
  H   H27       1.0  0.79554  0.29500  0.11297  1.0000
  H   H28       1.0  0.20445  0.70499  0.88703  1.0000
  H   H29       1.0  0.60621  0.17929  0.04130  1.0000
  H   H30       1.0  0.39379  0.82070  0.95870  1.0000
  H   H31       1.0  0.56934  0.24500  0.88779  1.0000
  H   H32       1.0  0.43066  0.75499  0.11221  1.0000
  H   H33       1.0  0.61327  0.37676  0.00560  1.0000
  H   H34       1.0  0.38672  0.62324  0.99441  1.0000
  H   H35       1.0  0.89309  0.44930  0.02828  1.0000
  H   H36       1.0  0.10690  0.55070  0.97172  1.0000
  H   H37       1.0  0.76958  0.43384  0.90147  1.0000
  H   H38       1.0  0.23042  0.56616  0.09854  1.0000
  H   H39       1.0  0.79212  0.21942  0.81753  1.0000
  H   H40       1.0  0.20787  0.78057  0.18247  1.0000
  H   H41       1.0  0.97936  0.33940  0.88873  1.0000
  H   H42       1.0  0.02064  0.66060  0.11127  1.0000
  H   H43       1.0  0.01085  0.27834  0.04678  1.0000
  H   H44       1.0  0.98915  0.72166  0.95323  1.0000
  H   H45       1.0  0.21518  0.46649  0.20228  1.0000
  H   H46       1.0  0.78482  0.53350  0.79772  1.0000
  H   H47       1.0  0.18526  0.41346  0.30026  1.0000
  H   H48       1.0  0.81473  0.58654  0.69975  1.0000
  H   H49       1.0  0.07533  0.50616  0.25312  1.0000
  H   H50       1.0  0.92466  0.49384  0.74688  1.0000
  H   H51       1.0  0.32888  0.69017  0.32798  1.0000
  H   H52       1.0  0.67112  0.30983  0.67202  1.0000
  H   H53       1.0  0.36169  0.75766  0.51737  1.0000
  H   H54       1.0  0.63831  0.24234  0.48263  1.0000
  H   H55       1.0  0.16548  0.70093  0.42443  1.0000
  H   H56       1.0  0.83451  0.29906  0.57557  1.0000
  H   H57       1.0  0.86383  0.51346  0.55492  1.0000
  H   H58       1.0  0.13618  0.48654  0.44509  1.0000
  H   H59       1.0  0.84086  0.37969  0.44406  1.0000
  H   H60       1.0  0.15915  0.62031  0.55595  1.0000
  H   H61       1.0  0.77125  0.62234  0.44500  1.0000
  H   H62       1.0  0.22876  0.37767  0.55501  1.0000
  H   H63       1.0  0.67591  0.38903  0.23863  1.0000
  H   H64       1.0  0.32409  0.61097  0.76138  1.0000
  H   H65       1.0  0.86844  0.46794  0.33861  1.0000
  H   H66       1.0  0.13157  0.53206  0.66139  1.0000
  H   H67       1.0  0.88370  0.66499  0.30365  1.0000
  H   H68       1.0  0.11630  0.33501  0.69635  1.0000
  H   H69       1.0  0.83847  0.53491  0.18459  1.0000
  H   H70       1.0  0.16153  0.46509  0.81542  1.0000
  H   H71       1.0  0.66832  0.67010  0.15539  1.0000
  H   H72       1.0  0.33168  0.32989  0.84460  1.0000
  H   H73       1.0  0.55509  0.51355  0.12613  1.0000
  H   H74       1.0  0.44491  0.48645  0.87388  1.0000
  H   H75       1.0  0.46512  0.66913  0.23393  1.0000
  H   H76       1.0  0.53488  0.33086  0.76607  1.0000
  H   H77       1.0  0.65600  0.74370  0.33578  1.0000
  H   H78       1.0  0.34400  0.25630  0.66422  1.0000
  H   H79       1.0  0.45276  0.46549  0.26205  1.0000
  H   H80       1.0  0.54724  0.53451  0.73795  1.0000
  C   C1        1.0  0.26648  0.28568  0.02086  1.0000
  C   C2        1.0  0.73352  0.71432  0.97914  1.0000
  C   C3        1.0  0.85299  0.81848  0.08551  1.0000
  C   C4        1.0  0.14700  0.18152  0.91449  1.0000
  C   C5        1.0  0.78545  0.91959  0.13167  1.0000
  C   C6        1.0  0.21454  0.08040  0.86834  1.0000
  C   C7        1.0  0.71434  0.98054  0.05707  1.0000
  C   C8        1.0  0.28566  0.01946  0.94293  1.0000
  C   C9        1.0  0.78265  0.13876  0.98013  1.0000
  C   C10       1.0  0.21735  0.86124  0.01987  1.0000
  C   C11       1.0  0.70896  0.23112  0.03180  1.0000
  C   C12       1.0  0.29103  0.76888  0.96820  1.0000
  C   C13       1.0  0.66288  0.30921  0.96632  1.0000
  C   C14       1.0  0.33711  0.69079  0.03368  1.0000
  C   C15       1.0  0.80372  0.37940  0.95006  1.0000
  C   C16       1.0  0.19627  0.62060  0.04995  1.0000
  C   C17       1.0  0.87657  0.28703  0.89811  1.0000
  C   C18       1.0  0.12343  0.71297  0.10189  1.0000
  C   C19       1.0  0.92494  0.21194  0.96630  1.0000
  C   C20       1.0  0.07506  0.78806  0.03370  1.0000
  C   C21       1.0  0.19112  0.49377  0.27498  1.0000
  C   C22       1.0  0.80887  0.50622  0.72503  1.0000
  C   C23       1.0  0.31509  0.61722  0.36221  1.0000
  C   C24       1.0  0.68491  0.38277  0.63779  1.0000
  C   C25       1.0  0.26650  0.67095  0.45514  1.0000
  C   C26       1.0  0.73350  0.32905  0.54486  1.0000
  C   C27       1.0  0.78044  0.42054  0.49392  1.0000
  C   C28       1.0  0.21957  0.57946  0.50608  1.0000
  C   C29       1.0  0.68700  0.53235  0.37919  1.0000
  C   C30       1.0  0.31301  0.46765  0.62082  1.0000
  C   C31       1.0  0.75905  0.48290  0.29859  1.0000
  C   C32       1.0  0.24095  0.51710  0.70142  1.0000
  C   C33       1.0  0.79158  0.57454  0.24419  1.0000
  C   C34       1.0  0.20842  0.42546  0.75581  1.0000
  C   C35       1.0  0.64305  0.60171  0.19170  1.0000
  C   C36       1.0  0.35695  0.39828  0.80830  1.0000
  C   C37       1.0  0.57289  0.65158  0.27267  1.0000
  C   C38       1.0  0.42711  0.34841  0.72734  1.0000
  C   C39       1.0  0.53758  0.55739  0.32422  1.0000
  C   C40       1.0  0.46242  0.44261  0.67578  1.0000
  N   N1        1.0  0.83761  0.06697  0.04428  1.0000
  N   N2        1.0  0.16238  0.93302  0.95572  1.0000
  N   N3        1.0  0.00127  0.87900  0.07744  1.0000
  N   N4        1.0  0.99873  0.12100  0.92256  1.0000
  N   N5        1.0  0.64404  0.44248  0.42840  1.0000
  N   N6        1.0  0.35596  0.55752  0.57161  1.0000
  N   N7        1.0  0.46927  0.60003  0.40351  1.0000
  N   N8        1.0  0.53073  0.39997  0.59649  1.0000
  O   O1        1.0  0.13829  0.18639  0.18001  1.0000
  O   O2        1.0  0.86170  0.81361  0.81996  1.0000
  O   O3        1.0  0.44859  0.21908  0.25795  1.0000
  O   O4        1.0  0.55141  0.78095  0.74202  1.0000
  O   O5        1.0  0.23770  0.03174  0.27188  1.0000
  O   O6        1.0  0.76235  0.96829  0.72811  1.0000
  O   O7        1.0  0.30401  0.28144  0.39420  1.0000
  O   O8        1.0  0.69604  0.71858  0.60578  1.0000
