data_image0
_chemical_formula_structural       Ag4H16C24N4O8
_chemical_formula_sum              "Ag4 H16 C24 N4 O8"
_cell_length_a       3.60346
_cell_length_b       13.7548
_cell_length_c       14.2656
_cell_angle_alpha    90.0071
_cell_angle_beta     90.6544
_cell_angle_gamma    90.0093

_space_group_name_H-M_alt    "P 1"
_space_group_IT_number       1

loop_
  _space_group_symop_operation_xyz
  'x, y, z'

loop_
  _atom_site_type_symbol
  _atom_site_label
  _atom_site_symmetry_multiplicity
  _atom_site_fract_x
  _atom_site_fract_y
  _atom_site_fract_z
  _atom_site_occupancy
  Ag  Ag1       1.0  0.52469  0.56673  0.07199  1.0000
  Ag  Ag2       1.0  0.47544  0.06676  0.42807  1.0000
  Ag  Ag3       1.0  0.47544  0.43319  0.92805  1.0000
  Ag  Ag4       1.0  0.52458  0.93325  0.57197  1.0000
  H   H1        1.0  0.84795  0.41059  0.28507  1.0000
  H   H2        1.0  0.15217  0.91065  0.21488  1.0000
  H   H3        1.0  0.15209  0.58937  0.71490  1.0000
  H   H4        1.0  0.84800  0.08939  0.78507  1.0000
  H   H5        1.0  0.57363  0.29035  0.39989  1.0000
  H   H6        1.0  0.42630  0.79035  0.10011  1.0000
  H   H7        1.0  0.42633  0.70967  0.60014  1.0000
  H   H8        1.0  0.57364  0.20964  0.89987  1.0000
  H   H9        1.0  0.66190  0.06549  0.20991  1.0000
  H   H10       1.0  0.33774  0.56551  0.29011  1.0000
  H   H11       1.0  0.33793  0.93451  0.79013  1.0000
  H   H12       1.0  0.66209  0.43451  0.70988  1.0000
  H   H13       1.0  0.93677  0.17686  0.08733  1.0000
  H   H14       1.0  0.06302  0.67693  0.41267  1.0000
  H   H15       1.0  0.06322  0.82309  0.91266  1.0000
  H   H16       1.0  0.93708  0.32313  0.58732  1.0000
  C   C1        1.0  0.09469  0.37015  0.11000  1.0000
  C   C2        1.0  0.90523  0.87022  0.39001  1.0000
  C   C3        1.0  0.90535  0.62981  0.89001  1.0000
  C   C4        1.0  0.09483  0.12982  0.60997  1.0000
  C   C5        1.0  0.91458  0.30169  0.17821  1.0000
  C   C6        1.0  0.08539  0.80180  0.32183  1.0000
  C   C7        1.0  0.08547  0.69825  0.82180  1.0000
  C   C8        1.0  0.91467  0.19826  0.67815  1.0000
  C   C9        1.0  0.80906  0.33440  0.26679  1.0000
  C   C10       1.0  0.19091  0.83443  0.23321  1.0000
  C   C11       1.0  0.19095  0.66559  0.73321  1.0000
  C   C12       1.0  0.80910  0.16559  0.76675  1.0000
  C   C13       1.0  0.65800  0.26852  0.32969  1.0000
  C   C14       1.0  0.34194  0.76850  0.17029  1.0000
  C   C15       1.0  0.34193  0.73150  0.67032  1.0000
  C   C16       1.0  0.65798  0.23149  0.82967  1.0000
  C   C17       1.0  0.70502  0.14284  0.22313  1.0000
  C   C18       1.0  0.29492  0.64291  0.27689  1.0000
  C   C19       1.0  0.29497  0.85713  0.77691  1.0000
  C   C20       1.0  0.70497  0.35713  0.72311  1.0000
  C   C21       1.0  0.85789  0.20378  0.15607  1.0000
  C   C22       1.0  0.14204  0.70388  0.34395  1.0000
  C   C23       1.0  0.14211  0.79618  0.84394  1.0000
  C   C24       1.0  0.85793  0.29617  0.65604  1.0000
  N   N1        1.0  0.60750  0.17419  0.30865  1.0000
  N   N2        1.0  0.39242  0.67419  0.19132  1.0000
  N   N3        1.0  0.39243  0.82581  0.69136  1.0000
  N   N4        1.0  0.60737  0.32582  0.80865  1.0000
  O   O1        1.0  0.12623  0.45815  0.13701  1.0000
  O   O2        1.0  0.87373  0.95821  0.36292  1.0000
  O   O3        1.0  0.87373  0.54180  0.86299  1.0000
  O   O4        1.0  0.12617  0.04184  0.63705  1.0000
  O   O5        1.0  0.20497  0.33428  0.03328  1.0000
  O   O6        1.0  0.79511  0.83431  0.46676  1.0000
  O   O7        1.0  0.79519  0.66566  0.96677  1.0000
  O   O8        1.0  0.20519  0.16576  0.53327  1.0000
