data_image0
_chemical_formula_structural       Hg2H6C12S4Br2N8
_chemical_formula_sum              "Hg2 H6 C12 S4 Br2 N8"
_cell_length_a       5.93559
_cell_length_b       7.33605
_cell_length_c       13.5196
_cell_angle_alpha    88.7927
_cell_angle_beta     86.7442
_cell_angle_gamma    66.2216

_space_group_name_H-M_alt    "P 1"
_space_group_IT_number       1

loop_
  _space_group_symop_operation_xyz
  'x, y, z'

loop_
  _atom_site_type_symbol
  _atom_site_label
  _atom_site_symmetry_multiplicity
  _atom_site_fract_x
  _atom_site_fract_y
  _atom_site_fract_z
  _atom_site_occupancy
  Hg  Hg1       1.0  0.04105  0.39522  0.75426  1.0000
  Hg  Hg2       1.0  0.43445  0.60236  0.25275  1.0000
  H   H1        1.0  0.36335  0.44987  0.93862  1.0000
  H   H2        1.0  0.82061  0.54587  0.43365  1.0000
  H   H3        1.0  0.97151  0.92464  0.12864  1.0000
  H   H4        1.0  0.89279  0.08195  0.62910  1.0000
  H   H5        1.0  0.61515  0.75331  0.89858  1.0000
  H   H6        1.0  0.36657  0.24722  0.39898  1.0000
  C   C1        1.0  0.18977  0.57065  0.96256  1.0000
  C   C2        1.0  0.76503  0.42727  0.45921  1.0000
  C   C3        1.0  0.97267  0.82891  0.06771  1.0000
  C   C4        1.0  0.80103  0.17440  0.56695  1.0000
  C   C5        1.0  0.75657  0.85709  0.02174  1.0000
  C   C6        1.0  0.61278  0.14523  0.52158  1.0000
  C   C7        1.0  0.77349  0.73676  0.94077  1.0000
  C   C8        1.0  0.51050  0.26325  0.44007  1.0000
  C   C9        1.0  0.40467  0.60093  0.70793  1.0000
  C   C10       1.0  0.00397  0.39812  0.20648  1.0000
  C   C11       1.0  0.73068  0.13957  0.81777  1.0000
  C   C12       1.0  0.86907  0.85912  0.31711  1.0000
  S   S1        1.0  0.17188  0.61068  0.64356  1.0000
  S   S2        1.0  0.78164  0.38906  0.14131  1.0000
  S   S3        1.0  0.02925  0.08481  0.82149  1.0000
  S   S4        1.0  0.11476  0.91131  0.32262  1.0000
  Br  Br1       1.0  0.45303  0.05244  0.06971  1.0000
  Br  Br2       1.0  0.50222  0.95197  0.57096  1.0000
  N   N1        1.0  0.99239  0.59471  0.91129  1.0000
  N   N2        1.0  0.59014  0.40283  0.40898  1.0000
  N   N3        1.0  0.18903  0.68301  0.03918  1.0000
  N   N4        1.0  0.87445  0.31789  0.53668  1.0000
  N   N5        1.0  0.57071  0.59968  0.75236  1.0000
  N   N6        1.0  0.16862  0.39877  0.25124  1.0000
  N   N7        1.0  0.51957  0.17222  0.81650  1.0000
  N   N8        1.0  0.68899  0.82885  0.31466  1.0000
