data_image0
_chemical_formula_structural       Pr2H48C34N2O14
_chemical_formula_sum              "Pr2 H48 C34 N2 O14"
_cell_length_a       7.67962
_cell_length_b       10.0678
_cell_length_c       12.1438
_cell_angle_alpha    80.2651
_cell_angle_beta     79.8998
_cell_angle_gamma    83.6861

_space_group_name_H-M_alt    "P 1"
_space_group_IT_number       1

loop_
  _space_group_symop_operation_xyz
  'x, y, z'

loop_
  _atom_site_type_symbol
  _atom_site_label
  _atom_site_symmetry_multiplicity
  _atom_site_fract_x
  _atom_site_fract_y
  _atom_site_fract_z
  _atom_site_occupancy
  Pr  Pr1       1.0  0.26374  0.99099  0.43670  1.0000
  Pr  Pr2       1.0  0.73626  0.00901  0.56330  1.0000
  H   H1        1.0  0.85774  0.39989  0.54952  1.0000
  H   H2        1.0  0.14226  0.60011  0.45048  1.0000
  H   H3        1.0  0.92175  0.51985  0.62207  1.0000
  H   H4        1.0  0.07826  0.48015  0.37793  1.0000
  H   H5        1.0  0.21475  0.23430  0.75937  1.0000
  H   H6        1.0  0.78525  0.76570  0.24063  1.0000
  H   H7        1.0  0.99642  0.30402  0.74399  1.0000
  H   H8        1.0  0.00357  0.69598  0.25601  1.0000
  H   H9        1.0  0.04393  0.14883  0.12474  1.0000
  H   H10       1.0  0.95607  0.85117  0.87526  1.0000
  H   H11       1.0  0.81826  0.18255  0.10924  1.0000
  H   H12       1.0  0.18174  0.81745  0.89076  1.0000
  H   H13       1.0  0.13014  0.31735  0.95313  1.0000
  H   H14       1.0  0.86986  0.68265  0.04687  1.0000
  H   H15       1.0  0.90586  0.35839  0.93833  1.0000
  H   H16       1.0  0.09414  0.64161  0.06167  1.0000
  H   H17       1.0  0.09788  0.07559  0.92817  1.0000
  H   H18       1.0  0.90212  0.92440  0.07183  1.0000
  H   H19       1.0  0.87732  0.12531  0.90539  1.0000
  H   H20       1.0  0.12267  0.87469  0.09461  1.0000
  H   H21       1.0  0.52829  0.53339  0.57941  1.0000
  H   H22       1.0  0.47171  0.46661  0.42059  1.0000
  H   H23       1.0  0.62734  0.64395  0.64792  1.0000
  H   H24       1.0  0.37266  0.35605  0.35208  1.0000
  H   H25       1.0  0.75172  0.58377  0.40659  1.0000
  H   H26       1.0  0.24829  0.41623  0.59341  1.0000
  H   H27       1.0  0.83658  0.70461  0.46763  1.0000
  H   H28       1.0  0.16342  0.29539  0.53237  1.0000
  H   H29       1.0  0.82815  0.42306  0.13453  1.0000
  H   H30       1.0  0.17185  0.57694  0.86547  1.0000
  H   H31       1.0  0.05431  0.39140  0.14922  1.0000
  H   H32       1.0  0.94569  0.60860  0.85078  1.0000
  H   H33       1.0  0.83051  0.38164  0.33684  1.0000
  H   H34       1.0  0.16949  0.61837  0.66316  1.0000
  H   H35       1.0  0.75953  0.23481  0.30430  1.0000
  H   H36       1.0  0.24048  0.76519  0.69570  1.0000
  H   H37       1.0  0.49933  0.92007  0.21142  1.0000
  H   H38       1.0  0.50067  0.07993  0.78858  1.0000
  H   H39       1.0  0.61904  0.96277  0.29567  1.0000
  H   H40       1.0  0.38096  0.03724  0.70433  1.0000
  H   H41       1.0  0.40294  0.47435  0.19839  1.0000
  H   H42       1.0  0.59706  0.52565  0.80162  1.0000
  H   H43       1.0  0.40303  0.68580  0.27648  1.0000
  H   H44       1.0  0.59697  0.31420  0.72352  1.0000
  H   H45       1.0  0.57882  0.89553  0.95895  1.0000
  H   H46       1.0  0.42118  0.10447  0.04105  1.0000
  H   H47       1.0  0.58958  0.69680  0.86744  1.0000
  H   H48       1.0  0.41041  0.30320  0.13257  1.0000
  C   C1        1.0  0.48877  0.74551  0.51797  1.0000
  C   C2        1.0  0.51123  0.25449  0.48203  1.0000
  C   C3        1.0  0.05589  0.11055  0.69505  1.0000
  C   C4        1.0  0.94411  0.88945  0.30496  1.0000
  C   C5        1.0  0.90890  0.50015  0.53729  1.0000
  C   C6        1.0  0.09110  0.49986  0.46271  1.0000
  C   C7        1.0  0.07598  0.21036  0.77170  1.0000
  C   C8        1.0  0.92402  0.78964  0.22830  1.0000
  C   C9        1.0  0.94594  0.22872  0.09424  1.0000
  C   C10       1.0  0.05406  0.77128  0.90576  1.0000
  C   C11       1.0  0.00025  0.27483  0.96786  1.0000
  C   C12       1.0  0.99975  0.72517  0.03213  1.0000
  C   C13       1.0  0.00951  0.16217  0.89683  1.0000
  C   C14       1.0  0.99048  0.83783  0.10317  1.0000
  C   C15       1.0  0.59975  0.62474  0.56666  1.0000
  C   C16       1.0  0.40025  0.37526  0.43334  1.0000
  C   C17       1.0  0.77679  0.60750  0.48745  1.0000
  C   C18       1.0  0.22321  0.39250  0.51255  1.0000
  C   C19       1.0  0.92801  0.34400  0.16374  1.0000
  C   C20       1.0  0.07199  0.65600  0.83626  1.0000
  C   C21       1.0  0.87389  0.29615  0.28979  1.0000
  C   C22       1.0  0.12612  0.70385  0.71021  1.0000
  C   C23       1.0  0.01810  0.21268  0.34721  1.0000
  C   C24       1.0  0.98191  0.78732  0.65279  1.0000
  C   C25       1.0  0.44373  0.56484  0.14121  1.0000
  C   C26       1.0  0.55626  0.43516  0.85879  1.0000
  C   C27       1.0  0.44291  0.68332  0.18596  1.0000
  C   C28       1.0  0.55708  0.31667  0.81405  1.0000
  C   C29       1.0  0.49728  0.56300  0.02469  1.0000
  C   C30       1.0  0.50271  0.43700  0.97531  1.0000
  C   C31       1.0  0.54028  0.80030  0.01034  1.0000
  C   C32       1.0  0.45971  0.19970  0.98966  1.0000
  C   C33       1.0  0.54497  0.68625  0.95850  1.0000
  C   C34       1.0  0.45503  0.31375  0.04150  1.0000
  N   N1        1.0  0.49130  0.80038  0.12217  1.0000
  N   N2        1.0  0.50869  0.19962  0.87783  1.0000
  O   O1        1.0  0.50139  0.98060  0.26923  1.0000
  O   O2        1.0  0.49861  0.01940  0.73077  1.0000
  O   O3        1.0  0.19623  0.05866  0.63800  1.0000
  O   O4        1.0  0.80377  0.94134  0.36200  1.0000
  O   O5        1.0  0.38360  0.73626  0.45108  1.0000
  O   O6        1.0  0.61640  0.26374  0.54892  1.0000
  O   O7        1.0  0.50531  0.86230  0.54514  1.0000
  O   O8        1.0  0.49469  0.13770  0.45486  1.0000
  O   O9        1.0  0.17945  0.20941  0.30182  1.0000
  O   O10       1.0  0.82055  0.79059  0.69818  1.0000
  O   O11       1.0  0.89914  0.08548  0.69103  1.0000
  O   O12       1.0  0.10086  0.91452  0.30897  1.0000
  O   O13       1.0  0.97282  0.14318  0.44631  1.0000
  O   O14       1.0  0.02718  0.85682  0.55369  1.0000
