data_image0
_chemical_formula_structural       U4H8C20N8O24
_chemical_formula_sum              "U4 H8 C20 N8 O24"
_cell_length_a       6.80673
_cell_length_b       10.8584
_cell_length_c       12.2215
_cell_angle_alpha    72.5237
_cell_angle_beta     73.8494
_cell_angle_gamma    71.7492

_space_group_name_H-M_alt    "P 1"
_space_group_IT_number       1

loop_
  _space_group_symop_operation_xyz
  'x, y, z'

loop_
  _atom_site_type_symbol
  _atom_site_label
  _atom_site_symmetry_multiplicity
  _atom_site_fract_x
  _atom_site_fract_y
  _atom_site_fract_z
  _atom_site_occupancy
  U   U1        1.0  0.77795  0.76828  0.49111  1.0000
  U   U2        1.0  0.03747  0.73176  0.00890  1.0000
  U   U3        1.0  0.22205  0.23172  0.50890  1.0000
  U   U4        1.0  0.96252  0.26824  0.99110  1.0000
  H   H1        1.0  0.28349  0.63183  0.56739  1.0000
  H   H2        1.0  0.48324  0.86804  0.93254  1.0000
  H   H3        1.0  0.71651  0.36816  0.43260  1.0000
  H   H4        1.0  0.51675  0.13197  0.06746  1.0000
  H   H5        1.0  0.19659  0.45936  0.75512  1.0000
  H   H6        1.0  0.41132  0.04050  0.74486  1.0000
  H   H7        1.0  0.80340  0.54064  0.24489  1.0000
  H   H8        1.0  0.58869  0.95950  0.25513  1.0000
  C   C1        1.0  0.38617  0.57978  0.62920  1.0000
  C   C2        1.0  0.59553  0.92024  0.87080  1.0000
  C   C3        1.0  0.61383  0.42022  0.37080  1.0000
  C   C4        1.0  0.40447  0.07976  0.12920  1.0000
  C   C5        1.0  0.49638  0.44346  0.78756  1.0000
  C   C6        1.0  0.72750  0.05667  0.71252  1.0000
  C   C7        1.0  0.50363  0.55654  0.21244  1.0000
  C   C8        1.0  0.27251  0.94332  0.28747  1.0000
  C   C9        1.0  0.47311  0.34644  0.90043  1.0000
  C   C10       1.0  0.72010  0.15362  0.59961  1.0000
  C   C11       1.0  0.52689  0.65357  0.09957  1.0000
  C   C12       1.0  0.27990  0.84637  0.40038  1.0000
  C   C13       1.0  0.64054  0.51925  0.72434  1.0000
  C   C14       1.0  0.88424  0.98100  0.77575  1.0000
  C   C15       1.0  0.35947  0.48074  0.27566  1.0000
  C   C16       1.0  0.11576  0.01900  0.22425  1.0000
  C   C17       1.0  0.84227  0.52844  0.73741  1.0000
  C   C18       1.0  0.10815  0.97179  0.76273  1.0000
  C   C19       1.0  0.15773  0.47156  0.26259  1.0000
  C   C20       1.0  0.89186  0.02821  0.23727  1.0000
  N   N1        1.0  0.56856  0.60351  0.62653  1.0000
  N   N2        1.0  0.79887  0.89665  0.87353  1.0000
  N   N3        1.0  0.43144  0.39648  0.37347  1.0000
  N   N4        1.0  0.20113  0.10335  0.12647  1.0000
  N   N5        1.0  0.34075  0.48394  0.72402  1.0000
  N   N6        1.0  0.54896  0.01603  0.77600  1.0000
  N   N7        1.0  0.65925  0.51606  0.27598  1.0000
  N   N8        1.0  0.45104  0.98397  0.22399  1.0000
  O   O1        1.0  0.65262  0.88717  0.58051  1.0000
  O   O2        1.0  0.11992  0.61314  0.91928  1.0000
  O   O3        1.0  0.34738  0.11282  0.41950  1.0000
  O   O4        1.0  0.88007  0.38687  0.08072  1.0000
  O   O5        1.0  0.90519  0.64721  0.40354  1.0000
  O   O6        1.0  0.95636  0.85266  0.09663  1.0000
  O   O7        1.0  0.09480  0.35280  0.59646  1.0000
  O   O8        1.0  0.04363  0.14735  0.90337  1.0000
  O   O9        1.0  0.61336  0.31080  0.96208  1.0000
  O   O10       1.0  0.88634  0.18927  0.53800  1.0000
  O   O11       1.0  0.38664  0.68920  0.03792  1.0000
  O   O12       1.0  0.11368  0.81072  0.46200  1.0000
  O   O13       1.0  0.30782  0.30261  0.93043  1.0000
  O   O14       1.0  0.54108  0.19740  0.56952  1.0000
  O   O15       1.0  0.69217  0.69740  0.06958  1.0000
  O   O16       1.0  0.45892  0.80260  0.43048  1.0000
  O   O17       1.0  0.93544  0.44903  0.81880  1.0000
  O   O18       1.0  0.20349  0.05101  0.68127  1.0000
  O   O19       1.0  0.06457  0.55097  0.18120  1.0000
  O   O20       1.0  0.79651  0.94899  0.31873  1.0000
  O   O21       1.0  0.91842  0.61992  0.66045  1.0000
  O   O22       1.0  0.19868  0.88039  0.83980  1.0000
  O   O23       1.0  0.08158  0.38008  0.33955  1.0000
  O   O24       1.0  0.80132  0.11961  0.16020  1.0000
