data_image0
_chemical_formula_structural       Er4H48C44O32
_chemical_formula_sum              "Er4 H48 C44 O32"
_cell_length_a       5.77726
_cell_length_b       13.2589
_cell_length_c       15.5117
_cell_angle_alpha    94.342
_cell_angle_beta     90
_cell_angle_gamma    90

_space_group_name_H-M_alt    "P 1"
_space_group_IT_number       1

loop_
  _space_group_symop_operation_xyz
  'x, y, z'

loop_
  _atom_site_type_symbol
  _atom_site_label
  _atom_site_symmetry_multiplicity
  _atom_site_fract_x
  _atom_site_fract_y
  _atom_site_fract_z
  _atom_site_occupancy
  Er  Er1       1.0  0.44029  0.63456  0.58378  1.0000
  Er  Er2       1.0  0.94027  0.86544  0.91622  1.0000
  Er  Er3       1.0  0.55973  0.36544  0.41621  1.0000
  Er  Er4       1.0  0.05971  0.13456  0.08379  1.0000
  H   H1        1.0  0.87339  0.71824  0.66630  1.0000
  H   H2        1.0  0.37338  0.78175  0.83370  1.0000
  H   H3        1.0  0.12662  0.28175  0.33370  1.0000
  H   H4        1.0  0.62661  0.21824  0.16630  1.0000
  H   H5        1.0  0.68805  0.71490  0.74270  1.0000
  H   H6        1.0  0.18805  0.78509  0.75730  1.0000
  H   H7        1.0  0.31195  0.28509  0.25730  1.0000
  H   H8        1.0  0.81195  0.21490  0.24270  1.0000
  H   H9        1.0  0.79180  0.58754  0.45948  1.0000
  H   H10       1.0  0.29179  0.91246  0.04052  1.0000
  H   H11       1.0  0.20821  0.41246  0.54052  1.0000
  H   H12       1.0  0.70819  0.08754  0.95948  1.0000
  H   H13       1.0  0.89621  0.68846  0.49609  1.0000
  H   H14       1.0  0.39620  0.81154  0.00391  1.0000
  H   H15       1.0  0.10380  0.31154  0.50391  1.0000
  H   H16       1.0  0.60379  0.18846  0.99609  1.0000
  H   H17       1.0  0.20796  0.47526  0.84206  1.0000
  H   H18       1.0  0.70797  0.02474  0.65794  1.0000
  H   H19       1.0  0.79204  0.52474  0.15793  1.0000
  H   H20       1.0  0.29204  0.97527  0.34207  1.0000
  H   H21       1.0  0.51465  0.30742  0.70951  1.0000
  H   H22       1.0  0.01465  0.19258  0.79049  1.0000
  H   H23       1.0  0.48534  0.69259  0.29049  1.0000
  H   H24       1.0  0.98536  0.80743  0.20951  1.0000
  H   H25       1.0  0.08716  0.96361  0.64648  1.0000
  H   H26       1.0  0.58713  0.53639  0.85353  1.0000
  H   H27       1.0  0.91288  0.03639  0.35353  1.0000
  H   H28       1.0  0.41282  0.46361  0.14648  1.0000
  H   H29       1.0  0.88339  0.88078  0.59629  1.0000
  H   H30       1.0  0.38336  0.61922  0.90371  1.0000
  H   H31       1.0  0.11665  0.11922  0.40371  1.0000
  H   H32       1.0  0.61659  0.38077  0.09630  1.0000
  H   H33       1.0  0.26548  0.99455  0.50446  1.0000
  H   H34       1.0  0.76544  0.50544  0.99555  1.0000
  H   H35       1.0  0.73456  0.00544  0.49555  1.0000
  H   H36       1.0  0.23452  0.49455  0.00446  1.0000
  H   H37       1.0  0.08671  0.90218  0.45102  1.0000
  H   H38       1.0  0.58667  0.59781  0.04899  1.0000
  H   H39       1.0  0.91333  0.09782  0.54898  1.0000
  H   H40       1.0  0.41329  0.40218  0.95102  1.0000
  H   H41       1.0  0.61036  0.28354  0.86174  1.0000
  H   H42       1.0  0.11037  0.21647  0.63826  1.0000
  H   H43       1.0  0.38963  0.71647  0.13826  1.0000
  H   H44       1.0  0.88965  0.78354  0.36174  1.0000
  H   H45       1.0  0.96567  0.36367  0.92895  1.0000
  H   H46       1.0  0.46568  0.13634  0.57105  1.0000
  H   H47       1.0  0.03432  0.63634  0.07105  1.0000
  H   H48       1.0  0.53433  0.86367  0.42895  1.0000
  C   C1        1.0  0.15751  0.51659  0.67869  1.0000
  C   C2        1.0  0.65748  0.98341  0.82131  1.0000
  C   C3        1.0  0.84252  0.48341  0.32131  1.0000
  C   C4        1.0  0.34250  0.01659  0.17869  1.0000
  C   C5        1.0  0.74062  0.40706  0.59611  1.0000
  C   C6        1.0  0.24061  0.09293  0.90388  1.0000
  C   C7        1.0  0.25939  0.59293  0.40388  1.0000
  C   C8        1.0  0.75938  0.90707  0.09612  1.0000
  C   C9        1.0  0.22414  0.82289  0.60036  1.0000
  C   C10       1.0  0.72412  0.67710  0.89965  1.0000
  C   C11       1.0  0.77588  0.17710  0.39965  1.0000
  C   C12       1.0  0.27583  0.32289  0.10036  1.0000
  C   C13       1.0  0.81003  0.40198  0.68885  1.0000
  C   C14       1.0  0.31002  0.09802  0.81115  1.0000
  C   C15       1.0  0.18997  0.59803  0.31115  1.0000
  C   C16       1.0  0.68999  0.90198  0.18885  1.0000
  C   C17       1.0  0.00425  0.45102  0.72741  1.0000
  C   C18       1.0  0.50424  0.04898  0.77258  1.0000
  C   C19       1.0  0.99575  0.54899  0.27258  1.0000
  C   C20       1.0  0.49576  0.95102  0.22742  1.0000
  C   C21       1.0  0.05592  0.43731  0.81408  1.0000
  C   C22       1.0  0.55592  0.06270  0.68591  1.0000
  C   C23       1.0  0.94408  0.56270  0.18591  1.0000
  C   C24       1.0  0.44409  0.93731  0.31409  1.0000
  C   C25       1.0  0.66755  0.34375  0.73867  1.0000
  C   C26       1.0  0.16755  0.15625  0.76133  1.0000
  C   C27       1.0  0.33244  0.65625  0.26132  1.0000
  C   C28       1.0  0.83246  0.84376  0.23867  1.0000
  C   C29       1.0  0.06099  0.90915  0.58991  1.0000
  C   C30       1.0  0.56096  0.59084  0.91010  1.0000
  C   C31       1.0  0.93904  0.09084  0.41010  1.0000
  C   C32       1.0  0.43899  0.40915  0.08990  1.0000
  C   C33       1.0  0.09257  0.96004  0.50576  1.0000
  C   C34       1.0  0.59253  0.53995  0.99425  1.0000
  C   C35       1.0  0.90746  0.03995  0.49425  1.0000
  C   C36       1.0  0.40742  0.46004  0.00576  1.0000
  C   C37       1.0  0.72147  0.33083  0.82476  1.0000
  C   C38       1.0  0.22148  0.16917  0.67523  1.0000
  C   C39       1.0  0.27852  0.66918  0.17523  1.0000
  C   C40       1.0  0.77854  0.83084  0.32477  1.0000
  C   C41       1.0  0.91885  0.37637  0.86254  1.0000
  C   C42       1.0  0.41887  0.12363  0.63746  1.0000
  C   C43       1.0  0.08114  0.62364  0.13746  1.0000
  C   C44       1.0  0.58115  0.87637  0.36254  1.0000
  O   O1        1.0  0.13029  0.51858  0.59581  1.0000
  O   O2        1.0  0.63026  0.98143  0.90419  1.0000
  O   O3        1.0  0.86974  0.48143  0.40419  1.0000
  O   O4        1.0  0.36972  0.01857  0.09581  1.0000
  O   O5        1.0  0.78894  0.33303  0.54186  1.0000
  O   O6        1.0  0.28892  0.16697  0.95814  1.0000
  O   O7        1.0  0.21108  0.66697  0.45813  1.0000
  O   O8        1.0  0.71107  0.83303  0.04187  1.0000
  O   O9        1.0  0.61343  0.47894  0.57394  1.0000
  O   O10       1.0  0.11340  0.02106  0.92605  1.0000
  O   O11       1.0  0.38659  0.52106  0.42605  1.0000
  O   O12       1.0  0.88658  0.97894  0.07394  1.0000
  O   O13       1.0  0.71824  0.69150  0.68168  1.0000
  O   O14       1.0  0.21823  0.80850  0.81832  1.0000
  O   O15       1.0  0.28178  0.30850  0.31832  1.0000
  O   O16       1.0  0.78176  0.19150  0.18168  1.0000
  O   O17       1.0  0.42307  0.81724  0.56727  1.0000
  O   O18       1.0  0.92304  0.68275  0.93273  1.0000
  O   O19       1.0  0.57695  0.18275  0.43273  1.0000
  O   O20       1.0  0.07692  0.31724  0.06727  1.0000
  O   O21       1.0  0.31435  0.57015  0.71668  1.0000
  O   O22       1.0  0.81432  0.92984  0.78331  1.0000
  O   O23       1.0  0.68569  0.42984  0.28331  1.0000
  O   O24       1.0  0.18566  0.07015  0.21669  1.0000
  O   O25       1.0  0.15254  0.74796  0.64439  1.0000
  O   O26       1.0  0.65254  0.75204  0.85562  1.0000
  O   O27       1.0  0.84747  0.25204  0.35561  1.0000
  O   O28       1.0  0.34744  0.24796  0.14439  1.0000
  O   O29       1.0  0.74612  0.65425  0.48962  1.0000
  O   O30       1.0  0.24610  0.84575  0.01037  1.0000
  O   O31       1.0  0.25390  0.34575  0.51037  1.0000
  O   O32       1.0  0.75388  0.15425  0.98962  1.0000
