data_image0
_chemical_formula_structural       Dy4H48C44O32
_chemical_formula_sum              "Dy4 H48 C44 O32"
_cell_length_a       5.7962
_cell_length_b       13.2717
_cell_length_c       15.5301
_cell_angle_alpha    94.2095
_cell_angle_beta     90
_cell_angle_gamma    90

_space_group_name_H-M_alt    "P 1"
_space_group_IT_number       1

loop_
  _space_group_symop_operation_xyz
  'x, y, z'

loop_
  _atom_site_type_symbol
  _atom_site_label
  _atom_site_symmetry_multiplicity
  _atom_site_fract_x
  _atom_site_fract_y
  _atom_site_fract_z
  _atom_site_occupancy
  Dy  Dy1       1.0  0.43996  0.63388  0.58288  1.0000
  Dy  Dy2       1.0  0.93996  0.86612  0.91712  1.0000
  Dy  Dy3       1.0  0.56004  0.36613  0.41712  1.0000
  Dy  Dy4       1.0  0.06004  0.13388  0.08288  1.0000
  H   H1        1.0  0.69016  0.71415  0.74281  1.0000
  H   H2        1.0  0.19016  0.78585  0.75719  1.0000
  H   H3        1.0  0.30984  0.28585  0.25719  1.0000
  H   H4        1.0  0.80985  0.21415  0.24281  1.0000
  H   H5        1.0  0.87480  0.71786  0.66668  1.0000
  H   H6        1.0  0.37480  0.78214  0.83332  1.0000
  H   H7        1.0  0.12520  0.28215  0.33332  1.0000
  H   H8        1.0  0.62521  0.21785  0.16668  1.0000
  H   H9        1.0  0.89961  0.68903  0.49506  1.0000
  H   H10       1.0  0.39961  0.81097  0.00494  1.0000
  H   H11       1.0  0.10039  0.31097  0.50494  1.0000
  H   H12       1.0  0.60039  0.18903  0.99506  1.0000
  H   H13       1.0  0.79600  0.58800  0.45912  1.0000
  H   H14       1.0  0.29600  0.91200  0.04088  1.0000
  H   H15       1.0  0.20400  0.41200  0.54088  1.0000
  H   H16       1.0  0.70400  0.08800  0.95912  1.0000
  H   H17       1.0  0.08558  0.96382  0.64637  1.0000
  H   H18       1.0  0.58558  0.53617  0.85362  1.0000
  H   H19       1.0  0.91442  0.03618  0.35363  1.0000
  H   H20       1.0  0.41442  0.46382  0.14637  1.0000
  H   H21       1.0  0.88360  0.88075  0.59613  1.0000
  H   H22       1.0  0.38359  0.61925  0.90386  1.0000
  H   H23       1.0  0.11641  0.11925  0.40386  1.0000
  H   H24       1.0  0.61641  0.38075  0.09613  1.0000
  H   H25       1.0  0.51293  0.30724  0.71088  1.0000
  H   H26       1.0  0.01293  0.19276  0.78912  1.0000
  H   H27       1.0  0.48707  0.69276  0.28911  1.0000
  H   H28       1.0  0.98707  0.80723  0.21089  1.0000
  H   H29       1.0  0.08750  0.90243  0.45147  1.0000
  H   H30       1.0  0.58751  0.59757  0.04853  1.0000
  H   H31       1.0  0.91249  0.09757  0.54853  1.0000
  H   H32       1.0  0.41249  0.40242  0.95147  1.0000
  H   H33       1.0  0.26477  0.99483  0.50476  1.0000
  H   H34       1.0  0.76476  0.50517  0.99523  1.0000
  H   H35       1.0  0.73523  0.00518  0.49524  1.0000
  H   H36       1.0  0.23523  0.49482  0.00476  1.0000
  H   H37       1.0  0.20520  0.47484  0.84212  1.0000
  H   H38       1.0  0.70520  0.02516  0.65788  1.0000
  H   H39       1.0  0.79479  0.52516  0.15787  1.0000
  H   H40       1.0  0.29480  0.97484  0.34212  1.0000
  H   H41       1.0  0.60871  0.28379  0.86292  1.0000
  H   H42       1.0  0.10871  0.21621  0.63709  1.0000
  H   H43       1.0  0.39129  0.71620  0.13708  1.0000
  H   H44       1.0  0.89129  0.78379  0.36292  1.0000
  H   H45       1.0  0.96438  0.36358  0.92951  1.0000
  H   H46       1.0  0.46438  0.13642  0.57049  1.0000
  H   H47       1.0  0.03562  0.63642  0.07048  1.0000
  H   H48       1.0  0.53562  0.86358  0.42951  1.0000
  C   C1        1.0  0.74047  0.40448  0.59647  1.0000
  C   C2        1.0  0.24047  0.09552  0.90353  1.0000
  C   C3        1.0  0.25953  0.59553  0.40353  1.0000
  C   C4        1.0  0.75954  0.90448  0.09647  1.0000
  C   C5        1.0  0.22402  0.82341  0.60072  1.0000
  C   C6        1.0  0.72402  0.67659  0.89928  1.0000
  C   C7        1.0  0.77598  0.17659  0.39928  1.0000
  C   C8        1.0  0.27599  0.32341  0.10072  1.0000
  C   C9        1.0  0.80777  0.40122  0.68954  1.0000
  C   C10       1.0  0.30778  0.09878  0.81046  1.0000
  C   C11       1.0  0.19222  0.59879  0.31045  1.0000
  C   C12       1.0  0.69223  0.90122  0.18954  1.0000
  C   C13       1.0  0.06058  0.90933  0.58998  1.0000
  C   C14       1.0  0.56058  0.59067  0.91002  1.0000
  C   C15       1.0  0.93941  0.09067  0.41002  1.0000
  C   C16       1.0  0.43942  0.40933  0.08998  1.0000
  C   C17       1.0  0.00137  0.45040  0.72782  1.0000
  C   C18       1.0  0.50137  0.04960  0.77219  1.0000
  C   C19       1.0  0.99862  0.54960  0.27218  1.0000
  C   C20       1.0  0.49864  0.95040  0.22782  1.0000
  C   C21       1.0  0.66546  0.34356  0.73978  1.0000
  C   C22       1.0  0.16546  0.15644  0.76023  1.0000
  C   C23       1.0  0.33453  0.65644  0.26022  1.0000
  C   C24       1.0  0.83454  0.84356  0.23978  1.0000
  C   C25       1.0  0.09250  0.96026  0.50598  1.0000
  C   C26       1.0  0.59250  0.53974  0.99401  1.0000
  C   C27       1.0  0.90750  0.03974  0.49402  1.0000
  C   C28       1.0  0.40750  0.46026  0.00598  1.0000
  C   C29       1.0  0.15471  0.51547  0.67879  1.0000
  C   C30       1.0  0.65471  0.98453  0.82121  1.0000
  C   C31       1.0  0.84529  0.48454  0.32120  1.0000
  C   C32       1.0  0.34530  0.01547  0.17879  1.0000
  C   C33       1.0  0.05334  0.43694  0.81446  1.0000
  C   C34       1.0  0.55334  0.06306  0.68554  1.0000
  C   C35       1.0  0.94666  0.56306  0.18554  1.0000
  C   C36       1.0  0.44667  0.93694  0.31446  1.0000
  C   C37       1.0  0.71958  0.33095  0.82583  1.0000
  C   C38       1.0  0.21957  0.16905  0.67418  1.0000
  C   C39       1.0  0.28043  0.66905  0.17417  1.0000
  C   C40       1.0  0.78042  0.83095  0.32583  1.0000
  C   C41       1.0  0.91683  0.37629  0.86323  1.0000
  C   C42       1.0  0.41683  0.12371  0.63677  1.0000
  C   C43       1.0  0.08315  0.62372  0.13677  1.0000
  C   C44       1.0  0.58316  0.87629  0.36323  1.0000
  O   O1        1.0  0.61283  0.47526  0.57240  1.0000
  O   O2        1.0  0.11283  0.02474  0.92760  1.0000
  O   O3        1.0  0.38717  0.52474  0.42760  1.0000
  O   O4        1.0  0.88717  0.97526  0.07240  1.0000
  O   O5        1.0  0.42241  0.81822  0.56774  1.0000
  O   O6        1.0  0.92241  0.68178  0.93226  1.0000
  O   O7        1.0  0.57758  0.18178  0.43225  1.0000
  O   O8        1.0  0.07759  0.31822  0.06775  1.0000
  O   O9        1.0  0.72068  0.69052  0.68198  1.0000
  O   O10       1.0  0.22067  0.80947  0.81802  1.0000
  O   O11       1.0  0.27932  0.30948  0.31802  1.0000
  O   O12       1.0  0.77933  0.19052  0.18198  1.0000
  O   O13       1.0  0.15300  0.74861  0.64497  1.0000
  O   O14       1.0  0.65300  0.75139  0.85503  1.0000
  O   O15       1.0  0.84700  0.25139  0.35503  1.0000
  O   O16       1.0  0.34701  0.24861  0.14498  1.0000
  O   O17       1.0  0.75034  0.65440  0.48947  1.0000
  O   O18       1.0  0.25034  0.84560  0.01053  1.0000
  O   O19       1.0  0.24967  0.34560  0.51053  1.0000
  O   O20       1.0  0.74967  0.15440  0.98947  1.0000
  O   O21       1.0  0.12640  0.51749  0.59604  1.0000
  O   O22       1.0  0.62640  0.98250  0.90396  1.0000
  O   O23       1.0  0.87360  0.48251  0.40396  1.0000
  O   O24       1.0  0.37361  0.01749  0.09604  1.0000
  O   O25       1.0  0.31247  0.56826  0.71648  1.0000
  O   O26       1.0  0.81247  0.93174  0.78352  1.0000
  O   O27       1.0  0.68753  0.43174  0.28352  1.0000
  O   O28       1.0  0.18754  0.06826  0.21648  1.0000
  O   O29       1.0  0.79131  0.32996  0.54347  1.0000
  O   O30       1.0  0.29131  0.17005  0.95654  1.0000
  O   O31       1.0  0.20869  0.67005  0.45653  1.0000
  O   O32       1.0  0.70869  0.82995  0.04347  1.0000
