data_image0
_chemical_formula_structural       Gd4H48C44O32
_chemical_formula_sum              "Gd4 H48 C44 O32"
_cell_length_a       5.8226
_cell_length_b       13.3152
_cell_length_c       15.499
_cell_angle_alpha    93.9547
_cell_angle_beta     90
_cell_angle_gamma    90

_space_group_name_H-M_alt    "P 1"
_space_group_IT_number       1

loop_
  _space_group_symop_operation_xyz
  'x, y, z'

loop_
  _atom_site_type_symbol
  _atom_site_label
  _atom_site_symmetry_multiplicity
  _atom_site_fract_x
  _atom_site_fract_y
  _atom_site_fract_z
  _atom_site_occupancy
  Gd  Gd1       1.0  0.56076  0.36701  0.41774  1.0000
  Gd  Gd2       1.0  0.06076  0.13300  0.08226  1.0000
  Gd  Gd3       1.0  0.43924  0.63300  0.58226  1.0000
  Gd  Gd4       1.0  0.93924  0.86700  0.91774  1.0000
  H   H1        1.0  0.12434  0.28235  0.33307  1.0000
  H   H2        1.0  0.62434  0.21765  0.16693  1.0000
  H   H3        1.0  0.87566  0.71765  0.66693  1.0000
  H   H4        1.0  0.37566  0.78235  0.83307  1.0000
  H   H5        1.0  0.30907  0.28575  0.25695  1.0000
  H   H6        1.0  0.80906  0.21425  0.24305  1.0000
  H   H7        1.0  0.69094  0.71425  0.74305  1.0000
  H   H8        1.0  0.19094  0.78575  0.75695  1.0000
  H   H9        1.0  0.09820  0.31050  0.50519  1.0000
  H   H10       1.0  0.59820  0.18950  0.99481  1.0000
  H   H11       1.0  0.90180  0.68951  0.49481  1.0000
  H   H12       1.0  0.40180  0.81050  0.00519  1.0000
  H   H13       1.0  0.20137  0.41099  0.54128  1.0000
  H   H14       1.0  0.70137  0.08901  0.95872  1.0000
  H   H15       1.0  0.79863  0.58901  0.45872  1.0000
  H   H16       1.0  0.29863  0.91099  0.04128  1.0000
  H   H17       1.0  0.79933  0.52550  0.15687  1.0000
  H   H18       1.0  0.29933  0.97450  0.34312  1.0000
  H   H19       1.0  0.20068  0.47449  0.84313  1.0000
  H   H20       1.0  0.70066  0.02551  0.65687  1.0000
  H   H21       1.0  0.48753  0.69338  0.28780  1.0000
  H   H22       1.0  0.98755  0.80662  0.21220  1.0000
  H   H23       1.0  0.51246  0.30662  0.71220  1.0000
  H   H24       1.0  0.01246  0.19337  0.78781  1.0000
  H   H25       1.0  0.39266  0.71618  0.13532  1.0000
  H   H26       1.0  0.89265  0.78381  0.36468  1.0000
  H   H27       1.0  0.60735  0.28381  0.86468  1.0000
  H   H28       1.0  0.10733  0.21618  0.63532  1.0000
  H   H29       1.0  0.11722  0.11917  0.40384  1.0000
  H   H30       1.0  0.61722  0.38083  0.09616  1.0000
  H   H31       1.0  0.88277  0.88082  0.59616  1.0000
  H   H32       1.0  0.38277  0.61917  0.90384  1.0000
  H   H33       1.0  0.91663  0.03667  0.35330  1.0000
  H   H34       1.0  0.41664  0.46333  0.14670  1.0000
  H   H35       1.0  0.08335  0.96332  0.64670  1.0000
  H   H36       1.0  0.58337  0.53667  0.85331  1.0000
  H   H37       1.0  0.03806  0.63679  0.06898  1.0000
  H   H38       1.0  0.53804  0.86320  0.43101  1.0000
  H   H39       1.0  0.96196  0.36320  0.93102  1.0000
  H   H40       1.0  0.46194  0.13679  0.56898  1.0000
  H   H41       1.0  0.73665  0.00549  0.49489  1.0000
  H   H42       1.0  0.23663  0.49450  0.00511  1.0000
  H   H43       1.0  0.26336  0.99451  0.50512  1.0000
  H   H44       1.0  0.76335  0.50550  0.99489  1.0000
  H   H45       1.0  0.91299  0.09711  0.54853  1.0000
  H   H46       1.0  0.41299  0.40289  0.95147  1.0000
  H   H47       1.0  0.08702  0.90289  0.45147  1.0000
  H   H48       1.0  0.58700  0.59711  0.04853  1.0000
  C   C1        1.0  0.84814  0.48608  0.32084  1.0000
  C   C2        1.0  0.34816  0.01392  0.17916  1.0000
  C   C3        1.0  0.15185  0.51392  0.67917  1.0000
  C   C4        1.0  0.65187  0.98608  0.82083  1.0000
  C   C5        1.0  0.25852  0.59808  0.40319  1.0000
  C   C6        1.0  0.75853  0.90193  0.09680  1.0000
  C   C7        1.0  0.74148  0.40193  0.59681  1.0000
  C   C8        1.0  0.24150  0.09807  0.90319  1.0000
  C   C9        1.0  0.77810  0.17634  0.39891  1.0000
  C   C10       1.0  0.27810  0.32366  0.10110  1.0000
  C   C11       1.0  0.22190  0.82366  0.60110  1.0000
  C   C12       1.0  0.72189  0.67634  0.89891  1.0000
  C   C13       1.0  0.00117  0.55066  0.27136  1.0000
  C   C14       1.0  0.50118  0.94935  0.22863  1.0000
  C   C15       1.0  0.99882  0.44935  0.72864  1.0000
  C   C16       1.0  0.49883  0.05065  0.77136  1.0000
  C   C17       1.0  0.19367  0.59982  0.30960  1.0000
  C   C18       1.0  0.69369  0.90018  0.19040  1.0000
  C   C19       1.0  0.80632  0.40018  0.69040  1.0000
  C   C20       1.0  0.30633  0.09982  0.80960  1.0000
  C   C21       1.0  0.95012  0.56362  0.18443  1.0000
  C   C22       1.0  0.45013  0.93638  0.31557  1.0000
  C   C23       1.0  0.04988  0.43638  0.81557  1.0000
  C   C24       1.0  0.54987  0.06361  0.68443  1.0000
  C   C25       1.0  0.33570  0.65704  0.25904  1.0000
  C   C26       1.0  0.83570  0.84296  0.24096  1.0000
  C   C27       1.0  0.66430  0.34296  0.74097  1.0000
  C   C28       1.0  0.16430  0.15703  0.75904  1.0000
  C   C29       1.0  0.28217  0.66936  0.17269  1.0000
  C   C30       1.0  0.78216  0.83064  0.32731  1.0000
  C   C31       1.0  0.71784  0.33064  0.82731  1.0000
  C   C32       1.0  0.21783  0.16935  0.67269  1.0000
  C   C33       1.0  0.94097  0.09075  0.40976  1.0000
  C   C34       1.0  0.44097  0.40925  0.09025  1.0000
  C   C35       1.0  0.05902  0.90925  0.59025  1.0000
  C   C36       1.0  0.55902  0.59075  0.90975  1.0000
  C   C37       1.0  0.08591  0.62413  0.13538  1.0000
  C   C38       1.0  0.58591  0.87587  0.36462  1.0000
  C   C39       1.0  0.91409  0.37587  0.86462  1.0000
  C   C40       1.0  0.41408  0.12413  0.63538  1.0000
  C   C41       1.0  0.90825  0.03974  0.49391  1.0000
  C   C42       1.0  0.40823  0.46026  0.00609  1.0000
  C   C43       1.0  0.09176  0.96026  0.50609  1.0000
  C   C44       1.0  0.59175  0.53974  0.99391  1.0000
  O   O1        1.0  0.38688  0.52866  0.42933  1.0000
  O   O2        1.0  0.88689  0.97134  0.07066  1.0000
  O   O3        1.0  0.61312  0.47134  0.57066  1.0000
  O   O4        1.0  0.11313  0.02866  0.92933  1.0000
  O   O5        1.0  0.27752  0.30993  0.31759  1.0000
  O   O6        1.0  0.77752  0.19007  0.18241  1.0000
  O   O7        1.0  0.72248  0.69007  0.68241  1.0000
  O   O8        1.0  0.22248  0.80994  0.81759  1.0000
  O   O9        1.0  0.87692  0.48430  0.40372  1.0000
  O   O10       1.0  0.37693  0.01570  0.09628  1.0000
  O   O11       1.0  0.12308  0.51570  0.59628  1.0000
  O   O12       1.0  0.62309  0.98430  0.90372  1.0000
  O   O13       1.0  0.58054  0.18105  0.43187  1.0000
  O   O14       1.0  0.08054  0.31895  0.06813  1.0000
  O   O15       1.0  0.41946  0.81895  0.56813  1.0000
  O   O16       1.0  0.91946  0.68104  0.93187  1.0000
  O   O17       1.0  0.69073  0.43361  0.28330  1.0000
  O   O18       1.0  0.19074  0.06639  0.21670  1.0000
  O   O19       1.0  0.30927  0.56639  0.71671  1.0000
  O   O20       1.0  0.80928  0.93361  0.78329  1.0000
  O   O21       1.0  0.84858  0.25123  0.35465  1.0000
  O   O22       1.0  0.34858  0.24877  0.14535  1.0000
  O   O23       1.0  0.15142  0.74877  0.64535  1.0000
  O   O24       1.0  0.65141  0.75123  0.85465  1.0000
  O   O25       1.0  0.24666  0.34509  0.51063  1.0000
  O   O26       1.0  0.74666  0.15491  0.98937  1.0000
  O   O27       1.0  0.75334  0.65491  0.48937  1.0000
  O   O28       1.0  0.25334  0.84509  0.01063  1.0000
  O   O29       1.0  0.20513  0.67297  0.45485  1.0000
  O   O30       1.0  0.70513  0.82704  0.04515  1.0000
  O   O31       1.0  0.79487  0.32704  0.54515  1.0000
  O   O32       1.0  0.29489  0.17296  0.95485  1.0000
