data_image0
_chemical_formula_structural       Tm4H48C44O32
_chemical_formula_sum              "Tm4 H48 C44 O32"
_cell_length_a       5.75338
_cell_length_b       13.2656
_cell_length_c       15.5139
_cell_angle_alpha    94.4991
_cell_angle_beta     90
_cell_angle_gamma    90

_space_group_name_H-M_alt    "P 1"
_space_group_IT_number       1

loop_
  _space_group_symop_operation_xyz
  'x, y, z'

loop_
  _atom_site_type_symbol
  _atom_site_label
  _atom_site_symmetry_multiplicity
  _atom_site_fract_x
  _atom_site_fract_y
  _atom_site_fract_z
  _atom_site_occupancy
  Tm  Tm1       1.0  0.44086  0.36476  0.41537  1.0000
  Tm  Tm2       1.0  0.94086  0.13524  0.08463  1.0000
  Tm  Tm3       1.0  0.55913  0.63523  0.58463  1.0000
  Tm  Tm4       1.0  0.05914  0.86477  0.91537  1.0000
  H   H1        1.0  0.87374  0.28088  0.33381  1.0000
  H   H2        1.0  0.37375  0.21912  0.16618  1.0000
  H   H3        1.0  0.12625  0.71912  0.66618  1.0000
  H   H4        1.0  0.62626  0.78088  0.83381  1.0000
  H   H5        1.0  0.68871  0.28534  0.25714  1.0000
  H   H6        1.0  0.18871  0.21466  0.24286  1.0000
  H   H7        1.0  0.31129  0.71466  0.74286  1.0000
  H   H8        1.0  0.81129  0.78534  0.75714  1.0000
  H   H9        1.0  0.89695  0.31240  0.50308  1.0000
  H   H10       1.0  0.39696  0.18760  0.99692  1.0000
  H   H11       1.0  0.10304  0.68759  0.49692  1.0000
  H   H12       1.0  0.60305  0.81240  0.00308  1.0000
  H   H13       1.0  0.79168  0.41336  0.53970  1.0000
  H   H14       1.0  0.29170  0.08664  0.96030  1.0000
  H   H15       1.0  0.20831  0.58663  0.46030  1.0000
  H   H16       1.0  0.70832  0.91337  0.03970  1.0000
  H   H17       1.0  0.08820  0.03613  0.35377  1.0000
  H   H18       1.0  0.58822  0.46387  0.14623  1.0000
  H   H19       1.0  0.91178  0.96386  0.64623  1.0000
  H   H20       1.0  0.41178  0.53614  0.85377  1.0000
  H   H21       1.0  0.88391  0.11919  0.40399  1.0000
  H   H22       1.0  0.38393  0.38082  0.09602  1.0000
  H   H23       1.0  0.11607  0.88081  0.59602  1.0000
  H   H24       1.0  0.61608  0.61919  0.90398  1.0000
  H   H25       1.0  0.21055  0.52405  0.15848  1.0000
  H   H26       1.0  0.71055  0.97595  0.34152  1.0000
  H   H27       1.0  0.78947  0.47595  0.84152  1.0000
  H   H28       1.0  0.28946  0.02405  0.65848  1.0000
  H   H29       1.0  0.08766  0.09770  0.54907  1.0000
  H   H30       1.0  0.58767  0.40230  0.95094  1.0000
  H   H31       1.0  0.91233  0.90228  0.45093  1.0000
  H   H32       1.0  0.41232  0.59771  0.04907  1.0000
  H   H33       1.0  0.26669  0.00515  0.49563  1.0000
  H   H34       1.0  0.76670  0.49485  0.00437  1.0000
  H   H35       1.0  0.73330  0.99484  0.50437  1.0000
  H   H36       1.0  0.23331  0.50516  0.99563  1.0000
  H   H37       1.0  0.61098  0.71600  0.13867  1.0000
  H   H38       1.0  0.11097  0.78400  0.36133  1.0000
  H   H39       1.0  0.38904  0.28401  0.86133  1.0000
  H   H40       1.0  0.88904  0.21600  0.63867  1.0000
  H   H41       1.0  0.51368  0.69186  0.29077  1.0000
  H   H42       1.0  0.01369  0.80814  0.20923  1.0000
  H   H43       1.0  0.48631  0.30813  0.70923  1.0000
  H   H44       1.0  0.98631  0.19187  0.79077  1.0000
  H   H45       1.0  0.96855  0.63602  0.07168  1.0000
  H   H46       1.0  0.46854  0.86398  0.42832  1.0000
  H   H47       1.0  0.03147  0.36399  0.92832  1.0000
  H   H48       1.0  0.53147  0.13602  0.57168  1.0000
  C   C1        1.0  0.15805  0.48226  0.32142  1.0000
  C   C2        1.0  0.65806  0.01774  0.17858  1.0000
  C   C3        1.0  0.84194  0.51774  0.67859  1.0000
  C   C4        1.0  0.34194  0.98227  0.82141  1.0000
  C   C5        1.0  0.22614  0.17698  0.40013  1.0000
  C   C6        1.0  0.72616  0.32302  0.09987  1.0000
  C   C7        1.0  0.77384  0.82301  0.59987  1.0000
  C   C8        1.0  0.27385  0.67699  0.90013  1.0000
  C   C9        1.0  0.73898  0.59149  0.40395  1.0000
  C   C10       1.0  0.23899  0.90850  0.09605  1.0000
  C   C11       1.0  0.26101  0.40850  0.59605  1.0000
  C   C12       1.0  0.76102  0.09150  0.90395  1.0000
  C   C13       1.0  0.81027  0.59759  0.31145  1.0000
  C   C14       1.0  0.31028  0.90240  0.18855  1.0000
  C   C15       1.0  0.18972  0.40240  0.68855  1.0000
  C   C16       1.0  0.68973  0.09761  0.81145  1.0000
  C   C17       1.0  0.00507  0.54826  0.27287  1.0000
  C   C18       1.0  0.50508  0.95173  0.22713  1.0000
  C   C19       1.0  0.99493  0.45173  0.72713  1.0000
  C   C20       1.0  0.49493  0.04827  0.77287  1.0000
  C   C21       1.0  0.06215  0.09073  0.41035  1.0000
  C   C22       1.0  0.56217  0.40927  0.08965  1.0000
  C   C23       1.0  0.93783  0.90926  0.58965  1.0000
  C   C24       1.0  0.43783  0.59074  0.91035  1.0000
  C   C25       1.0  0.05788  0.56215  0.18636  1.0000
  C   C26       1.0  0.55788  0.93785  0.31364  1.0000
  C   C27       1.0  0.94213  0.43785  0.81364  1.0000
  C   C28       1.0  0.44213  0.06215  0.68636  1.0000
  C   C29       1.0  0.09323  0.03980  0.49430  1.0000
  C   C30       1.0  0.59325  0.46020  0.00570  1.0000
  C   C31       1.0  0.90675  0.96019  0.50570  1.0000
  C   C32       1.0  0.40676  0.53981  0.99430  1.0000
  C   C33       1.0  0.72223  0.66866  0.17563  1.0000
  C   C34       1.0  0.22223  0.83134  0.32437  1.0000
  C   C35       1.0  0.27778  0.33135  0.82438  1.0000
  C   C36       1.0  0.77778  0.16866  0.67562  1.0000
  C   C37       1.0  0.66758  0.65579  0.26165  1.0000
  C   C38       1.0  0.16759  0.84420  0.23835  1.0000
  C   C39       1.0  0.33241  0.34420  0.73835  1.0000
  C   C40       1.0  0.83242  0.15580  0.76165  1.0000
  C   C41       1.0  0.92075  0.62313  0.13795  1.0000
  C   C42       1.0  0.42074  0.87687  0.36205  1.0000
  C   C43       1.0  0.07928  0.37688  0.86205  1.0000
  C   C44       1.0  0.57927  0.12313  0.63795  1.0000
  O   O1        1.0  0.13128  0.48033  0.40429  1.0000
  O   O2        1.0  0.63130  0.01966  0.09571  1.0000
  O   O3        1.0  0.86869  0.51966  0.59571  1.0000
  O   O4        1.0  0.36870  0.98034  0.90428  1.0000
  O   O5        1.0  0.61306  0.51859  0.42467  1.0000
  O   O6        1.0  0.11307  0.98140  0.07533  1.0000
  O   O7        1.0  0.38692  0.48140  0.57534  1.0000
  O   O8        1.0  0.88693  0.01860  0.92466  1.0000
  O   O9        1.0  0.78492  0.66516  0.45909  1.0000
  O   O10       1.0  0.28493  0.83484  0.04090  1.0000
  O   O11       1.0  0.21508  0.33483  0.54091  1.0000
  O   O12       1.0  0.71509  0.16516  0.95909  1.0000
  O   O13       1.0  0.71813  0.30773  0.31846  1.0000
  O   O14       1.0  0.21813  0.19227  0.18154  1.0000
  O   O15       1.0  0.28187  0.69227  0.68154  1.0000
  O   O16       1.0  0.78187  0.80773  0.81846  1.0000
  O   O17       1.0  0.74611  0.34647  0.50973  1.0000
  O   O18       1.0  0.24612  0.15353  0.99028  1.0000
  O   O19       1.0  0.25387  0.65352  0.49028  1.0000
  O   O20       1.0  0.75389  0.84648  0.00973  1.0000
  O   O21       1.0  0.42555  0.18313  0.43340  1.0000
  O   O22       1.0  0.92557  0.31687  0.06660  1.0000
  O   O23       1.0  0.57444  0.81686  0.56660  1.0000
  O   O24       1.0  0.07443  0.68313  0.93340  1.0000
  O   O25       1.0  0.15441  0.25163  0.35586  1.0000
  O   O26       1.0  0.65442  0.24837  0.14414  1.0000
  O   O27       1.0  0.84558  0.74836  0.64414  1.0000
  O   O28       1.0  0.34558  0.75163  0.85586  1.0000
  O   O29       1.0  0.31454  0.42817  0.28321  1.0000
  O   O30       1.0  0.81455  0.07182  0.21679  1.0000
  O   O31       1.0  0.68544  0.57182  0.71679  1.0000
  O   O32       1.0  0.18545  0.92818  0.78321  1.0000
