data_image0
_chemical_formula_structural       Nd2H24C22O16
_chemical_formula_sum              "Nd2 H24 C22 O16"
_cell_length_a       6.30049
_cell_length_b       8.87107
_cell_length_c       12.3994
_cell_angle_alpha    77.6722
_cell_angle_beta     79.2501
_cell_angle_gamma    70.6619

_space_group_name_H-M_alt    "P 1"
_space_group_IT_number       1

loop_
  _space_group_symop_operation_xyz
  'x, y, z'

loop_
  _atom_site_type_symbol
  _atom_site_label
  _atom_site_symmetry_multiplicity
  _atom_site_fract_x
  _atom_site_fract_y
  _atom_site_fract_z
  _atom_site_occupancy
  Nd  Nd1       1.0  0.10519  0.27100  0.10189  1.0000
  Nd  Nd2       1.0  0.87819  0.74030  0.90793  1.0000
  H   H1        1.0  0.67467  0.50355  0.33268  1.0000
  H   H2        1.0  0.34190  0.47956  0.86731  1.0000
  H   H3        1.0  0.26296  0.58129  0.75308  1.0000
  H   H4        1.0  0.89032  0.99334  0.15160  1.0000
  H   H5        1.0  0.70308  0.14464  0.19672  1.0000
  H   H6        1.0  0.00819  0.70671  0.50011  1.0000
  H   H7        1.0  0.84462  0.75386  0.32187  1.0000
  H   H8        1.0  0.70583  0.92136  0.53075  1.0000
  H   H9        1.0  0.64440  0.73757  0.55540  1.0000
  H   H10       1.0  0.29694  0.04039  0.63611  1.0000
  H   H11       1.0  0.24837  0.86078  0.62775  1.0000
  H   H12       1.0  0.34823  0.91713  0.41635  1.0000
  H   H13       1.0  0.10211  0.05559  0.47180  1.0000
  H   H14       1.0  0.56568  0.11603  0.39799  1.0000
  H   H15       1.0  0.32277  0.24761  0.46678  1.0000
  H   H16       1.0  0.04543  0.45792  0.66460  1.0000
  H   H17       1.0  0.94201  0.41683  0.49019  1.0000
  H   H18       1.0  0.50013  0.15229  0.68686  1.0000
  H   H19       1.0  0.07668  0.01702  0.88928  1.0000
  H   H20       1.0  0.27970  0.88010  0.83036  1.0000
  H   H21       1.0  0.32305  0.88543  0.10609  1.0000
  H   H22       1.0  0.47150  0.99339  0.04653  1.0000
  H   H23       1.0  0.41915  0.57671  0.50607  1.0000
  H   H24       1.0  0.67291  0.26351  0.50170  1.0000
  C   C1        1.0  0.49246  0.55948  0.33163  1.0000
  C   C2        1.0  0.06452  0.68068  0.12446  1.0000
  C   C3        1.0  0.16894  0.65805  0.22787  1.0000
  C   C4        1.0  0.40394  0.59126  0.23063  1.0000
  C   C5        1.0  0.11674  0.67265  0.42451  1.0000
  C   C6        1.0  0.02657  0.70039  0.32509  1.0000
  C   C7        1.0  0.57226  0.56546  0.12812  1.0000
  C   C8        1.0  0.69460  0.80906  0.69806  1.0000
  C   C9        1.0  0.60195  0.85214  0.58763  1.0000
  C   C10       1.0  0.34946  0.94177  0.58671  1.0000
  C   C11       1.0  0.28740  0.01225  0.46899  1.0000
  C   C12       1.0  0.37966  0.15404  0.41300  1.0000
  C   C13       1.0  0.92167  0.32804  0.87619  1.0000
  C   C14       1.0  0.83848  0.32257  0.77246  1.0000
  C   C15       1.0  0.92777  0.38985  0.66859  1.0000
  C   C16       1.0  0.86863  0.36809  0.57136  1.0000
  C   C17       1.0  0.62218  0.21741  0.68135  1.0000
  C   C18       1.0  0.57376  0.17448  0.89042  1.0000
  C   C19       1.0  0.28774  0.22902  0.30347  1.0000
  C   C20       1.0  0.34924  0.60049  0.42790  1.0000
  C   C21       1.0  0.68375  0.23656  0.77899  1.0000
  C   C22       1.0  0.71702  0.28106  0.57794  1.0000
  O   O1        1.0  0.90955  0.75709  0.69892  1.0000
  O   O2        1.0  0.56230  0.82524  0.78958  1.0000
  O   O3        1.0  0.92615  0.45999  0.89833  1.0000
  O   O4        1.0  0.99301  0.19357  0.94050  1.0000
  O   O5        1.0  0.27893  0.59177  0.82745  1.0000
  O   O6        1.0  0.62924  0.02343  0.92607  1.0000
  O   O7        1.0  0.42395  0.28037  0.94233  1.0000
  O   O8        1.0  0.73050  0.43316  0.13421  1.0000
  O   O9        1.0  0.87094  0.09078  0.18389  1.0000
  O   O10       1.0  0.11401  0.56241  0.07010  1.0000
  O   O11       1.0  0.92411  0.81651  0.09233  1.0000
  O   O12       1.0  0.11463  0.91552  0.85796  1.0000
  O   O13       1.0  0.55490  0.68164  0.04605  1.0000
  O   O14       1.0  0.07399  0.29028  0.30211  1.0000
  O   O15       1.0  0.42216  0.22346  0.21167  1.0000
  O   O16       1.0  0.34377  0.98933  0.10769  1.0000
