data_image0
_chemical_formula_structural       Cu6H16C20I4N16O4
_chemical_formula_sum              "Cu6 H16 C20 I4 N16 O4"
_cell_length_a       7.27025
_cell_length_b       7.27024
_cell_length_c       15.7632
_cell_angle_alpha    83.8282
_cell_angle_beta     83.8262
_cell_angle_gamma    79.5819

_space_group_name_H-M_alt    "P 1"
_space_group_IT_number       1

loop_
  _space_group_symop_operation_xyz
  'x, y, z'

loop_
  _atom_site_type_symbol
  _atom_site_label
  _atom_site_symmetry_multiplicity
  _atom_site_fract_x
  _atom_site_fract_y
  _atom_site_fract_z
  _atom_site_occupancy
  Cu  Cu1       1.0  0.32320  0.67680  0.25000  1.0000
  Cu  Cu2       1.0  0.67680  0.32320  0.75000  1.0000
  Cu  Cu3       1.0  0.45714  0.12047  0.44066  1.0000
  Cu  Cu4       1.0  0.87953  0.54286  0.05935  1.0000
  Cu  Cu5       1.0  0.54287  0.87953  0.55935  1.0000
  Cu  Cu6       1.0  0.12046  0.45713  0.94065  1.0000
  H   H1        1.0  0.05681  0.31421  0.45076  1.0000
  H   H2        1.0  0.68578  0.94320  0.04925  1.0000
  H   H3        1.0  0.94320  0.68579  0.54924  1.0000
  H   H4        1.0  0.31421  0.05680  0.95075  1.0000
  H   H5        1.0  0.89492  0.92452  0.22752  1.0000
  H   H6        1.0  0.07547  0.10508  0.27250  1.0000
  H   H7        1.0  0.10508  0.07548  0.77248  1.0000
  H   H8        1.0  0.92453  0.89492  0.72751  1.0000
  H   H9        1.0  0.62750  0.85244  0.33580  1.0000
  H   H10       1.0  0.14753  0.37248  0.16421  1.0000
  H   H11       1.0  0.37250  0.14755  0.66420  1.0000
  H   H12       1.0  0.85247  0.62751  0.83579  1.0000
  H   H13       1.0  0.71766  0.55318  0.43253  1.0000
  H   H14       1.0  0.44679  0.28233  0.06747  1.0000
  H   H15       1.0  0.28234  0.44682  0.56747  1.0000
  H   H16       1.0  0.55320  0.71768  0.93253  1.0000
  C   C1        1.0  0.00205  0.55317  0.35844  1.0000
  C   C2        1.0  0.44681  0.99795  0.14156  1.0000
  C   C3        1.0  0.99795  0.44683  0.64156  1.0000
  C   C4        1.0  0.55319  0.00205  0.85844  1.0000
  C   C5        1.0  0.12217  0.39629  0.39765  1.0000
  C   C6        1.0  0.60369  0.87784  0.10235  1.0000
  C   C7        1.0  0.87784  0.60370  0.60235  1.0000
  C   C8        1.0  0.39630  0.12216  0.89765  1.0000
  C   C9        1.0  0.90432  0.80648  0.27593  1.0000
  C   C10       1.0  0.19349  0.09568  0.22408  1.0000
  C   C11       1.0  0.09568  0.19352  0.72407  1.0000
  C   C12       1.0  0.80651  0.90433  0.77593  1.0000
  C   C13       1.0  0.56489  0.32906  0.28553  1.0000
  C   C14       1.0  0.67093  0.43511  0.21447  1.0000
  C   C15       1.0  0.43511  0.67093  0.71447  1.0000
  C   C16       1.0  0.32908  0.56490  0.78553  1.0000
  C   C17       1.0  0.81264  0.61118  0.38335  1.0000
  C   C18       1.0  0.38879  0.18735  0.11665  1.0000
  C   C19       1.0  0.18736  0.38881  0.61665  1.0000
  C   C20       1.0  0.61121  0.81265  0.88335  1.0000
  I   I1        1.0  0.69708  0.17364  0.54174  1.0000
  I   I2        1.0  0.82637  0.30291  0.95826  1.0000
  I   I3        1.0  0.30293  0.82637  0.45826  1.0000
  I   I4        1.0  0.17363  0.69708  0.04174  1.0000
  N   N1        1.0  0.05575  0.67845  0.29093  1.0000
  N   N2        1.0  0.32153  0.94425  0.20908  1.0000
  N   N3        1.0  0.94425  0.32155  0.70907  1.0000
  N   N4        1.0  0.67847  0.05575  0.79093  1.0000
  N   N5        1.0  0.30093  0.33619  0.37840  1.0000
  N   N6        1.0  0.66381  0.69907  0.12160  1.0000
  N   N7        1.0  0.69908  0.66381  0.62160  1.0000
  N   N8        1.0  0.33619  0.30093  0.87839  1.0000
  N   N9        1.0  0.39593  0.42713  0.31259  1.0000
  N   N10       1.0  0.57287  0.60407  0.18741  1.0000
  N   N11       1.0  0.60407  0.57287  0.68741  1.0000
  N   N12       1.0  0.42713  0.39594  0.81259  1.0000
  N   N13       1.0  0.75687  0.76911  0.33103  1.0000
  N   N14       1.0  0.23086  0.24313  0.16898  1.0000
  N   N15       1.0  0.24314  0.23088  0.66897  1.0000
  N   N16       1.0  0.76913  0.75687  0.83102  1.0000
  O   O1        1.0  0.63428  0.16613  0.31417  1.0000
  O   O2        1.0  0.83387  0.36572  0.18582  1.0000
  O   O3        1.0  0.36572  0.83387  0.68582  1.0000
  O   O4        1.0  0.16614  0.63428  0.81418  1.0000
