data_image0
_chemical_formula_structural       Cu2H48C66N8Cl4
_chemical_formula_sum              "Cu2 H48 C66 N8 Cl4"
_cell_length_a       11.6785
_cell_length_b       11.6783
_cell_length_c       11.8042
_cell_angle_alpha    91.7612
_cell_angle_beta     91.753
_cell_angle_gamma    104.749

_space_group_name_H-M_alt    "P 1"
_space_group_IT_number       1

loop_
  _space_group_symop_operation_xyz
  'x, y, z'

loop_
  _atom_site_type_symbol
  _atom_site_label
  _atom_site_symmetry_multiplicity
  _atom_site_fract_x
  _atom_site_fract_y
  _atom_site_fract_z
  _atom_site_occupancy
  Cu  Cu1       1.0  0.72699  0.12842  0.52994  1.0000
  Cu  Cu2       1.0  0.12837  0.72693  0.02993  1.0000
  H   H1        1.0  0.55725  0.13007  0.71390  1.0000
  H   H2        1.0  0.13004  0.55720  0.21391  1.0000
  H   H3        1.0  0.51012  0.03143  0.89641  1.0000
  H   H4        1.0  0.03142  0.51010  0.39643  1.0000
  H   H5        1.0  0.81288  0.88534  0.85305  1.0000
  H   H6        1.0  0.88533  0.81287  0.35313  1.0000
  H   H7        1.0  0.84238  0.98630  0.67008  1.0000
  H   H8        1.0  0.98626  0.84236  0.17012  1.0000
  H   H9        1.0  0.64064  0.60534  0.08826  1.0000
  H   H10       1.0  0.60535  0.64063  0.58832  1.0000
  H   H11       1.0  0.70905  0.73837  0.93481  1.0000
  H   H12       1.0  0.73842  0.70906  0.43490  1.0000
  H   H13       1.0  0.52710  0.98612  0.07510  1.0000
  H   H14       1.0  0.98613  0.52713  0.57515  1.0000
  H   H15       1.0  0.46438  0.85577  0.23138  1.0000
  H   H16       1.0  0.85577  0.46438  0.73143  1.0000
  H   H17       1.0  0.20289  0.95298  0.92163  1.0000
  H   H18       1.0  0.95297  0.20287  0.42164  1.0000
  H   H19       1.0  0.30181  0.16430  0.96094  1.0000
  H   H20       1.0  0.16429  0.30178  0.46093  1.0000
  H   H21       1.0  0.35936  0.07735  0.30927  1.0000
  H   H22       1.0  0.07733  0.35938  0.80926  1.0000
  H   H23       1.0  0.26414  0.86841  0.25227  1.0000
  H   H24       1.0  0.86840  0.26417  0.75229  1.0000
  H   H25       1.0  0.55521  0.46421  0.36726  1.0000
  H   H26       1.0  0.46417  0.55518  0.86729  1.0000
  H   H27       1.0  0.48476  0.24912  0.32195  1.0000
  H   H28       1.0  0.24910  0.48474  0.82198  1.0000
  H   H29       1.0  0.29319  0.32541  0.02509  1.0000
  H   H30       1.0  0.32543  0.29320  0.52506  1.0000
  H   H31       1.0  0.36601  0.53708  0.07029  1.0000
  H   H32       1.0  0.53708  0.36601  0.57029  1.0000
  H   H33       1.0  0.37489  0.78866  0.95325  1.0000
  H   H34       1.0  0.78866  0.37494  0.45328  1.0000
  H   H35       1.0  0.47458  0.78451  0.77015  1.0000
  H   H36       1.0  0.78453  0.47459  0.27019  1.0000
  H   H37       1.0  0.12826  0.70213  0.60204  1.0000
  H   H38       1.0  0.70213  0.12824  0.10210  1.0000
  H   H39       1.0  0.04227  0.70889  0.79320  1.0000
  H   H40       1.0  0.70886  0.04228  0.29326  1.0000
  H   H41       1.0  0.29844  0.52075  0.33643  1.0000
  H   H42       1.0  0.52068  0.29843  0.83650  1.0000
  H   H43       1.0  0.21672  0.56657  0.51739  1.0000
  H   H44       1.0  0.56651  0.21671  0.01743  1.0000
  H   H45       1.0  0.51583  0.86967  0.57679  1.0000
  H   H46       1.0  0.86964  0.51580  0.07678  1.0000
  H   H47       1.0  0.59875  0.82411  0.39880  1.0000
  H   H48       1.0  0.82409  0.59870  0.89880  1.0000
  C   C1        1.0  0.61198  0.07624  0.74959  1.0000
  C   C2        1.0  0.07622  0.61194  0.24959  1.0000
  C   C3        1.0  0.58695  0.02048  0.85139  1.0000
  C   C4        1.0  0.02049  0.58693  0.35142  1.0000
  C   C5        1.0  0.65495  0.94520  0.89106  1.0000
  C   C6        1.0  0.94520  0.65495  0.39111  1.0000
  C   C7        1.0  0.75173  0.93684  0.82560  1.0000
  C   C8        1.0  0.93685  0.75172  0.32564  1.0000
  C   C9        1.0  0.77127  0.99501  0.72471  1.0000
  C   C10       1.0  0.99499  0.77125  0.22472  1.0000
  C   C11       1.0  0.54519  0.71930  0.17019  1.0000
  C   C12       1.0  0.71931  0.54518  0.67024  1.0000
  C   C13       1.0  0.61623  0.68927  0.08575  1.0000
  C   C14       1.0  0.68928  0.61623  0.58582  1.0000
  C   C15       1.0  0.65421  0.76463  0.99850  1.0000
  C   C16       1.0  0.76466  0.65424  0.49859  1.0000
  C   C17       1.0  0.62255  0.87283  0.99043  1.0000
  C   C18       1.0  0.87285  0.62257  0.49050  1.0000
  C   C19       1.0  0.55403  0.90335  0.07701  1.0000
  C   C20       1.0  0.90337  0.55406  0.57708  1.0000
  C   C21       1.0  0.51724  0.82943  0.16603  1.0000
  C   C22       1.0  0.82946  0.51725  0.66609  1.0000
  C   C23       1.0  0.24128  0.98390  0.00572  1.0000
  C   C24       1.0  0.98391  0.24126  0.50573  1.0000
  C   C25       1.0  0.29478  0.10268  0.02940  1.0000
  C   C26       1.0  0.10268  0.29476  0.52940  1.0000
  C   C27       1.0  0.33722  0.14262  0.14038  1.0000
  C   C28       1.0  0.14261  0.33723  0.64037  1.0000
  C   C29       1.0  0.32733  0.05488  0.22148  1.0000
  C   C30       1.0  0.05488  0.32733  0.72149  1.0000
  C   C31       1.0  0.27418  0.93707  0.18999  1.0000
  C   C32       1.0  0.93707  0.27420  0.69001  1.0000
  C   C33       1.0  0.46825  0.51418  0.22015  1.0000
  C   C34       1.0  0.51417  0.46824  0.72017  1.0000
  C   C35       1.0  0.49941  0.43214  0.29126  1.0000
  C   C36       1.0  0.43211  0.49939  0.79129  1.0000
  C   C37       1.0  0.45818  0.31124  0.26577  1.0000
  C   C38       1.0  0.31121  0.45817  0.76578  1.0000
  C   C39       1.0  0.38486  0.26981  0.16838  1.0000
  C   C40       1.0  0.26980  0.38486  0.66836  1.0000
  C   C41       1.0  0.35465  0.35378  0.09786  1.0000
  C   C42       1.0  0.35378  0.35466  0.59784  1.0000
  C   C43       1.0  0.39584  0.47425  0.12277  1.0000
  C   C44       1.0  0.47425  0.39584  0.62277  1.0000
  C   C45       1.0  0.32361  0.77030  0.87307  1.0000
  C   C46       1.0  0.77029  0.32366  0.37310  1.0000
  C   C47       1.0  0.37865  0.76873  0.77069  1.0000
  C   C48       1.0  0.76874  0.37867  0.27071  1.0000
  C   C49       1.0  0.30929  0.73963  0.66973  1.0000
  C   C50       1.0  0.73965  0.30929  0.16977  1.0000
  C   C51       1.0  0.18621  0.71992  0.67800  1.0000
  C   C52       1.0  0.71991  0.18620  0.17805  1.0000
  C   C53       1.0  0.13721  0.72343  0.78298  1.0000
  C   C54       1.0  0.72342  0.13724  0.28303  1.0000
  C   C55       1.0  0.45393  0.66867  0.35460  1.0000
  C   C56       1.0  0.66864  0.45389  0.85463  1.0000
  C   C57       1.0  0.34552  0.59750  0.38903  1.0000
  C   C58       1.0  0.59746  0.34550  0.88907  1.0000
  C   C59       1.0  0.29945  0.62390  0.49030  1.0000
  C   C60       1.0  0.62384  0.29943  0.99036  1.0000
  C   C61       1.0  0.36000  0.72079  0.56077  1.0000
  C   C62       1.0  0.72077  0.35997  0.06080  1.0000
  C   C63       1.0  0.46782  0.79220  0.52538  1.0000
  C   C64       1.0  0.79217  0.46778  0.02540  1.0000
  C   C65       1.0  0.51409  0.76739  0.42299  1.0000
  C   C66       1.0  0.76736  0.51406  0.92301  1.0000
  N   N1        1.0  0.70100  0.06201  0.68512  1.0000
  N   N2        1.0  0.06196  0.70095  0.18510  1.0000
  N   N3        1.0  0.23076  0.90086  0.08416  1.0000
  N   N4        1.0  0.90086  0.23076  0.58418  1.0000
  N   N5        1.0  0.20503  0.74707  0.87944  1.0000
  N   N6        1.0  0.74710  0.20508  0.37946  1.0000
  N   N7        1.0  0.50088  0.63711  0.25250  1.0000
  N   N8        1.0  0.63710  0.50085  0.75254  1.0000
  Cl  Cl1       1.0  0.52654  0.12344  0.50130  1.0000
  Cl  Cl2       1.0  0.12350  0.52647  0.00129  1.0000
  Cl  Cl3       1.0  0.80036  0.96142  0.45455  1.0000
  Cl  Cl4       1.0  0.96144  0.80035  0.95461  1.0000
