data_image0
_chemical_formula_structural       ZnSiH20C24N8F6
_chemical_formula_sum              "Zn1 Si1 H20 C24 N8 F6"
_cell_length_a       7.76452
_cell_length_b       10.8469
_cell_length_c       12.1639
_cell_angle_alpha    85.6414
_cell_angle_beta     77.6637
_cell_angle_gamma    69.0231

_space_group_name_H-M_alt    "P 1"
_space_group_IT_number       1

loop_
  _space_group_symop_operation_xyz
  'x, y, z'

loop_
  _atom_site_type_symbol
  _atom_site_label
  _atom_site_symmetry_multiplicity
  _atom_site_fract_x
  _atom_site_fract_y
  _atom_site_fract_z
  _atom_site_occupancy
  Zn  Zn1       1.0  0.50000  1.00000  0.50000  1.0000
  Si  Si1       1.0  0.00000  1.00000  0.50000  1.0000
  H   H1        1.0  0.75808  0.11192  0.32205  1.0000
  H   H2        1.0  0.12988  0.11202  0.67809  1.0000
  H   H3        1.0  0.24192  0.88808  0.67795  1.0000
  H   H4        1.0  0.87012  0.88798  0.32191  1.0000
  H   H5        1.0  0.72544  0.27505  0.16442  1.0000
  H   H6        1.0  0.99988  0.27533  0.83574  1.0000
  H   H7        1.0  0.27457  0.72495  0.83558  1.0000
  H   H8        1.0  0.00012  0.72468  0.16425  1.0000
  H   H9        1.0  0.12142  0.38520  0.26945  1.0000
  H   H10       1.0  0.49338  0.38566  0.72977  1.0000
  H   H11       1.0  0.87858  0.61480  0.73055  1.0000
  H   H12       1.0  0.50662  0.61434  0.27023  1.0000
  H   H13       1.0  0.24374  0.50595  0.11114  1.0000
  H   H14       1.0  0.25025  0.50638  0.88888  1.0000
  H   H15       1.0  0.75626  0.49405  0.88886  1.0000
  H   H16       1.0  0.74974  0.49362  0.11112  1.0000
  H   H17       1.0  0.17718  0.20797  0.41498  1.0000
  H   H18       1.0  0.61439  0.20827  0.58429  1.0000
  H   H19       1.0  0.82282  0.79203  0.58502  1.0000
  H   H20       1.0  0.38561  0.79173  0.41571  1.0000
  C   C1        1.0  0.61960  0.17192  0.30560  1.0000
  C   C2        1.0  0.20840  0.17210  0.69434  1.0000
  C   C3        1.0  0.38041  0.82808  0.69440  1.0000
  C   C4        1.0  0.79160  0.82790  0.30566  1.0000
  C   C5        1.0  0.60110  0.26449  0.21961  1.0000
  C   C6        1.0  0.13459  0.26475  0.78034  1.0000
  C   C7        1.0  0.39890  0.73551  0.78039  1.0000
  C   C8        1.0  0.86541  0.73525  0.21966  1.0000
  C   C9        1.0  0.26480  0.32540  0.27737  1.0000
  C   C10       1.0  0.40973  0.32583  0.72208  1.0000
  C   C11       1.0  0.73520  0.67460  0.72263  1.0000
  C   C12       1.0  0.59027  0.67417  0.27792  1.0000
  C   C13       1.0  0.38868  0.44170  0.11481  1.0000
  C   C14       1.0  0.16974  0.44203  0.88508  1.0000
  C   C15       1.0  0.61133  0.55830  0.88518  1.0000
  C   C16       1.0  0.83025  0.55797  0.11492  1.0000
  C   C17       1.0  0.41990  0.34366  0.20411  1.0000
  C   C18       1.0  0.23658  0.34404  0.79562  1.0000
  C   C19       1.0  0.58010  0.65633  0.79588  1.0000
  C   C20       1.0  0.76342  0.65596  0.20437  1.0000
  C   C21       1.0  0.29485  0.22780  0.35949  1.0000
  C   C22       1.0  0.47704  0.22815  0.63994  1.0000
  C   C23       1.0  0.70515  0.77220  0.64051  1.0000
  C   C24       1.0  0.52296  0.77185  0.36006  1.0000
  N   N1        1.0  0.46925  0.15233  0.37330  1.0000
  N   N2        1.0  0.37818  0.15253  0.62639  1.0000
  N   N3        1.0  0.53075  0.84767  0.62670  1.0000
  N   N4        1.0  0.62182  0.84747  0.37361  1.0000
  N   N5        1.0  0.52891  0.45089  0.03913  1.0000
  N   N6        1.0  0.02037  0.45095  0.96076  1.0000
  N   N7        1.0  0.47109  0.54911  0.96087  1.0000
  N   N8        1.0  0.97962  0.54905  0.03924  1.0000
  F   F1        1.0  0.22806  0.99990  0.49574  1.0000
  F   F2        1.0  0.77193  0.00010  0.50426  1.0000
  F   F3        1.0  0.08394  0.83164  0.50032  1.0000
  F   F4        1.0  0.91605  0.16836  0.49968  1.0000
  F   F5        1.0  0.95940  0.00045  0.64328  1.0000
  F   F6        1.0  0.04060  0.99955  0.35672  1.0000
