data_image0
_chemical_formula_structural       Cu8H24C40N32O8
_chemical_formula_sum              "Cu8 H24 C40 N32 O8"
_cell_length_a       8.11273
_cell_length_b       9.91513
_cell_length_c       14.611
_cell_angle_alpha    90
_cell_angle_beta     90
_cell_angle_gamma    90

_space_group_name_H-M_alt    "P 1"
_space_group_IT_number       1

loop_
  _space_group_symop_operation_xyz
  'x, y, z'

loop_
  _atom_site_type_symbol
  _atom_site_label
  _atom_site_symmetry_multiplicity
  _atom_site_fract_x
  _atom_site_fract_y
  _atom_site_fract_z
  _atom_site_occupancy
  Cu  Cu1       1.0  0.38371  0.14640  0.07062  1.0000
  Cu  Cu2       1.0  0.11630  0.35360  0.07062  1.0000
  Cu  Cu3       1.0  0.88370  0.85360  0.42938  1.0000
  Cu  Cu4       1.0  0.61629  0.64639  0.42938  1.0000
  Cu  Cu5       1.0  0.61629  0.85361  0.92938  1.0000
  Cu  Cu6       1.0  0.88370  0.64640  0.92938  1.0000
  Cu  Cu7       1.0  0.11630  0.14640  0.57062  1.0000
  Cu  Cu8       1.0  0.38372  0.35360  0.57062  1.0000
  H   H1        1.0  0.05461  0.84096  0.28157  1.0000
  H   H2        1.0  0.44538  0.65903  0.28157  1.0000
  H   H3        1.0  0.55462  0.15903  0.21843  1.0000
  H   H4        1.0  0.94539  0.34097  0.21843  1.0000
  H   H5        1.0  0.94539  0.15904  0.71843  1.0000
  H   H6        1.0  0.55462  0.34097  0.71843  1.0000
  H   H7        1.0  0.44538  0.84097  0.78157  1.0000
  H   H8        1.0  0.05461  0.65903  0.78157  1.0000
  H   H9        1.0  0.25082  0.02324  0.25176  1.0000
  H   H10       1.0  0.24918  0.47675  0.25176  1.0000
  H   H11       1.0  0.75082  0.97675  0.24824  1.0000
  H   H12       1.0  0.74918  0.52324  0.24824  1.0000
  H   H13       1.0  0.74918  0.97676  0.74824  1.0000
  H   H14       1.0  0.75082  0.52325  0.74824  1.0000
  H   H15       1.0  0.24918  0.02325  0.75176  1.0000
  H   H16       1.0  0.25082  0.47676  0.75176  1.0000
  H   H17       1.0  0.92196  0.71096  0.15121  1.0000
  H   H18       1.0  0.57804  0.78904  0.15121  1.0000
  H   H19       1.0  0.42197  0.28904  0.34879  1.0000
  H   H20       1.0  0.07804  0.21096  0.34879  1.0000
  H   H21       1.0  0.07804  0.28904  0.84879  1.0000
  H   H22       1.0  0.42196  0.21096  0.84879  1.0000
  H   H23       1.0  0.57804  0.71096  0.65121  1.0000
  H   H24       1.0  0.92196  0.78904  0.65121  1.0000
  C   C1        1.0  0.08293  0.86444  0.21037  1.0000
  C   C2        1.0  0.41707  0.63556  0.21037  1.0000
  C   C3        1.0  0.58293  0.13556  0.28963  1.0000
  C   C4        1.0  0.91707  0.36444  0.28963  1.0000
  C   C5        1.0  0.91707  0.13556  0.78963  1.0000
  C   C6        1.0  0.58293  0.36444  0.78963  1.0000
  C   C7        1.0  0.41707  0.86445  0.71037  1.0000
  C   C8        1.0  0.08293  0.63556  0.71037  1.0000
  C   C9        1.0  0.17694  0.93243  0.04184  1.0000
  C   C10       1.0  0.32307  0.56757  0.04184  1.0000
  C   C11       1.0  0.67693  0.06757  0.45816  1.0000
  C   C12       1.0  0.82306  0.43243  0.45816  1.0000
  C   C13       1.0  0.82306  0.06757  0.95816  1.0000
  C   C14       1.0  0.67693  0.43243  0.95816  1.0000
  C   C15       1.0  0.32307  0.93243  0.54184  1.0000
  C   C16       1.0  0.17694  0.56757  0.54184  1.0000
  C   C17       1.0  0.19735  0.96898  0.19418  1.0000
  C   C18       1.0  0.30265  0.53101  0.19417  1.0000
  C   C19       1.0  0.69735  0.03101  0.30583  1.0000
  C   C20       1.0  0.80265  0.46899  0.30582  1.0000
  C   C21       1.0  0.80265  0.03102  0.80583  1.0000
  C   C22       1.0  0.69735  0.46899  0.80583  1.0000
  C   C23       1.0  0.30265  0.96899  0.69417  1.0000
  C   C24       1.0  0.19735  0.53101  0.69418  1.0000
  C   C25       1.0  0.01041  0.79184  0.13969  1.0000
  C   C26       1.0  0.48958  0.70816  0.13969  1.0000
  C   C27       1.0  0.51042  0.20816  0.36031  1.0000
  C   C28       1.0  0.98959  0.29184  0.36030  1.0000
  C   C29       1.0  0.98959  0.20816  0.86031  1.0000
  C   C30       1.0  0.51042  0.29184  0.86031  1.0000
  C   C31       1.0  0.48958  0.79184  0.63969  1.0000
  C   C32       1.0  0.01041  0.70816  0.63970  1.0000
  C   C33       1.0  0.06116  0.82838  0.05110  1.0000
  C   C34       1.0  0.43884  0.67162  0.05110  1.0000
  C   C35       1.0  0.56116  0.17162  0.44890  1.0000
  C   C36       1.0  0.93884  0.32838  0.44889  1.0000
  C   C37       1.0  0.93884  0.17162  0.94890  1.0000
  C   C38       1.0  0.56116  0.32838  0.94890  1.0000
  C   C39       1.0  0.43884  0.82838  0.55110  1.0000
  C   C40       1.0  0.06116  0.67162  0.55111  1.0000
  N   N1        1.0  0.24642  0.00474  0.10952  1.0000
  N   N2        1.0  0.25359  0.49525  0.10952  1.0000
  N   N3        1.0  0.74641  0.99525  0.39048  1.0000
  N   N4        1.0  0.75358  0.50474  0.39048  1.0000
  N   N5        1.0  0.75358  0.99526  0.89048  1.0000
  N   N6        1.0  0.74641  0.50475  0.89048  1.0000
  N   N7        1.0  0.25359  0.00475  0.60952  1.0000
  N   N8        1.0  0.24642  0.49526  0.60952  1.0000
  N   N9        1.0  0.11393  0.85650  0.90290  1.0000
  N   N10       1.0  0.38607  0.64350  0.90289  1.0000
  N   N11       1.0  0.61393  0.14350  0.59711  1.0000
  N   N12       1.0  0.88607  0.35650  0.59710  1.0000
  N   N13       1.0  0.88607  0.14350  0.09711  1.0000
  N   N14       1.0  0.61393  0.35650  0.09711  1.0000
  N   N15       1.0  0.38607  0.85650  0.40289  1.0000
  N   N16       1.0  0.11393  0.64350  0.40290  1.0000
  N   N17       1.0  0.02519  0.78459  0.96442  1.0000
  N   N18       1.0  0.47481  0.71542  0.96441  1.0000
  N   N19       1.0  0.52519  0.21542  0.53559  1.0000
  N   N20       1.0  0.97481  0.28459  0.53558  1.0000
  N   N21       1.0  0.97481  0.21541  0.03558  1.0000
  N   N22       1.0  0.52519  0.28459  0.03559  1.0000
  N   N23       1.0  0.47481  0.78458  0.46441  1.0000
  N   N24       1.0  0.02519  0.71541  0.46442  1.0000
  N   N25       1.0  0.20615  0.94539  0.94969  1.0000
  N   N26       1.0  0.29386  0.55461  0.94968  1.0000
  N   N27       1.0  0.70614  0.05461  0.55032  1.0000
  N   N28       1.0  0.79385  0.44539  0.55031  1.0000
  N   N29       1.0  0.79385  0.05461  0.05031  1.0000
  N   N30       1.0  0.70614  0.44539  0.05032  1.0000
  N   N31       1.0  0.29386  0.94539  0.44968  1.0000
  N   N32       1.0  0.20615  0.55461  0.44969  1.0000
  O   O1        1.0  0.30983  0.02814  0.91262  1.0000
  O   O2        1.0  0.19019  0.47185  0.91261  1.0000
  O   O3        1.0  0.80981  0.97185  0.58739  1.0000
  O   O4        1.0  0.69017  0.52814  0.58739  1.0000
  O   O5        1.0  0.69017  0.97186  0.08739  1.0000
  O   O6        1.0  0.80981  0.52815  0.08739  1.0000
  O   O7        1.0  0.19019  0.02815  0.41261  1.0000
  O   O8        1.0  0.30983  0.47186  0.41262  1.0000
