data_image0
_chemical_formula_structural       Cu4H16C32N20
_chemical_formula_sum              "Cu4 H16 C32 N20"
_cell_length_a       8.06008
_cell_length_b       9.19632
_cell_length_c       10.3548
_cell_angle_alpha    90.0004
_cell_angle_beta     90.0003
_cell_angle_gamma    90.3704

_space_group_name_H-M_alt    "P 1"
_space_group_IT_number       1

loop_
  _space_group_symop_operation_xyz
  'x, y, z'

loop_
  _atom_site_type_symbol
  _atom_site_label
  _atom_site_symmetry_multiplicity
  _atom_site_fract_x
  _atom_site_fract_y
  _atom_site_fract_z
  _atom_site_occupancy
  Cu  Cu1       1.0  0.35203  0.88434  0.91544  1.0000
  Cu  Cu2       1.0  0.64797  0.61566  0.41544  1.0000
  Cu  Cu3       1.0  0.64797  0.11566  0.08456  1.0000
  Cu  Cu4       1.0  0.35203  0.38434  0.58456  1.0000
  H   H1        1.0  0.36517  0.57694  0.93473  1.0000
  H   H2        1.0  0.63483  0.92306  0.43472  1.0000
  H   H3        1.0  0.63483  0.42306  0.06527  1.0000
  H   H4        1.0  0.36518  0.07694  0.56528  1.0000
  H   H5        1.0  0.08285  0.37616  0.32351  1.0000
  H   H6        1.0  0.91715  0.12385  0.82350  1.0000
  H   H7        1.0  0.91715  0.62383  0.67649  1.0000
  H   H8        1.0  0.08285  0.87615  0.17650  1.0000
  H   H9        1.0  0.16279  0.37859  0.90952  1.0000
  H   H10       1.0  0.83721  0.12140  0.40951  1.0000
  H   H11       1.0  0.83722  0.62140  0.09048  1.0000
  H   H12       1.0  0.16279  0.87860  0.59049  1.0000
  H   H13       1.0  0.29081  0.57273  0.34790  1.0000
  H   H14       1.0  0.70919  0.92728  0.84789  1.0000
  H   H15       1.0  0.70918  0.42727  0.65211  1.0000
  H   H16       1.0  0.29081  0.07272  0.15211  1.0000
  C   C1        1.0  0.10956  0.36354  0.11496  1.0000
  C   C2        1.0  0.89044  0.13647  0.61496  1.0000
  C   C3        1.0  0.89044  0.63647  0.88504  1.0000
  C   C4        1.0  0.10956  0.86353  0.38504  1.0000
  C   C5        1.0  0.34271  0.58881  0.14311  1.0000
  C   C6        1.0  0.65729  0.91119  0.64311  1.0000
  C   C7        1.0  0.65729  0.41119  0.85689  1.0000
  C   C8        1.0  0.34271  0.08880  0.35689  1.0000
  C   C9        1.0  0.46236  0.70791  0.15554  1.0000
  C   C10       1.0  0.53764  0.79209  0.65554  1.0000
  C   C11       1.0  0.53763  0.29209  0.84446  1.0000
  C   C12       1.0  0.46236  0.20791  0.34446  1.0000
  C   C13       1.0  0.30533  0.53252  0.02021  1.0000
  C   C14       1.0  0.69467  0.96748  0.52021  1.0000
  C   C15       1.0  0.69467  0.46748  0.97979  1.0000
  C   C16       1.0  0.30533  0.03253  0.47979  1.0000
  C   C17       1.0  0.14650  0.41886  0.23874  1.0000
  C   C18       1.0  0.85350  0.08115  0.73873  1.0000
  C   C19       1.0  0.85350  0.58114  0.76126  1.0000
  C   C20       1.0  0.14650  0.91885  0.26127  1.0000
  C   C21       1.0  0.19101  0.42067  0.00549  1.0000
  C   C22       1.0  0.80899  0.07933  0.50549  1.0000
  C   C23       1.0  0.80899  0.57932  0.99451  1.0000
  C   C24       1.0  0.19101  0.92068  0.49451  1.0000
  C   C25       1.0  0.98555  0.25570  0.09815  1.0000
  C   C26       1.0  0.01445  0.24430  0.59816  1.0000
  C   C27       1.0  0.01445  0.74430  0.90184  1.0000
  C   C28       1.0  0.98555  0.75570  0.40185  1.0000
  C   C29       1.0  0.26276  0.53013  0.25208  1.0000
  C   C30       1.0  0.73724  0.96987  0.75208  1.0000
  C   C31       1.0  0.73724  0.46987  0.74792  1.0000
  C   C32       1.0  0.26276  0.03013  0.24792  1.0000
  N   N1        1.0  0.47913  0.81862  0.07051  1.0000
  N   N2        1.0  0.52087  0.68138  0.57051  1.0000
  N   N3        1.0  0.52086  0.18137  0.92949  1.0000
  N   N4        1.0  0.47913  0.31863  0.42949  1.0000
  N   N5        1.0  0.60149  0.90384  0.11890  1.0000
  N   N6        1.0  0.39852  0.59615  0.61891  1.0000
  N   N7        1.0  0.39851  0.09615  0.88110  1.0000
  N   N8        1.0  0.60148  0.40385  0.38110  1.0000
  N   N9        1.0  0.87736  0.17214  0.08127  1.0000
  N   N10       1.0  0.12265  0.32787  0.58127  1.0000
  N   N11       1.0  0.12265  0.82786  0.91872  1.0000
  N   N12       1.0  0.87736  0.67214  0.41873  1.0000
  N   N13       1.0  0.57327  0.72506  0.25267  1.0000
  N   N14       1.0  0.42674  0.77494  0.75267  1.0000
  N   N15       1.0  0.42673  0.27494  0.74733  1.0000
  N   N16       1.0  0.57326  0.22506  0.24733  1.0000
  N   N17       1.0  0.65882  0.84748  0.22688  1.0000
  N   N18       1.0  0.34119  0.65252  0.72688  1.0000
  N   N19       1.0  0.34118  0.15251  0.77312  1.0000
  N   N20       1.0  0.65881  0.34748  0.27312  1.0000
