data_image0
_chemical_formula_structural       Gd4Cr4H16C24N4O24
_chemical_formula_sum              "Gd4 Cr4 H16 C24 N4 O24"
_cell_length_a       6.67043
_cell_length_b       7.08498
_cell_length_c       19.1487
_cell_angle_alpha    89.9999
_cell_angle_beta     90
_cell_angle_gamma    89.9999

_space_group_name_H-M_alt    "P 1"
_space_group_IT_number       1

loop_
  _space_group_symop_operation_xyz
  'x, y, z'

loop_
  _atom_site_type_symbol
  _atom_site_label
  _atom_site_symmetry_multiplicity
  _atom_site_fract_x
  _atom_site_fract_y
  _atom_site_fract_z
  _atom_site_occupancy
  Gd  Gd1       1.0  0.38303  0.64094  0.22401  1.0000
  Gd  Gd2       1.0  0.11696  0.35906  0.72401  1.0000
  Gd  Gd3       1.0  0.61697  0.14094  0.27599  1.0000
  Gd  Gd4       1.0  0.88303  0.85906  0.77599  1.0000
  Cr  Cr1       1.0  0.82996  0.62063  0.27948  1.0000
  Cr  Cr2       1.0  0.67004  0.37937  0.77948  1.0000
  Cr  Cr3       1.0  0.17004  0.12063  0.22052  1.0000
  Cr  Cr4       1.0  0.32997  0.87937  0.72052  1.0000
  H   H1        1.0  0.39801  0.33035  0.95457  1.0000
  H   H2        1.0  0.10200  0.66965  0.45457  1.0000
  H   H3        1.0  0.60200  0.83035  0.54543  1.0000
  H   H4        1.0  0.89800  0.16965  0.04543  1.0000
  H   H5        1.0  0.98909  0.70889  0.11624  1.0000
  H   H6        1.0  0.51091  0.29111  0.61623  1.0000
  H   H7        1.0  0.01091  0.20889  0.38376  1.0000
  H   H8        1.0  0.48909  0.79111  0.88376  1.0000
  H   H9        1.0  0.89765  0.70288  0.98921  1.0000
  H   H10       1.0  0.60235  0.29712  0.48921  1.0000
  H   H11       1.0  0.10235  0.20288  0.51078  1.0000
  H   H12       1.0  0.39765  0.79711  0.01078  1.0000
  H   H13       1.0  0.47343  0.35374  0.08322  1.0000
  H   H14       1.0  0.02657  0.64626  0.58322  1.0000
  H   H15       1.0  0.52658  0.85374  0.41678  1.0000
  H   H16       1.0  0.97342  0.14626  0.91678  1.0000
  C   C1        1.0  0.30341  0.41357  0.98924  1.0000
  C   C2        1.0  0.19659  0.58643  0.48924  1.0000
  C   C3        1.0  0.69659  0.91357  0.51076  1.0000
  C   C4        1.0  0.80341  0.08643  0.01076  1.0000
  C   C5        1.0  0.07575  0.62684  0.07880  1.0000
  C   C6        1.0  0.42425  0.37316  0.57880  1.0000
  C   C7        1.0  0.92425  0.12684  0.42120  1.0000
  C   C8        1.0  0.57575  0.87316  0.92120  1.0000
  C   C9        1.0  0.02514  0.62297  0.00847  1.0000
  C   C10       1.0  0.47486  0.37702  0.50847  1.0000
  C   C11       1.0  0.97486  0.12297  0.49153  1.0000
  C   C12       1.0  0.52513  0.87703  0.99153  1.0000
  C   C13       1.0  0.34602  0.42828  0.06036  1.0000
  C   C14       1.0  0.15398  0.57173  0.56036  1.0000
  C   C15       1.0  0.65398  0.92827  0.43964  1.0000
  C   C16       1.0  0.84602  0.07172  0.93964  1.0000
  C   C17       1.0  0.14413  0.51924  0.96228  1.0000
  C   C18       1.0  0.35587  0.48076  0.46228  1.0000
  C   C19       1.0  0.85587  0.01924  0.53771  1.0000
  C   C20       1.0  0.64413  0.98076  0.03771  1.0000
  C   C21       1.0  0.10534  0.53604  0.88526  1.0000
  C   C22       1.0  0.39466  0.46396  0.38526  1.0000
  C   C23       1.0  0.89466  0.03604  0.61474  1.0000
  C   C24       1.0  0.60534  0.96396  0.11474  1.0000
  N   N1        1.0  0.23780  0.53679  0.10424  1.0000
  N   N2        1.0  0.26221  0.46321  0.60424  1.0000
  N   N3        1.0  0.76221  0.03679  0.39576  1.0000
  N   N4        1.0  0.73779  0.96321  0.89576  1.0000
  O   O1        1.0  0.03601  0.69459  0.86542  1.0000
  O   O2        1.0  0.46399  0.30541  0.36542  1.0000
  O   O3        1.0  0.96399  0.19459  0.63457  1.0000
  O   O4        1.0  0.53601  0.80541  0.13458  1.0000
  O   O5        1.0  0.14386  0.39671  0.84604  1.0000
  O   O6        1.0  0.35614  0.60329  0.34604  1.0000
  O   O7        1.0  0.85614  0.89672  0.65396  1.0000
  O   O8        1.0  0.64386  0.10329  0.15396  1.0000
  O   O9        1.0  0.68515  0.81269  0.27550  1.0000
  O   O10       1.0  0.81485  0.18731  0.77550  1.0000
  O   O11       1.0  0.31485  0.31269  0.22450  1.0000
  O   O12       1.0  0.18514  0.68731  0.72450  1.0000
  O   O13       1.0  0.68089  0.45641  0.24047  1.0000
  O   O14       1.0  0.81911  0.54359  0.74047  1.0000
  O   O15       1.0  0.31911  0.95641  0.25953  1.0000
  O   O16       1.0  0.18089  0.04359  0.75953  1.0000
  O   O17       1.0  0.04021  0.65206  0.23578  1.0000
  O   O18       1.0  0.45979  0.34794  0.73578  1.0000
  O   O19       1.0  0.95979  0.15206  0.26423  1.0000
  O   O20       1.0  0.54021  0.84794  0.76423  1.0000
  O   O21       1.0  0.87490  0.56142  0.35871  1.0000
  O   O22       1.0  0.62510  0.43858  0.85871  1.0000
  O   O23       1.0  0.12510  0.06142  0.14130  1.0000
  O   O24       1.0  0.37490  0.93858  0.64130  1.0000
