data_image0
_chemical_formula_structural       Nd4Cr4H16C24N4O24
_chemical_formula_sum              "Nd4 Cr4 H16 C24 N4 O24"
_cell_length_a       6.78563
_cell_length_b       7.22762
_cell_length_c       19.3885
_cell_angle_alpha    90.0002
_cell_angle_beta     89.9999
_cell_angle_gamma    90

_space_group_name_H-M_alt    "P 1"
_space_group_IT_number       1

loop_
  _space_group_symop_operation_xyz
  'x, y, z'

loop_
  _atom_site_type_symbol
  _atom_site_label
  _atom_site_symmetry_multiplicity
  _atom_site_fract_x
  _atom_site_fract_y
  _atom_site_fract_z
  _atom_site_occupancy
  Nd  Nd1       1.0  0.88182  0.13933  0.22381  1.0000
  Nd  Nd2       1.0  0.61818  0.86066  0.72381  1.0000
  Nd  Nd3       1.0  0.11818  0.63933  0.27619  1.0000
  Nd  Nd4       1.0  0.38182  0.36066  0.77619  1.0000
  Cr  Cr1       1.0  0.32897  0.11922  0.27989  1.0000
  Cr  Cr2       1.0  0.17103  0.88076  0.77989  1.0000
  Cr  Cr3       1.0  0.67103  0.61923  0.22011  1.0000
  Cr  Cr4       1.0  0.82897  0.38077  0.72011  1.0000
  H   H1        1.0  0.95872  0.84629  0.08286  1.0000
  H   H2        1.0  0.54127  0.15371  0.58286  1.0000
  H   H3        1.0  0.04128  0.34629  0.41714  1.0000
  H   H4        1.0  0.45872  0.65371  0.91714  1.0000
  H   H5        1.0  0.88554  0.82666  0.95552  1.0000
  H   H6        1.0  0.61446  0.17335  0.45553  1.0000
  H   H7        1.0  0.11446  0.32665  0.54448  1.0000
  H   H8        1.0  0.38554  0.67335  0.04448  1.0000
  H   H9        1.0  0.49936  0.21474  0.11463  1.0000
  H   H10       1.0  0.00064  0.78526  0.61463  1.0000
  H   H11       1.0  0.50064  0.71474  0.38537  1.0000
  H   H12       1.0  0.99936  0.28526  0.88537  1.0000
  H   H13       1.0  0.41132  0.21292  0.98886  1.0000
  H   H14       1.0  0.08868  0.78709  0.48886  1.0000
  H   H15       1.0  0.58868  0.71292  0.51114  1.0000
  H   H16       1.0  0.91132  0.28708  0.01114  1.0000
  C   C1        1.0  0.83751  0.92457  0.05995  1.0000
  C   C2        1.0  0.66248  0.07543  0.55995  1.0000
  C   C3        1.0  0.16248  0.42457  0.44005  1.0000
  C   C4        1.0  0.33751  0.57543  0.94005  1.0000
  C   C5        1.0  0.79615  0.91230  0.98960  1.0000
  C   C6        1.0  0.70385  0.08769  0.48960  1.0000
  C   C7        1.0  0.20385  0.41231  0.51040  1.0000
  C   C8        1.0  0.29615  0.58769  0.01040  1.0000
  C   C9        1.0  0.58114  0.13058  0.07777  1.0000
  C   C10       1.0  0.91886  0.86942  0.57777  1.0000
  C   C11       1.0  0.41886  0.63058  0.42223  1.0000
  C   C12       1.0  0.08114  0.36942  0.92223  1.0000
  C   C13       1.0  0.64441  0.02188  0.96277  1.0000
  C   C14       1.0  0.85559  0.97812  0.46277  1.0000
  C   C15       1.0  0.35560  0.52188  0.53723  1.0000
  C   C16       1.0  0.14440  0.47812  0.03723  1.0000
  C   C17       1.0  0.53217  0.12899  0.00821  1.0000
  C   C18       1.0  0.96783  0.87101  0.50821  1.0000
  C   C19       1.0  0.46783  0.62899  0.49179  1.0000
  C   C20       1.0  0.03217  0.37101  0.99179  1.0000
  C   C21       1.0  0.60608  0.03670  0.88658  1.0000
  C   C22       1.0  0.89392  0.96330  0.38659  1.0000
  C   C23       1.0  0.39393  0.53671  0.61341  1.0000
  C   C24       1.0  0.10608  0.46330  0.11342  1.0000
  N   N1        1.0  0.73524  0.03483  0.10308  1.0000
  N   N2        1.0  0.76476  0.96517  0.60308  1.0000
  N   N3        1.0  0.26476  0.53483  0.39692  1.0000
  N   N4        1.0  0.23524  0.46517  0.89692  1.0000
  O   O1        1.0  0.64498  0.89920  0.84844  1.0000
  O   O2        1.0  0.85502  0.10081  0.34844  1.0000
  O   O3        1.0  0.35503  0.39920  0.65156  1.0000
  O   O4        1.0  0.14498  0.60080  0.15156  1.0000
  O   O5        1.0  0.53669  0.19115  0.86640  1.0000
  O   O6        1.0  0.96331  0.80886  0.36640  1.0000
  O   O7        1.0  0.46331  0.69114  0.63360  1.0000
  O   O8        1.0  0.03669  0.30885  0.13360  1.0000
  O   O9        1.0  0.53420  0.15262  0.23616  1.0000
  O   O10       1.0  0.96580  0.84738  0.73616  1.0000
  O   O11       1.0  0.46580  0.65261  0.26384  1.0000
  O   O12       1.0  0.03420  0.34739  0.76384  1.0000
  O   O13       1.0  0.37549  0.06013  0.35791  1.0000
  O   O14       1.0  0.12451  0.93987  0.85791  1.0000
  O   O15       1.0  0.62450  0.56013  0.14209  1.0000
  O   O16       1.0  0.87549  0.43987  0.64209  1.0000
  O   O17       1.0  0.18488  0.95722  0.24104  1.0000
  O   O18       1.0  0.31512  0.04278  0.74103  1.0000
  O   O19       1.0  0.81512  0.45722  0.25897  1.0000
  O   O20       1.0  0.68487  0.54278  0.75897  1.0000
  O   O21       1.0  0.18427  0.30665  0.27680  1.0000
  O   O22       1.0  0.31572  0.69335  0.77680  1.0000
  O   O23       1.0  0.81573  0.80665  0.22320  1.0000
  O   O24       1.0  0.68427  0.19335  0.72320  1.0000
