data_image0
_chemical_formula_structural       Mn4H12C20N8Cl2O10
_chemical_formula_sum              "Mn4 H12 C20 N8 Cl2 O10"
_cell_length_a       6.4691
_cell_length_b       7.29567
_cell_length_c       12.8928
_cell_angle_alpha    81.1977
_cell_angle_beta     87.2406
_cell_angle_gamma    74.3095

_space_group_name_H-M_alt    "P 1"
_space_group_IT_number       1

loop_
  _space_group_symop_operation_xyz
  'x, y, z'

loop_
  _atom_site_type_symbol
  _atom_site_label
  _atom_site_symmetry_multiplicity
  _atom_site_fract_x
  _atom_site_fract_y
  _atom_site_fract_z
  _atom_site_occupancy
  Mn  Mn1       1.0  0.50025  0.50214  0.00024  1.0000
  Mn  Mn2       1.0  0.81489  0.35841  0.78084  1.0000
  Mn  Mn3       1.0  0.18561  0.64266  0.22028  1.0000
  Mn  Mn4       1.0  0.99963  0.99203  0.49599  1.0000
  H   H1        1.0  0.30122  0.86646  0.82058  1.0000
  H   H2        1.0  0.69997  0.13769  0.17831  1.0000
  H   H3        1.0  0.44939  0.12841  0.72507  1.0000
  H   H4        1.0  0.55224  0.87642  0.27513  1.0000
  H   H5        1.0  0.96405  0.96848  0.93067  1.0000
  H   H6        1.0  0.03666  0.03379  0.07021  1.0000
  H   H7        1.0  0.77270  0.56097  0.54522  1.0000
  H   H8        1.0  0.22814  0.43093  0.45483  1.0000
  H   H9        1.0  0.49608  0.83548  0.45100  1.0000
  H   H10       1.0  0.50305  0.14773  0.54323  1.0000
  H   H11       1.0  0.31688  0.45904  0.77136  1.0000
  H   H12       1.0  0.68432  0.54780  0.23264  1.0000
  C   C1        1.0  0.44872  0.88996  0.84631  1.0000
  C   C2        1.0  0.55175  0.11429  0.15352  1.0000
  C   C3        1.0  0.53388  0.03418  0.79246  1.0000
  C   C4        1.0  0.46699  0.97024  0.20783  1.0000
  C   C5        1.0  0.81420  0.94723  0.90696  1.0000
  C   C6        1.0  0.18586  0.05620  0.09397  1.0000
  C   C7        1.0  0.72812  0.80586  0.96285  1.0000
  C   C8        1.0  0.27073  0.19835  0.03801  1.0000
  C   C9        1.0  0.83500  0.67478  0.05763  1.0000
  C   C10       1.0  0.16296  0.32974  0.94350  1.0000
  C   C11       1.0  0.60885  0.59921  0.57513  1.0000
  C   C12       1.0  0.39177  0.39431  0.42455  1.0000
  C   C13       1.0  0.45559  0.75012  0.52185  1.0000
  C   C14       1.0  0.54420  0.23877  0.47488  1.0000
  C   C15       1.0  0.20033  0.68134  0.64320  1.0000
  C   C16       1.0  0.79991  0.31583  0.35634  1.0000
  C   C17       1.0  0.35800  0.53685  0.69816  1.0000
  C   C18       1.0  0.64284  0.46475  0.30392  1.0000
  C   C19       1.0  0.96978  0.72933  0.67083  1.0000
  C   C20       1.0  0.03053  0.26916  0.32857  1.0000
  N   N1        1.0  0.54636  0.77537  0.93121  1.0000
  N   N2        1.0  0.45270  0.22929  0.06906  1.0000
  N   N3        1.0  0.71782  0.06221  0.82196  1.0000
  N   N4        1.0  0.28280  0.94175  0.17901  1.0000
  N   N5        1.0  0.56473  0.49388  0.66597  1.0000
  N   N6        1.0  0.43623  0.50634  0.33637  1.0000
  N   N7        1.0  0.24881  0.79536  0.55529  1.0000
  N   N8        1.0  0.75079  0.19567  0.44126  1.0000
  Cl  Cl1       1.0  0.05173  0.23382  0.64422  1.0000
  Cl  Cl2       1.0  0.94513  0.76673  0.35896  1.0000
  O   O1        1.0  0.80525  0.50887  0.07411  1.0000
  O   O2        1.0  0.19359  0.49521  0.92674  1.0000
  O   O3        1.0  0.94017  0.74792  0.11379  1.0000
  O   O4        1.0  0.05684  0.25652  0.88786  1.0000
  O   O5        1.0  0.85274  0.87507  0.60752  1.0000
  O   O6        1.0  0.14760  0.11953  0.38921  1.0000
  O   O7        1.0  0.89148  0.64038  0.74606  1.0000
  O   O8        1.0  0.10826  0.36265  0.25511  1.0000
  O   O9        1.0  0.62880  0.42195  0.88304  1.0000
  O   O10       1.0  0.37310  0.58259  0.11718  1.0000
