data_image0
_chemical_formula_structural       Zn4H48C56N8O20
_chemical_formula_sum              "Zn4 H48 C56 N8 O20"
_cell_length_a       7.14525
_cell_length_b       11.1954
_cell_length_c       19.9516
_cell_angle_alpha    90
_cell_angle_beta     90
_cell_angle_gamma    92.706

_space_group_name_H-M_alt    "P 1"
_space_group_IT_number       1

loop_
  _space_group_symop_operation_xyz
  'x, y, z'

loop_
  _atom_site_type_symbol
  _atom_site_label
  _atom_site_symmetry_multiplicity
  _atom_site_fract_x
  _atom_site_fract_y
  _atom_site_fract_z
  _atom_site_occupancy
  Zn  Zn1       1.0  0.22452  0.59791  0.84281  1.0000
  Zn  Zn2       1.0  0.77549  0.90209  0.34281  1.0000
  Zn  Zn3       1.0  0.77547  0.40210  0.15719  1.0000
  Zn  Zn4       1.0  0.22451  0.09791  0.65719  1.0000
  H   H1        1.0  0.00368  0.60682  0.70113  1.0000
  H   H2        1.0  0.99633  0.89319  0.20114  1.0000
  H   H3        1.0  0.99631  0.39318  0.29887  1.0000
  H   H4        1.0  0.00367  0.10682  0.79887  1.0000
  H   H5        1.0  0.68042  0.65351  0.68800  1.0000
  H   H6        1.0  0.31959  0.84649  0.18800  1.0000
  H   H7        1.0  0.31957  0.34648  0.31200  1.0000
  H   H8        1.0  0.68041  0.15351  0.81200  1.0000
  H   H9        1.0  0.69167  0.50242  0.71193  1.0000
  H   H10       1.0  0.30834  0.99758  0.21193  1.0000
  H   H11       1.0  0.30832  0.49756  0.28807  1.0000
  H   H12       1.0  0.69166  0.00243  0.78807  1.0000
  H   H13       1.0  0.15753  0.80764  0.93377  1.0000
  H   H14       1.0  0.84248  0.69236  0.43377  1.0000
  H   H15       1.0  0.84247  0.19237  0.06623  1.0000
  H   H16       1.0  0.15752  0.30764  0.56623  1.0000
  H   H17       1.0  0.13929  0.84435  0.05874  1.0000
  H   H18       1.0  0.86073  0.65565  0.55874  1.0000
  H   H19       1.0  0.86071  0.15566  0.94126  1.0000
  H   H20       1.0  0.13928  0.34434  0.44126  1.0000
  H   H21       1.0  0.18860  0.67159  0.13680  1.0000
  H   H22       1.0  0.81141  0.82841  0.63680  1.0000
  H   H23       1.0  0.81142  0.32842  0.86320  1.0000
  H   H24       1.0  0.18859  0.17158  0.36320  1.0000
  H   H25       1.0  0.25613  0.47399  0.08916  1.0000
  H   H26       1.0  0.74388  0.02600  0.58916  1.0000
  H   H27       1.0  0.74389  0.52601  0.91084  1.0000
  H   H28       1.0  0.25612  0.97399  0.41084  1.0000
  H   H29       1.0  0.31941  0.31499  0.04201  1.0000
  H   H30       1.0  0.68059  0.18500  0.54201  1.0000
  H   H31       1.0  0.68059  0.68500  0.95798  1.0000
  H   H32       1.0  0.31942  0.81499  0.45799  1.0000
  H   H33       1.0  0.36369  0.12885  0.97661  1.0000
  H   H34       1.0  0.63631  0.37115  0.47662  1.0000
  H   H35       1.0  0.63632  0.87116  0.02338  1.0000
  H   H36       1.0  0.36371  0.62885  0.52339  1.0000
  H   H37       1.0  0.35393  0.13729  0.84924  1.0000
  H   H38       1.0  0.64606  0.36271  0.34924  1.0000
  H   H39       1.0  0.64608  0.86272  0.15076  1.0000
  H   H40       1.0  0.35394  0.63729  0.65077  1.0000
  H   H41       1.0  0.30404  0.33367  0.79506  1.0000
  H   H42       1.0  0.69596  0.16633  0.29506  1.0000
  H   H43       1.0  0.69596  0.66634  0.20494  1.0000
  H   H44       1.0  0.30403  0.83367  0.70494  1.0000
  H   H45       1.0  0.96187  0.44817  0.77691  1.0000
  H   H46       1.0  0.03813  0.05183  0.27691  1.0000
  H   H47       1.0  0.03813  0.55183  0.22309  1.0000
  H   H48       1.0  0.96186  0.94817  0.72309  1.0000
  C   C1        1.0  0.92093  0.61659  0.74779  1.0000
  C   C2        1.0  0.07908  0.88342  0.24779  1.0000
  C   C3        1.0  0.07907  0.38341  0.25221  1.0000
  C   C4        1.0  0.92092  0.11659  0.75221  1.0000
  C   C5        1.0  0.97248  0.74370  0.77188  1.0000
  C   C6        1.0  0.02753  0.75631  0.27188  1.0000
  C   C7        1.0  0.02750  0.25631  0.22811  1.0000
  C   C8        1.0  0.97247  0.24370  0.72812  1.0000
  C   C9        1.0  0.71522  0.59489  0.72992  1.0000
  C   C10       1.0  0.28479  0.90511  0.22992  1.0000
  C   C11       1.0  0.28477  0.40510  0.27008  1.0000
  C   C12       1.0  0.71521  0.09489  0.77008  1.0000
  C   C13       1.0  0.57476  0.61513  0.78573  1.0000
  C   C14       1.0  0.42525  0.88487  0.28573  1.0000
  C   C15       1.0  0.42524  0.38487  0.21427  1.0000
  C   C16       1.0  0.57474  0.11513  0.71427  1.0000
  C   C17       1.0  0.18068  0.73764  0.97052  1.0000
  C   C18       1.0  0.81932  0.76236  0.47052  1.0000
  C   C19       1.0  0.81931  0.26237  0.02948  1.0000
  C   C20       1.0  0.18068  0.23764  0.52948  1.0000
  C   C21       1.0  0.17034  0.75639  0.03939  1.0000
  C   C22       1.0  0.82967  0.74361  0.53939  1.0000
  C   C23       1.0  0.82967  0.24362  0.96061  1.0000
  C   C24       1.0  0.17033  0.25638  0.46061  1.0000
  C   C25       1.0  0.19792  0.66064  0.08251  1.0000
  C   C26       1.0  0.80208  0.83936  0.58250  1.0000
  C   C27       1.0  0.80209  0.33937  0.91749  1.0000
  C   C28       1.0  0.19791  0.16063  0.41749  1.0000
  C   C29       1.0  0.23501  0.54928  0.05563  1.0000
  C   C30       1.0  0.76499  0.95072  0.55563  1.0000
  C   C31       1.0  0.76500  0.45073  0.94437  1.0000
  C   C32       1.0  0.23500  0.04927  0.44438  1.0000
  C   C33       1.0  0.24426  0.53675  0.98591  1.0000
  C   C34       1.0  0.75574  0.96324  0.48591  1.0000
  C   C35       1.0  0.75574  0.46325  0.01409  1.0000
  C   C36       1.0  0.24426  0.03675  0.51409  1.0000
  C   C37       1.0  0.28014  0.42171  0.95238  1.0000
  C   C38       1.0  0.71986  0.07828  0.45238  1.0000
  C   C39       1.0  0.71986  0.57829  0.04762  1.0000
  C   C40       1.0  0.28014  0.92171  0.54762  1.0000
  C   C41       1.0  0.31306  0.31612  0.98739  1.0000
  C   C42       1.0  0.68694  0.18388  0.48739  1.0000
  C   C43       1.0  0.68694  0.68389  0.01261  1.0000
  C   C44       1.0  0.31306  0.81612  0.51261  1.0000
  C   C45       1.0  0.33895  0.21227  0.95049  1.0000
  C   C46       1.0  0.66105  0.28772  0.45049  1.0000
  C   C47       1.0  0.66106  0.78773  0.04950  1.0000
  C   C48       1.0  0.33896  0.71228  0.54951  1.0000
  C   C49       1.0  0.33442  0.21567  0.88054  1.0000
  C   C50       1.0  0.66557  0.28433  0.38054  1.0000
  C   C51       1.0  0.66559  0.78433  0.11946  1.0000
  C   C52       1.0  0.33443  0.71567  0.61946  1.0000
  C   C53       1.0  0.30545  0.32503  0.84958  1.0000
  C   C54       1.0  0.69455  0.17497  0.34958  1.0000
  C   C55       1.0  0.69455  0.67498  0.15042  1.0000
  C   C56       1.0  0.30545  0.82503  0.65042  1.0000
  N   N1        1.0  0.21729  0.63059  0.94470  1.0000
  N   N2        1.0  0.78271  0.86941  0.44470  1.0000
  N   N3        1.0  0.78271  0.36942  0.05530  1.0000
  N   N4        1.0  0.21729  0.13059  0.55530  1.0000
  N   N5        1.0  0.27716  0.42441  0.88477  1.0000
  N   N6        1.0  0.72285  0.07559  0.38477  1.0000
  N   N7        1.0  0.72285  0.57560  0.11523  1.0000
  N   N8        1.0  0.27715  0.92441  0.61523  1.0000
  O   O1        1.0  0.98212  0.53337  0.79625  1.0000
  O   O2        1.0  0.01791  0.96663  0.29626  1.0000
  O   O3        1.0  0.01788  0.46663  0.20375  1.0000
  O   O4        1.0  0.98210  0.03337  0.70374  1.0000
  O   O5        1.0  0.09825  0.75856  0.81666  1.0000
  O   O6        1.0  0.90177  0.74145  0.31667  1.0000
  O   O7        1.0  0.90173  0.24144  0.18333  1.0000
  O   O8        1.0  0.09823  0.25856  0.68334  1.0000
  O   O9        1.0  0.89216  0.82593  0.74111  1.0000
  O   O10       1.0  0.10785  0.67407  0.24111  1.0000
  O   O11       1.0  0.10783  0.17407  0.25888  1.0000
  O   O12       1.0  0.89214  0.32593  0.75889  1.0000
  O   O13       1.0  0.40241  0.59240  0.76718  1.0000
  O   O14       1.0  0.59760  0.90760  0.26718  1.0000
  O   O15       1.0  0.59758  0.40760  0.23283  1.0000
  O   O16       1.0  0.40240  0.09240  0.73283  1.0000
  O   O17       1.0  0.62290  0.64924  0.84313  1.0000
  O   O18       1.0  0.37711  0.85076  0.34313  1.0000
  O   O19       1.0  0.37710  0.35076  0.15686  1.0000
  O   O20       1.0  0.62288  0.14924  0.65687  1.0000
