data_image0
_chemical_formula_structural       Ag4H56C48S8N4O8
_chemical_formula_sum              "Ag4 H56 C48 S8 N4 O8"
_cell_length_a       8.91656
_cell_length_b       12.2198
_cell_length_c       12.9714
_cell_angle_alpha    92.4333
_cell_angle_beta     109.262
_cell_angle_gamma    92.6506

_space_group_name_H-M_alt    "P 1"
_space_group_IT_number       1

loop_
  _space_group_symop_operation_xyz
  'x, y, z'

loop_
  _atom_site_type_symbol
  _atom_site_label
  _atom_site_symmetry_multiplicity
  _atom_site_fract_x
  _atom_site_fract_y
  _atom_site_fract_z
  _atom_site_occupancy
  Ag  Ag1       1.0  0.62382  0.36388  0.23174  1.0000
  Ag  Ag2       1.0  0.37619  0.63612  0.76827  1.0000
  Ag  Ag3       1.0  0.81554  0.03055  0.52959  1.0000
  Ag  Ag4       1.0  0.18446  0.96945  0.47041  1.0000
  H   H1        1.0  0.86377  0.23262  0.10742  1.0000
  H   H2        1.0  0.13624  0.76738  0.89258  1.0000
  H   H3        1.0  0.91106  0.27981  0.99114  1.0000
  H   H4        1.0  0.08894  0.72020  0.00886  1.0000
  H   H5        1.0  0.61048  0.27187  0.88935  1.0000
  H   H6        1.0  0.38952  0.72813  0.11065  1.0000
  H   H7        1.0  0.70159  0.14344  0.91446  1.0000
  H   H8        1.0  0.29841  0.85656  0.08554  1.0000
  H   H9        1.0  0.43580  0.13553  0.79408  1.0000
  H   H10       1.0  0.56419  0.86447  0.20592  1.0000
  H   H11       1.0  0.17423  0.03729  0.70792  1.0000
  H   H12       1.0  0.82577  0.96271  0.29208  1.0000
  H   H13       1.0  0.01293  0.97428  0.82158  1.0000
  H   H14       1.0  0.98707  0.02572  0.17842  1.0000
  H   H15       1.0  0.12290  0.01000  0.02509  1.0000
  H   H16       1.0  0.87710  0.99000  0.97491  1.0000
  H   H17       1.0  0.53243  0.10581  0.17886  1.0000
  H   H18       1.0  0.46756  0.89419  0.82114  1.0000
  H   H19       1.0  0.34409  0.05497  0.18541  1.0000
  H   H20       1.0  0.65591  0.94503  0.81459  1.0000
  H   H21       1.0  0.23666  0.29045  0.31796  1.0000
  H   H22       1.0  0.76334  0.70955  0.68204  1.0000
  H   H23       1.0  0.26633  0.14794  0.30916  1.0000
  H   H24       1.0  0.73367  0.85206  0.69084  1.0000
  H   H25       1.0  0.43506  0.22865  0.48791  1.0000
  H   H26       1.0  0.56494  0.77135  0.51209  1.0000
  H   H27       1.0  0.56166  0.19056  0.41249  1.0000
  H   H28       1.0  0.43834  0.80943  0.58751  1.0000
  H   H29       1.0  0.75287  0.32003  0.52684  1.0000
  H   H30       1.0  0.24713  0.67997  0.47316  1.0000
  H   H31       1.0  0.63289  0.38942  0.59189  1.0000
  H   H32       1.0  0.36711  0.61057  0.40811  1.0000
  H   H33       1.0  0.64947  0.55404  0.48356  1.0000
  H   H34       1.0  0.35053  0.44596  0.51644  1.0000
  H   H35       1.0  0.83468  0.52340  0.58082  1.0000
  H   H36       1.0  0.16532  0.47660  0.41918  1.0000
  H   H37       1.0  0.93645  0.55334  0.33599  1.0000
  H   H38       1.0  0.06355  0.44667  0.66401  1.0000
  H   H39       1.0  0.92795  0.63340  0.45196  1.0000
  H   H40       1.0  0.07204  0.36660  0.54804  1.0000
  H   H41       1.0  0.76618  0.71422  0.28391  1.0000
  H   H42       1.0  0.23382  0.28578  0.71609  1.0000
  H   H43       1.0  0.63933  0.66224  0.35207  1.0000
  H   H44       1.0  0.36066  0.33776  0.64793  1.0000
  H   H45       1.0  0.62228  0.54857  0.00972  1.0000
  H   H46       1.0  0.37772  0.45143  0.99028  1.0000
  H   H47       1.0  0.68231  0.68290  0.07387  1.0000
  H   H48       1.0  0.31768  0.31710  0.92613  1.0000
  H   H49       1.0  0.95550  0.73415  0.17523  1.0000
  H   H50       1.0  0.04450  0.26585  0.82476  1.0000
  H   H51       1.0  0.23827  0.68890  0.24255  1.0000
  H   H52       1.0  0.76172  0.31111  0.75745  1.0000
  H   H53       1.0  0.30762  0.49418  0.22213  1.0000
  H   H54       1.0  0.69237  0.50582  0.77787  1.0000
  H   H55       1.0  0.09712  0.35013  0.13382  1.0000
  H   H56       1.0  0.90289  0.64987  0.86618  1.0000
  C   C1        1.0  0.81988  0.27550  0.03120  1.0000
  C   C2        1.0  0.18012  0.72450  0.96880  1.0000
  C   C3        1.0  0.67084  0.21698  0.95334  1.0000
  C   C4        1.0  0.32915  0.78302  0.04666  1.0000
  C   C5        1.0  0.42704  0.13020  0.95911  1.0000
  C   C6        1.0  0.57296  0.86980  0.04089  1.0000
  C   C7        1.0  0.36718  0.10987  0.84528  1.0000
  C   C8        1.0  0.63282  0.89013  0.15472  1.0000
  C   C9        1.0  0.21823  0.05409  0.79645  1.0000
  C   C10       1.0  0.78177  0.94591  0.20355  1.0000
  C   C11       1.0  0.12844  0.01848  0.86004  1.0000
  C   C12       1.0  0.87155  0.98152  0.13996  1.0000
  C   C13       1.0  0.18981  0.03865  0.97347  1.0000
  C   C14       1.0  0.81019  0.96135  0.02653  1.0000
  C   C15       1.0  0.33874  0.09330  0.02476  1.0000
  C   C16       1.0  0.66125  0.90670  0.97524  1.0000
  C   C17       1.0  0.40348  0.11278  0.14658  1.0000
  C   C18       1.0  0.59652  0.88722  0.85342  1.0000
  C   C19       1.0  0.32344  0.23059  0.31430  1.0000
  C   C20       1.0  0.67656  0.76941  0.68570  1.0000
  C   C21       1.0  0.46952  0.24684  0.41563  1.0000
  C   C22       1.0  0.53048  0.75316  0.58438  1.0000
  C   C23       1.0  0.66691  0.38433  0.51743  1.0000
  C   C24       1.0  0.33309  0.61567  0.48257  1.0000
  C   C25       1.0  0.74134  0.49363  0.50357  1.0000
  C   C26       1.0  0.25866  0.50637  0.49643  1.0000
  C   C27       1.0  0.85833  0.57753  0.38171  1.0000
  C   C28       1.0  0.14167  0.42247  0.61829  1.0000
  C   C29       1.0  0.72080  0.63812  0.30861  1.0000
  C   C30       1.0  0.27920  0.36188  0.69139  1.0000
  C   C31       1.0  0.69477  0.59502  0.08548  1.0000
  C   C32       1.0  0.30523  0.40498  0.91452  1.0000
  C   C33       1.0  0.86470  0.56830  0.11943  1.0000
  C   C34       1.0  0.13530  0.43170  0.88057  1.0000
  C   C35       1.0  0.98669  0.64944  0.16750  1.0000
  C   C36       1.0  0.01331  0.35057  0.83250  1.0000
  C   C37       1.0  0.14602  0.62394  0.20503  1.0000
  C   C38       1.0  0.85398  0.37606  0.79497  1.0000
  C   C39       1.0  0.18387  0.51572  0.19364  1.0000
  C   C40       1.0  0.81614  0.48428  0.80636  1.0000
  C   C41       1.0  0.06456  0.43354  0.14415  1.0000
  C   C42       1.0  0.93544  0.56646  0.85585  1.0000
  C   C43       1.0  0.90540  0.45946  0.10660  1.0000
  C   C44       1.0  0.09460  0.54054  0.89340  1.0000
  C   C45       1.0  0.89633  0.20324  0.36377  1.0000
  C   C46       1.0  0.10368  0.79676  0.63623  1.0000
  C   C47       1.0  0.54671  0.06207  0.63464  1.0000
  C   C48       1.0  0.45328  0.93793  0.36536  1.0000
  S   S1        1.0  0.35790  0.25054  0.18528  1.0000
  S   S2        1.0  0.64211  0.74946  0.81472  1.0000
  S   S3        1.0  0.59507  0.56016  0.18482  1.0000
  S   S4        1.0  0.40493  0.43984  0.81519  1.0000
  S   S5        1.0  0.01457  0.14957  0.47327  1.0000
  S   S6        1.0  0.98544  0.85043  0.52673  1.0000
  S   S7        1.0  0.73888  0.09145  0.69169  1.0000
  S   S8        1.0  0.26112  0.90855  0.30831  1.0000
  N   N1        1.0  0.81277  0.24531  0.28707  1.0000
  N   N2        1.0  0.18724  0.75469  0.71293  1.0000
  N   N3        1.0  0.40773  0.04154  0.59688  1.0000
  N   N4        1.0  0.59228  0.95846  0.40313  1.0000
  O   O1        1.0  0.78165  0.38475  0.05540  1.0000
  O   O2        1.0  0.21835  0.61524  0.94460  1.0000
  O   O3        1.0  0.56916  0.18596  0.01431  1.0000
  O   O4        1.0  0.43084  0.81404  0.98569  1.0000
  O   O5        1.0  0.52953  0.35824  0.42315  1.0000
  O   O6        1.0  0.47047  0.64176  0.57685  1.0000
  O   O7        1.0  0.80872  0.47830  0.41848  1.0000
  O   O8        1.0  0.19128  0.52170  0.58153  1.0000
