data_image0
_chemical_formula_structural       Cu2H28C36N12Cl2
_chemical_formula_sum              "Cu2 H28 C36 N12 Cl2"
_cell_length_a       8.02652
_cell_length_b       8.31799
_cell_length_c       12.7375
_cell_angle_alpha    85.4276
_cell_angle_beta     78.5662
_cell_angle_gamma    77.17

_space_group_name_H-M_alt    "P 1"
_space_group_IT_number       1

loop_
  _space_group_symop_operation_xyz
  'x, y, z'

loop_
  _atom_site_type_symbol
  _atom_site_label
  _atom_site_symmetry_multiplicity
  _atom_site_fract_x
  _atom_site_fract_y
  _atom_site_fract_z
  _atom_site_occupancy
  Cu  Cu1       1.0  0.04826  0.36449  0.56993  1.0000
  Cu  Cu2       1.0  0.95174  0.63551  0.43007  1.0000
  H   H1        1.0  0.36458  0.46473  0.67137  1.0000
  H   H2        1.0  0.63543  0.53527  0.32863  1.0000
  H   H3        1.0  0.82088  0.51254  0.76246  1.0000
  H   H4        1.0  0.17913  0.48745  0.23753  1.0000
  H   H5        1.0  0.93773  0.66126  0.91547  1.0000
  H   H6        1.0  0.06227  0.33874  0.08453  1.0000
  H   H7        1.0  0.13863  0.60375  0.02178  1.0000
  H   H8        1.0  0.86136  0.39625  0.97822  1.0000
  H   H9        1.0  0.33054  0.70094  0.12155  1.0000
  H   H10       1.0  0.66945  0.29906  0.87845  1.0000
  H   H11       1.0  0.67255  0.77285  0.82381  1.0000
  H   H12       1.0  0.32745  0.22714  0.17620  1.0000
  H   H13       1.0  0.48723  0.66626  0.72318  1.0000
  H   H14       1.0  0.51277  0.33374  0.27682  1.0000
  H   H15       1.0  0.52387  0.88399  0.32325  1.0000
  H   H16       1.0  0.47614  0.11601  0.67675  1.0000
  H   H17       1.0  0.70715  0.99850  0.42379  1.0000
  H   H18       1.0  0.29285  0.00150  0.57621  1.0000
  H   H19       1.0  0.10020  0.98390  0.13750  1.0000
  H   H20       1.0  0.89980  0.01610  0.86250  1.0000
  H   H21       1.0  0.91255  0.87954  0.03721  1.0000
  H   H22       1.0  0.08744  0.12047  0.96279  1.0000
  H   H23       1.0  0.81567  0.22193  0.45684  1.0000
  H   H24       1.0  0.18433  0.77807  0.54316  1.0000
  H   H25       1.0  0.36042  0.15465  0.40354  1.0000
  H   H26       1.0  0.63958  0.84537  0.59646  1.0000
  H   H27       1.0  0.27539  0.95379  0.26532  1.0000
  H   H28       1.0  0.72463  0.04620  0.73468  1.0000
  C   C1        1.0  0.23128  0.49806  0.71511  1.0000
  C   C2        1.0  0.76872  0.50194  0.28489  1.0000
  C   C3        1.0  0.95029  0.52455  0.76902  1.0000
  C   C4        1.0  0.04972  0.47545  0.23098  1.0000
  C   C5        1.0  0.00792  0.59497  0.84461  1.0000
  C   C6        1.0  0.99208  0.40503  0.15538  1.0000
  C   C7        1.0  0.29791  0.63367  0.86581  1.0000
  C   C8        1.0  0.70208  0.36633  0.13420  1.0000
  C   C9        1.0  0.25396  0.64412  0.97794  1.0000
  C   C10       1.0  0.74604  0.35588  0.02207  1.0000
  C   C11       1.0  0.36044  0.69890  0.03422  1.0000
  C   C12       1.0  0.63955  0.30110  0.96578  1.0000
  C   C13       1.0  0.51308  0.74564  0.97796  1.0000
  C   C14       1.0  0.48691  0.25435  0.02205  1.0000
  C   C15       1.0  0.55549  0.73435  0.86624  1.0000
  C   C16       1.0  0.44451  0.26564  0.13376  1.0000
  C   C17       1.0  0.45007  0.67804  0.80969  1.0000
  C   C18       1.0  0.54993  0.32195  0.19032  1.0000
  C   C19       1.0  0.70341  0.88095  0.17372  1.0000
  C   C20       1.0  0.29659  0.11905  0.82627  1.0000
  C   C21       1.0  0.64741  0.91275  0.28304  1.0000
  C   C22       1.0  0.35259  0.08725  0.71695  1.0000
  C   C23       1.0  0.75039  0.97338  0.33906  1.0000
  C   C24       1.0  0.24962  0.02661  0.66094  1.0000
  C   C25       1.0  0.91271  0.00053  0.28609  1.0000
  C   C26       1.0  0.08730  0.99946  0.71390  1.0000
  C   C27       1.0  0.97301  0.96361  0.17780  1.0000
  C   C28       1.0  0.02699  0.03638  0.82219  1.0000
  C   C29       1.0  0.86867  0.90491  0.12185  1.0000
  C   C30       1.0  0.13133  0.09509  0.87815  1.0000
  C   C31       1.0  0.95184  0.17461  0.42380  1.0000
  C   C32       1.0  0.04816  0.82539  0.57620  1.0000
  C   C33       1.0  0.23484  0.13727  0.39345  1.0000
  C   C34       1.0  0.76515  0.86273  0.60655  1.0000
  C   C35       1.0  0.19518  0.04170  0.32285  1.0000
  C   C36       1.0  0.80482  0.95831  0.67716  1.0000
  N   N1        1.0  0.08977  0.46476  0.68905  1.0000
  N   N2        1.0  0.91023  0.53523  0.31095  1.0000
  N   N3        1.0  0.18630  0.57782  0.81025  1.0000
  N   N4        1.0  0.81370  0.42218  0.18975  1.0000
  N   N5        1.0  0.63395  0.79936  0.02573  1.0000
  N   N6        1.0  0.36604  0.20064  0.97427  1.0000
  N   N7        1.0  0.58331  0.82869  0.12469  1.0000
  N   N8        1.0  0.41669  0.17132  0.87531  1.0000
  N   N9        1.0  0.01501  0.06732  0.34237  1.0000
  N   N10       1.0  0.98499  0.93268  0.65762  1.0000
  N   N11       1.0  0.08219  0.21930  0.45575  1.0000
  N   N12       1.0  0.91781  0.78070  0.54425  1.0000
  Cl  Cl1       1.0  0.71185  0.39574  0.61847  1.0000
  Cl  Cl2       1.0  0.28815  0.60426  0.38153  1.0000
