data_image0
_chemical_formula_structural       La4H28C18O32
_chemical_formula_sum              "La4 H28 C18 O32"
_cell_length_a       7.0332
_cell_length_b       10.1067
_cell_length_c       14.2811
_cell_angle_alpha    71.215
_cell_angle_beta     75.7506
_cell_angle_gamma    69.623

_space_group_name_H-M_alt    "P 1"
_space_group_IT_number       1

loop_
  _space_group_symop_operation_xyz
  'x, y, z'

loop_
  _atom_site_type_symbol
  _atom_site_label
  _atom_site_symmetry_multiplicity
  _atom_site_fract_x
  _atom_site_fract_y
  _atom_site_fract_z
  _atom_site_occupancy
  La  La1       1.0  0.04008  0.86190  0.66086  1.0000
  La  La2       1.0  0.43698  0.36209  0.16091  1.0000
  La  La3       1.0  0.95992  0.13810  0.33914  1.0000
  La  La4       1.0  0.56303  0.63791  0.83909  1.0000
  H   H1        1.0  0.05795  0.35545  0.90762  1.0000
  H   H2        1.0  0.67884  0.85551  0.40767  1.0000
  H   H3        1.0  0.94204  0.64454  0.09238  1.0000
  H   H4        1.0  0.32116  0.14449  0.59233  1.0000
  H   H5        1.0  0.31424  0.32643  0.84265  1.0000
  H   H6        1.0  0.51680  0.82663  0.34249  1.0000
  H   H7        1.0  0.68576  0.67357  0.15734  1.0000
  H   H8        1.0  0.48320  0.17337  0.65751  1.0000
  H   H9        1.0  0.10698  0.15079  0.77086  1.0000
  H   H10       1.0  0.97088  0.65167  0.27053  1.0000
  H   H11       1.0  0.89302  0.84921  0.22914  1.0000
  H   H12       1.0  0.02912  0.34833  0.72947  1.0000
  H   H13       1.0  0.88152  0.98600  0.86022  1.0000
  H   H14       1.0  0.27199  0.48621  0.36018  1.0000
  H   H15       1.0  0.11848  0.01400  0.13978  1.0000
  H   H16       1.0  0.72801  0.51379  0.63982  1.0000
  H   H17       1.0  0.86421  0.82399  0.89342  1.0000
  H   H18       1.0  0.41840  0.32424  0.39345  1.0000
  H   H19       1.0  0.13579  0.17601  0.10658  1.0000
  H   H20       1.0  0.58160  0.67576  0.60655  1.0000
  H   H21       1.0  0.91650  0.64756  0.60030  1.0000
  H   H22       1.0  0.83537  0.14755  0.10036  1.0000
  H   H23       1.0  0.08351  0.35244  0.39970  1.0000
  H   H24       1.0  0.16463  0.85244  0.89964  1.0000
  H   H25       1.0  0.11752  0.65752  0.51607  1.0000
  H   H26       1.0  0.70847  0.15739  0.01623  1.0000
  H   H27       1.0  0.88248  0.34248  0.48393  1.0000
  H   H28       1.0  0.29154  0.84261  0.98376  1.0000
  C   C1        1.0  0.13152  0.55081  0.81244  1.0000
  C   C2        1.0  0.50508  0.05101  0.31252  1.0000
  C   C3        1.0  0.86848  0.44919  0.18756  1.0000
  C   C4        1.0  0.49491  0.94899  0.68748  1.0000
  C   C5        1.0  0.18915  0.39983  0.88224  1.0000
  C   C6        1.0  0.52868  0.89992  0.38220  1.0000
  C   C7        1.0  0.81085  0.60017  0.11776  1.0000
  C   C8        1.0  0.47132  0.10009  0.61780  1.0000
  C   C9        1.0  0.26910  0.39422  0.97357  1.0000
  C   C10       1.0  0.36299  0.89413  0.47351  1.0000
  C   C11       1.0  0.73090  0.60578  0.02643  1.0000
  C   C12       1.0  0.63701  0.10587  0.52649  1.0000
  C   C13       1.0  0.89934  0.24361  0.66213  1.0000
  C   C14       1.0  0.19477  0.74400  0.16190  1.0000
  C   C15       1.0  0.10066  0.75638  0.33787  1.0000
  C   C16       1.0  0.80523  0.25600  0.83810  1.0000
  C   C17       1.0  0.98011  0.24964  0.75017  1.0000
  C   C18       1.0  0.01989  0.75036  0.24983  1.0000
  O   O1        1.0  0.26733  0.61846  0.77403  1.0000
  O   O2        1.0  0.34011  0.11872  0.27402  1.0000
  O   O3        1.0  0.73267  0.38154  0.22598  1.0000
  O   O4        1.0  0.65989  0.88129  0.72598  1.0000
  O   O5        1.0  0.94971  0.61003  0.79249  1.0000
  O   O6        1.0  0.64761  0.11017  0.29271  1.0000
  O   O7        1.0  0.05030  0.38997  0.20750  1.0000
  O   O8        1.0  0.35239  0.88983  0.70729  1.0000
  O   O9        1.0  0.31556  0.50290  0.97855  1.0000
  O   O10       1.0  0.20295  0.00288  0.47860  1.0000
  O   O11       1.0  0.68445  0.49710  0.02145  1.0000
  O   O12       1.0  0.79704  0.99712  0.52140  1.0000
  O   O13       1.0  0.28745  0.27857  0.04459  1.0000
  O   O14       1.0  0.38928  0.77834  0.54443  1.0000
  O   O15       1.0  0.71256  0.72143  0.95540  1.0000
  O   O16       1.0  0.61072  0.22166  0.45557  1.0000
  O   O17       1.0  0.92497  0.11854  0.65113  1.0000
  O   O18       1.0  0.30492  0.61881  0.15096  1.0000
  O   O19       1.0  0.07502  0.88146  0.34887  1.0000
  O   O20       1.0  0.69508  0.38119  0.84904  1.0000
  O   O21       1.0  0.80770  0.36263  0.60533  1.0000
  O   O22       1.0  0.22465  0.86287  0.10513  1.0000
  O   O23       1.0  0.19231  0.63737  0.39467  1.0000
  O   O24       1.0  0.77534  0.13712  0.89487  1.0000
  O   O25       1.0  0.95252  0.88552  0.84849  1.0000
  O   O26       1.0  0.31341  0.38567  0.34853  1.0000
  O   O27       1.0  0.04748  0.11448  0.15151  1.0000
  O   O28       1.0  0.68659  0.61433  0.65147  1.0000
  O   O29       1.0  0.05000  0.67039  0.58382  1.0000
  O   O30       1.0  0.69543  0.17027  0.08399  1.0000
  O   O31       1.0  0.95000  0.32961  0.41618  1.0000
  O   O32       1.0  0.30458  0.82974  0.91600  1.0000
