data_image0
_chemical_formula_structural       Cu6H8C16I2N16
_chemical_formula_sum              "Cu6 H8 C16 I2 N16"
_cell_length_a       7.90352
_cell_length_b       9.34474
_cell_length_c       9.34477
_cell_angle_alpha    85.3984
_cell_angle_beta     64.3863
_cell_angle_gamma    64.3866

_space_group_name_H-M_alt    "P 1"
_space_group_IT_number       1

loop_
  _space_group_symop_operation_xyz
  'x, y, z'

loop_
  _atom_site_type_symbol
  _atom_site_label
  _atom_site_symmetry_multiplicity
  _atom_site_fract_x
  _atom_site_fract_y
  _atom_site_fract_z
  _atom_site_occupancy
  Cu  Cu1       1.0  0.50000  0.68888  0.31111  1.0000
  Cu  Cu2       1.0  0.50000  0.31112  0.68889  1.0000
  Cu  Cu3       1.0  1.00000  0.63464  0.36537  1.0000
  Cu  Cu4       1.0  0.00000  0.36536  0.63464  1.0000
  Cu  Cu5       1.0  0.59917  0.29765  0.29765  1.0000
  Cu  Cu6       1.0  0.40083  0.70235  0.70235  1.0000
  H   H1        1.0  0.28107  0.29854  0.29854  1.0000
  H   H2        1.0  0.71893  0.70146  0.70146  1.0000
  H   H3        1.0  0.20667  0.88373  0.22207  1.0000
  H   H4        1.0  0.79333  0.77792  0.11626  1.0000
  H   H5        1.0  0.79333  0.11627  0.77793  1.0000
  H   H6        1.0  0.20667  0.22208  0.88374  1.0000
  H   H7        1.0  0.18588  0.97153  0.97151  1.0000
  H   H8        1.0  0.81412  0.02847  0.02849  1.0000
  C   C1        1.0  0.25802  0.03610  0.42583  1.0000
  C   C2        1.0  0.74199  0.57415  0.96389  1.0000
  C   C3        1.0  0.74198  0.96390  0.57417  1.0000
  C   C4        1.0  0.25801  0.42585  0.03611  1.0000
  C   C5        1.0  0.24536  0.08585  0.27748  1.0000
  C   C6        1.0  0.75465  0.72251  0.91416  1.0000
  C   C7        1.0  0.75464  0.91416  0.72252  1.0000
  C   C8        1.0  0.24535  0.27749  0.08585  1.0000
  C   C9        1.0  0.25784  0.22770  0.22770  1.0000
  C   C10       1.0  0.74217  0.77229  0.77229  1.0000
  C   C11       1.0  0.22076  0.99301  0.18377  1.0000
  C   C12       1.0  0.77924  0.81621  0.00699  1.0000
  C   C13       1.0  0.77924  0.00699  0.81623  1.0000
  C   C14       1.0  0.22076  0.18378  0.99301  1.0000
  C   C15       1.0  0.20860  0.04243  0.04242  1.0000
  C   C16       1.0  0.79140  0.95757  0.95758  1.0000
  I   I1        1.0  0.23968  0.52234  0.52234  1.0000
  I   I2        1.0  0.76032  0.47766  0.47766  1.0000
  N   N1        1.0  0.34892  0.88299  0.45013  1.0000
  N   N2        1.0  0.65109  0.54987  0.11701  1.0000
  N   N3        1.0  0.65108  0.11701  0.54987  1.0000
  N   N4        1.0  0.34891  0.45014  0.88300  1.0000
  N   N5        1.0  0.32617  0.88981  0.60205  1.0000
  N   N6        1.0  0.67383  0.39795  0.11019  1.0000
  N   N7        1.0  0.67383  0.11019  0.39795  1.0000
  N   N8        1.0  0.32617  0.60205  0.88981  1.0000
  N   N9        1.0  0.22803  0.03945  0.66813  1.0000
  N   N10       1.0  0.77197  0.33186  0.96055  1.0000
  N   N11       1.0  0.77197  0.96055  0.33187  1.0000
  N   N12       1.0  0.22803  0.66814  0.03945  1.0000
  N   N13       1.0  0.18303  0.13386  0.56040  1.0000
  N   N14       1.0  0.81698  0.43959  0.86614  1.0000
  N   N15       1.0  0.81697  0.86614  0.43960  1.0000
  N   N16       1.0  0.18302  0.56041  0.13387  1.0000
