data_image0
_chemical_formula_structural       Zn2H40C46N4O10
_chemical_formula_sum              "Zn2 H40 C46 N4 O10"
_cell_length_a       9.56413
_cell_length_b       11.4529
_cell_length_c       11.5626
_cell_angle_alpha    100.504
_cell_angle_beta     100.809
_cell_angle_gamma    113.63

_space_group_name_H-M_alt    "P 1"
_space_group_IT_number       1

loop_
  _space_group_symop_operation_xyz
  'x, y, z'

loop_
  _atom_site_type_symbol
  _atom_site_label
  _atom_site_symmetry_multiplicity
  _atom_site_fract_x
  _atom_site_fract_y
  _atom_site_fract_z
  _atom_site_occupancy
  Zn  Zn1       1.0  0.18649  0.87998  0.11873  1.0000
  Zn  Zn2       1.0  0.81351  0.12002  0.88127  1.0000
  H   H1        1.0  0.50774  0.10647  0.26070  1.0000
  H   H2        1.0  0.49226  0.89353  0.73930  1.0000
  H   H3        1.0  0.73029  0.88707  0.07564  1.0000
  H   H4        1.0  0.26971  0.11292  0.92435  1.0000
  H   H5        1.0  0.04133  0.04693  0.20252  1.0000
  H   H6        1.0  0.95867  0.95307  0.79748  1.0000
  H   H7        1.0  0.62708  0.50723  0.84396  1.0000
  H   H8        1.0  0.37293  0.49277  0.15604  1.0000
  H   H9        1.0  0.24334  0.60767  0.87986  1.0000
  H   H10       1.0  0.75666  0.39233  0.12014  1.0000
  H   H11       1.0  0.12484  0.27259  0.34332  1.0000
  H   H12       1.0  0.87516  0.72741  0.65668  1.0000
  H   H13       1.0  0.61341  0.33524  0.40354  1.0000
  H   H14       1.0  0.38659  0.66476  0.59646  1.0000
  H   H15       1.0  0.32580  0.47656  0.48056  1.0000
  H   H16       1.0  0.67420  0.52344  0.51944  1.0000
  H   H17       1.0  0.02975  0.43568  0.20970  1.0000
  H   H18       1.0  0.97025  0.56432  0.79030  1.0000
  H   H19       1.0  0.23600  0.91481  0.39556  1.0000
  H   H20       1.0  0.76400  0.08519  0.60444  1.0000
  H   H21       1.0  0.95804  0.38381  0.38718  1.0000
  H   H22       1.0  0.04196  0.61620  0.61282  1.0000
  H   H23       1.0  0.11881  0.59808  0.09412  1.0000
  H   H24       1.0  0.88119  0.40192  0.90588  1.0000
  H   H25       1.0  0.41650  0.30791  0.80684  1.0000
  H   H26       1.0  0.58350  0.69209  0.19315  1.0000
  H   H27       1.0  0.42868  0.35696  0.66944  1.0000
  H   H28       1.0  0.57131  0.64304  0.33056  1.0000
  H   H29       1.0  0.15190  0.76721  0.52593  1.0000
  H   H30       1.0  0.84810  0.23279  0.47407  1.0000
  H   H31       1.0  0.13070  0.21860  0.58228  1.0000
  H   H32       1.0  0.86930  0.78140  0.41772  1.0000
  H   H33       1.0  0.12605  0.16762  0.71766  1.0000
  H   H34       1.0  0.87395  0.83238  0.28234  1.0000
  H   H35       1.0  0.31063  0.11505  0.53833  1.0000
  H   H36       1.0  0.68937  0.88495  0.46167  1.0000
  H   H37       1.0  0.13025  0.99513  0.55140  1.0000
  H   H38       1.0  0.86975  0.00487  0.44860  1.0000
  H   H39       1.0  0.30960  0.06540  0.67552  1.0000
  H   H40       1.0  0.69040  0.93460  0.32448  1.0000
  C   C1        1.0  0.42499  0.84706  0.04946  1.0000
  C   C2        1.0  0.57500  0.15293  0.95054  1.0000
  C   C3        1.0  0.42925  0.14884  0.28439  1.0000
  C   C4        1.0  0.57075  0.85116  0.71561  1.0000
  C   C5        1.0  0.07521  0.58513  0.37853  1.0000
  C   C6        1.0  0.92479  0.41488  0.62147  1.0000
  C   C7        1.0  0.64409  0.79140  0.01127  1.0000
  C   C8        1.0  0.35591  0.20860  0.98873  1.0000
  C   C9        1.0  0.86652  0.73053  0.99436  1.0000
  C   C10       1.0  0.13348  0.26946  0.00564  1.0000
  C   C11       1.0  0.42020  0.54329  0.84853  1.0000
  C   C12       1.0  0.57980  0.45671  0.15147  1.0000
  C   C13       1.0  0.48132  0.75758  0.98243  1.0000
  C   C14       1.0  0.51868  0.24242  0.01757  1.0000
  C   C15       1.0  0.16613  0.11432  0.25141  1.0000
  C   C16       1.0  0.83387  0.88568  0.74859  1.0000
  C   C17       1.0  0.58239  0.57578  0.87921  1.0000
  C   C18       1.0  0.41761  0.42422  0.12079  1.0000
  C   C19       1.0  0.69388  0.70027  0.96001  1.0000
  C   C20       1.0  0.30612  0.29973  0.03999  1.0000
  C   C21       1.0  0.37690  0.32353  0.38807  1.0000
  C   C22       1.0  0.62310  0.67647  0.61194  1.0000
  C   C23       1.0  0.36991  0.63454  0.90033  1.0000
  C   C24       1.0  0.63009  0.36546  0.09967  1.0000
  C   C25       1.0  0.21405  0.23944  0.32923  1.0000
  C   C26       1.0  0.78595  0.76056  0.67077  1.0000
  C   C27       1.0  0.48530  0.27505  0.36300  1.0000
  C   C28       1.0  0.51470  0.72495  0.63700  1.0000
  C   C29       1.0  0.42424  0.45413  0.46958  1.0000
  C   C30       1.0  0.57576  0.54587  0.53042  1.0000
  C   C31       1.0  0.07354  0.54076  0.25643  1.0000
  C   C32       1.0  0.92646  0.45924  0.74357  1.0000
  C   C33       1.0  0.18915  0.80763  0.35827  1.0000
  C   C34       1.0  0.81085  0.19237  0.64173  1.0000
  C   C35       1.0  0.00624  0.48716  0.44220  1.0000
  C   C36       1.0  0.99377  0.51284  0.55781  1.0000
  C   C37       1.0  0.12446  0.63150  0.18999  1.0000
  C   C38       1.0  0.87554  0.36850  0.81001  1.0000
  C   C39       1.0  0.34987  0.32394  0.72771  1.0000
  C   C40       1.0  0.65013  0.67606  0.27229  1.0000
  C   C41       1.0  0.14113  0.72376  0.43068  1.0000
  C   C42       1.0  0.85887  0.27625  0.56932  1.0000
  C   C43       1.0  0.20001  0.19749  0.65588  1.0000
  C   C44       1.0  0.79999  0.80251  0.34412  1.0000
  C   C45       1.0  0.23990  0.08662  0.60247  1.0000
  C   C46       1.0  0.76010  0.91338  0.39753  1.0000
  N   N1        1.0  0.27196  0.06912  0.23017  1.0000
  N   N2        1.0  0.72804  0.93088  0.76983  1.0000
  N   N3        1.0  0.17740  0.76300  0.23874  1.0000
  N   N4        1.0  0.82260  0.23700  0.76125  1.0000
  O   O1        1.0  0.27936  0.82379  0.99836  1.0000
  O   O2        1.0  0.72063  0.17621  0.00164  1.0000
  O   O3        1.0  0.96474  0.85142  0.06189  1.0000
  O   O4        1.0  0.03526  0.14858  0.93811  1.0000
  O   O5        1.0  0.51218  0.93086  0.15071  1.0000
  O   O6        1.0  0.48782  0.06914  0.84929  1.0000
  O   O7        1.0  0.30279  0.42467  0.77023  1.0000
  O   O8        1.0  0.69720  0.57533  0.22977  1.0000
  O   O9        1.0  0.90802  0.64264  0.95990  1.0000
  O   O10       1.0  0.09198  0.35736  0.04010  1.0000
