data_image0
_chemical_formula_structural       Ag8H28C48N8Cl4O16
_chemical_formula_sum              "Ag8 H28 C48 N8 Cl4 O16"
_cell_length_a       7.00986
_cell_length_b       12.5636
_cell_length_c       15.517
_cell_angle_alpha    113.153
_cell_angle_beta     90
_cell_angle_gamma    90

_space_group_name_H-M_alt    "P 1"
_space_group_IT_number       1

loop_
  _space_group_symop_operation_xyz
  'x, y, z'

loop_
  _atom_site_type_symbol
  _atom_site_label
  _atom_site_symmetry_multiplicity
  _atom_site_fract_x
  _atom_site_fract_y
  _atom_site_fract_z
  _atom_site_occupancy
  Ag  Ag1       1.0  0.71921  0.48391  0.49436  1.0000
  Ag  Ag2       1.0  0.21921  0.01610  0.50565  1.0000
  Ag  Ag3       1.0  0.28078  0.51609  0.50564  1.0000
  Ag  Ag4       1.0  0.78077  0.98391  0.49437  1.0000
  Ag  Ag5       1.0  0.44861  0.28415  0.45162  1.0000
  Ag  Ag6       1.0  0.94861  0.21585  0.54838  1.0000
  Ag  Ag7       1.0  0.55139  0.71585  0.54838  1.0000
  Ag  Ag8       1.0  0.05138  0.78415  0.45162  1.0000
  H   H1        1.0  0.67507  0.56956  0.82379  1.0000
  H   H2        1.0  0.17508  0.93045  0.17622  1.0000
  H   H3        1.0  0.32494  0.43045  0.17621  1.0000
  H   H4        1.0  0.82493  0.06954  0.82379  1.0000
  H   H5        1.0  0.70561  0.52515  0.96708  1.0000
  H   H6        1.0  0.20560  0.97486  0.03292  1.0000
  H   H7        1.0  0.29440  0.47486  0.03292  1.0000
  H   H8        1.0  0.79439  0.02512  0.96708  1.0000
  H   H9        1.0  0.62885  0.32942  0.95768  1.0000
  H   H10       1.0  0.12883  0.17059  0.04233  1.0000
  H   H11       1.0  0.37116  0.67060  0.04233  1.0000
  H   H12       1.0  0.87115  0.82938  0.95767  1.0000
  H   H13       1.0  0.52550  0.17583  0.80599  1.0000
  H   H14       1.0  0.02548  0.32418  0.19402  1.0000
  H   H15       1.0  0.47450  0.82419  0.19402  1.0000
  H   H16       1.0  0.97451  0.67581  0.80598  1.0000
  H   H17       1.0  0.46535  0.31625  0.26634  1.0000
  H   H18       1.0  0.96533  0.18374  0.73365  1.0000
  H   H19       1.0  0.53466  0.68374  0.73365  1.0000
  H   H20       1.0  0.03466  0.81626  0.26635  1.0000
  H   H21       1.0  0.57931  0.03254  0.33419  1.0000
  H   H22       1.0  0.07931  0.46745  0.66581  1.0000
  H   H23       1.0  0.42070  0.96745  0.66581  1.0000
  H   H24       1.0  0.92068  0.53255  0.33419  1.0000
  H   H25       1.0  0.71205  0.92470  0.17238  1.0000
  H   H26       1.0  0.21204  0.57528  0.82762  1.0000
  H   H27       1.0  0.28797  0.07529  0.82762  1.0000
  H   H28       1.0  0.78796  0.42471  0.17237  1.0000
  C   C1        1.0  0.57808  0.39888  0.73598  1.0000
  C   C2        1.0  0.07807  0.10114  0.26403  1.0000
  C   C3        1.0  0.42192  0.60113  0.26402  1.0000
  C   C4        1.0  0.92193  0.89887  0.73598  1.0000
  C   C5        1.0  0.64084  0.48367  0.82099  1.0000
  C   C6        1.0  0.14083  0.01635  0.17902  1.0000
  C   C7        1.0  0.35917  0.51634  0.17901  1.0000
  C   C8        1.0  0.85917  0.98365  0.82099  1.0000
  C   C9        1.0  0.65725  0.45953  0.90085  1.0000
  C   C10       1.0  0.15724  0.04048  0.09916  1.0000
  C   C11       1.0  0.34276  0.54048  0.09915  1.0000
  C   C12       1.0  0.84275  0.95951  0.90085  1.0000
  C   C13       1.0  0.61365  0.34871  0.89550  1.0000
  C   C14       1.0  0.11364  0.15130  0.10451  1.0000
  C   C15       1.0  0.38635  0.65131  0.10450  1.0000
  C   C16       1.0  0.88634  0.84868  0.89549  1.0000
  C   C17       1.0  0.55496  0.26303  0.81085  1.0000
  C   C18       1.0  0.05494  0.23698  0.18916  1.0000
  C   C19       1.0  0.44505  0.73699  0.18916  1.0000
  C   C20       1.0  0.94505  0.76301  0.81084  1.0000
  C   C21       1.0  0.53622  0.28642  0.73013  1.0000
  C   C22       1.0  0.03620  0.21359  0.26987  1.0000
  C   C23       1.0  0.46379  0.71359  0.26987  1.0000
  C   C24       1.0  0.96380  0.78640  0.73013  1.0000
  C   C25       1.0  0.47955  0.18882  0.63964  1.0000
  C   C26       1.0  0.97952  0.31119  0.36036  1.0000
  C   C27       1.0  0.52046  0.81119  0.36037  1.0000
  C   C28       1.0  0.02048  0.68881  0.63963  1.0000
  C   C29       1.0  0.55802  0.42896  0.65223  1.0000
  C   C30       1.0  0.05801  0.07105  0.34778  1.0000
  C   C31       1.0  0.44198  0.57104  0.34777  1.0000
  C   C32       1.0  0.94199  0.92896  0.65223  1.0000
  C   C33       1.0  0.58430  0.16302  0.15435  1.0000
  C   C34       1.0  0.08429  0.33696  0.84565  1.0000
  C   C35       1.0  0.41571  0.83697  0.84565  1.0000
  C   C36       1.0  0.91571  0.66303  0.15435  1.0000
  C   C37       1.0  0.51782  0.22807  0.24484  1.0000
  C   C38       1.0  0.01781  0.27192  0.75516  1.0000
  C   C39       1.0  0.48219  0.77192  0.75516  1.0000
  C   C40       1.0  0.98219  0.72807  0.24484  1.0000
  C   C41       1.0  0.58204  0.07129  0.28277  1.0000
  C   C42       1.0  0.08204  0.42869  0.71722  1.0000
  C   C43       1.0  0.41797  0.92869  0.71722  1.0000
  C   C44       1.0  0.91795  0.57131  0.28277  1.0000
  C   C45       1.0  0.65246  0.01133  0.19260  1.0000
  C   C46       1.0  0.15246  0.48866  0.80739  1.0000
  C   C47       1.0  0.34755  0.98866  0.80739  1.0000
  C   C48       1.0  0.84754  0.51134  0.19260  1.0000
  N   N1        1.0  0.65260  0.05681  0.12763  1.0000
  N   N2        1.0  0.15258  0.44318  0.87236  1.0000
  N   N3        1.0  0.34742  0.94318  0.87237  1.0000
  N   N4        1.0  0.84741  0.55682  0.12763  1.0000
  N   N5        1.0  0.51697  0.18029  0.30840  1.0000
  N   N6        1.0  0.01696  0.31971  0.69160  1.0000
  N   N7        1.0  0.48304  0.81971  0.69160  1.0000
  N   N8        1.0  0.98303  0.68030  0.30840  1.0000
  Cl  Cl1       1.0  0.57977  0.22478  0.07199  1.0000
  Cl  Cl2       1.0  0.07974  0.27521  0.92801  1.0000
  Cl  Cl3       1.0  0.42025  0.77521  0.92801  1.0000
  Cl  Cl4       1.0  0.92025  0.72480  0.07199  1.0000
  O   O1        1.0  0.57633  0.16879  0.56569  1.0000
  O   O2        1.0  0.07631  0.33123  0.43431  1.0000
  O   O3        1.0  0.42366  0.83122  0.43431  1.0000
  O   O4        1.0  0.92369  0.66878  0.56569  1.0000
  O   O5        1.0  0.33428  0.13027  0.64554  1.0000
  O   O6        1.0  0.83425  0.36974  0.35446  1.0000
  O   O7        1.0  0.66572  0.86974  0.35447  1.0000
  O   O8        1.0  0.16575  0.63027  0.64553  1.0000
  O   O9        1.0  0.68422  0.49467  0.64055  1.0000
  O   O10       1.0  0.18421  0.00534  0.35945  1.0000
  O   O11       1.0  0.31577  0.50534  0.35945  1.0000
  O   O12       1.0  0.81579  0.99467  0.64056  1.0000
  O   O13       1.0  0.41340  0.38648  0.59928  1.0000
  O   O14       1.0  0.91339  0.11353  0.40072  1.0000
  O   O15       1.0  0.58659  0.61353  0.40072  1.0000
  O   O16       1.0  0.08660  0.88647  0.59928  1.0000
