data_image0
_chemical_formula_structural       Cd2H14C18N2O8
_chemical_formula_sum              "Cd2 H14 C18 N2 O8"
_cell_length_a       7.88155
_cell_length_b       8.4563
_cell_length_c       8.4563
_cell_angle_alpha    114.948
_cell_angle_beta     104.63
_cell_angle_gamma    104.63

_space_group_name_H-M_alt    "P 1"
_space_group_IT_number       1

loop_
  _space_group_symop_operation_xyz
  'x, y, z'

loop_
  _atom_site_type_symbol
  _atom_site_label
  _atom_site_symmetry_multiplicity
  _atom_site_fract_x
  _atom_site_fract_y
  _atom_site_fract_z
  _atom_site_occupancy
  Cd  Cd1       1.0  0.25000  0.93917  0.06083  1.0000
  Cd  Cd2       1.0  0.75000  0.06083  0.93917  1.0000
  H   H1        1.0  0.75000  0.49382  0.50618  1.0000
  H   H2        1.0  0.25000  0.50618  0.49382  1.0000
  H   H3        1.0  0.73367  0.88147  0.60313  1.0000
  H   H4        1.0  0.76633  0.39687  0.11853  1.0000
  H   H5        1.0  0.26634  0.11853  0.39688  1.0000
  H   H6        1.0  0.23367  0.60313  0.88147  1.0000
  H   H7        1.0  0.62054  0.84472  0.37206  1.0000
  H   H8        1.0  0.87946  0.62794  0.15528  1.0000
  H   H9        1.0  0.37946  0.15528  0.62794  1.0000
  H   H10       1.0  0.12054  0.37206  0.84472  1.0000
  H   H11       1.0  0.87231  0.94450  0.48674  1.0000
  H   H12       1.0  0.62769  0.51326  0.05550  1.0000
  H   H13       1.0  0.12770  0.05550  0.51326  1.0000
  H   H14       1.0  0.37231  0.48674  0.94450  1.0000
  C   C1        1.0  0.74313  0.13758  0.59697  1.0000
  C   C2        1.0  0.75687  0.40303  0.86242  1.0000
  C   C3        1.0  0.25687  0.86242  0.40303  1.0000
  C   C4        1.0  0.24313  0.59697  0.13758  1.0000
  C   C5        1.0  0.74113  0.23274  0.49503  1.0000
  C   C6        1.0  0.75887  0.50497  0.76726  1.0000
  C   C7        1.0  0.25886  0.76726  0.50497  1.0000
  C   C8        1.0  0.24113  0.49503  0.23274  1.0000
  C   C9        1.0  0.75000  0.41755  0.58246  1.0000
  C   C10       1.0  0.25000  0.58245  0.41754  1.0000
  C   C11       1.0  0.74181  0.94173  0.51202  1.0000
  C   C12       1.0  0.75819  0.48797  0.05827  1.0000
  C   C13       1.0  0.25819  0.05827  0.48798  1.0000
  C   C14       1.0  0.24181  0.51203  0.94173  1.0000
  C   C15       1.0  0.72429  0.14181  0.29285  1.0000
  C   C16       1.0  0.77571  0.70715  0.85819  1.0000
  C   C17       1.0  0.27571  0.85818  0.70714  1.0000
  C   C18       1.0  0.22429  0.29285  0.14181  1.0000
  N   N1        1.0  0.75000  0.22389  0.77611  1.0000
  N   N2        1.0  0.25000  0.77611  0.22389  1.0000
  O   O1        1.0  0.58879  0.98049  0.16499  1.0000
  O   O2        1.0  0.91121  0.83501  0.01951  1.0000
  O   O3        1.0  0.41121  0.01951  0.83501  1.0000
  O   O4        1.0  0.08879  0.16499  0.98049  1.0000
  O   O5        1.0  0.84841  0.23873  0.25951  1.0000
  O   O6        1.0  0.65160  0.74050  0.76127  1.0000
  O   O7        1.0  0.15159  0.76127  0.74049  1.0000
  O   O8        1.0  0.34840  0.25950  0.23873  1.0000
