data_image0
_chemical_formula_structural       Zn2H46C60N12O10
_chemical_formula_sum              "Zn2 H46 C60 N12 O10"
_cell_length_a       10.1727
_cell_length_b       12.4628
_cell_length_c       12.856
_cell_angle_alpha    114.565
_cell_angle_beta     100.734
_cell_angle_gamma    92.3686

_space_group_name_H-M_alt    "P 1"
_space_group_IT_number       1

loop_
  _space_group_symop_operation_xyz
  'x, y, z'

loop_
  _atom_site_type_symbol
  _atom_site_label
  _atom_site_symmetry_multiplicity
  _atom_site_fract_x
  _atom_site_fract_y
  _atom_site_fract_z
  _atom_site_occupancy
  Zn  Zn1       1.0  0.51624  0.73111  0.16238  1.0000
  Zn  Zn2       1.0  0.48376  0.26889  0.83762  1.0000
  H   H1        1.0  0.01929  0.76305  0.17713  1.0000
  H   H2        1.0  0.98071  0.23695  0.82287  1.0000
  H   H3        1.0  0.78721  0.44895  0.14396  1.0000
  H   H4        1.0  0.21279  0.55105  0.85604  1.0000
  H   H5        1.0  0.20801  0.44956  0.13039  1.0000
  H   H6        1.0  0.79199  0.55044  0.86961  1.0000
  H   H7        1.0  0.17540  0.28242  0.15947  1.0000
  H   H8        1.0  0.82460  0.71758  0.84053  1.0000
  H   H9        1.0  0.12064  0.26617  0.01224  1.0000
  H   H10       1.0  0.87936  0.73383  0.98776  1.0000
  H   H11       1.0  0.65553  0.16183  0.01835  1.0000
  H   H12       1.0  0.34447  0.83817  0.98165  1.0000
  H   H13       1.0  0.43147  0.45208  0.08641  1.0000
  H   H14       1.0  0.56853  0.54792  0.91359  1.0000
  H   H15       1.0  0.52530  0.55271  0.31186  1.0000
  H   H16       1.0  0.47470  0.44729  0.68814  1.0000
  H   H17       1.0  0.63468  0.47573  0.37352  1.0000
  H   H18       1.0  0.36532  0.52427  0.62648  1.0000
  H   H19       1.0  0.31107  0.56956  0.35955  1.0000
  H   H20       1.0  0.68893  0.43045  0.64045  1.0000
  H   H21       1.0  0.76618  0.92923  0.35122  1.0000
  H   H22       1.0  0.23383  0.07077  0.64878  1.0000
  H   H23       1.0  0.35047  0.95113  0.29157  1.0000
  H   H24       1.0  0.64953  0.04887  0.70842  1.0000
  H   H25       1.0  0.78361  0.12713  0.60278  1.0000
  H   H26       1.0  0.21639  0.87287  0.39722  1.0000
  H   H27       1.0  0.68681  0.23126  0.57571  1.0000
  H   H28       1.0  0.31319  0.76874  0.42429  1.0000
  H   H29       1.0  0.01241  0.15531  0.60973  1.0000
  H   H30       1.0  0.98759  0.84469  0.39027  1.0000
  H   H31       1.0  0.20548  0.23482  0.55864  1.0000
  H   H32       1.0  0.79452  0.76518  0.44136  1.0000
  H   H33       1.0  0.92836  0.32913  0.32221  1.0000
  H   H34       1.0  0.07164  0.67087  0.67779  1.0000
  H   H35       1.0  0.73707  0.25323  0.37502  1.0000
  H   H36       1.0  0.26293  0.74677  0.62498  1.0000
  H   H37       1.0  0.31241  0.19227  0.40260  1.0000
  H   H38       1.0  0.68759  0.80773  0.59740  1.0000
  H   H39       1.0  0.50508  0.26631  0.34986  1.0000
  H   H40       1.0  0.49492  0.73369  0.65014  1.0000
  H   H41       1.0  0.11535  0.49502  0.41138  1.0000
  H   H42       1.0  0.88465  0.50498  0.58862  1.0000
  H   H43       1.0  0.86212  0.12232  0.92237  1.0000
  H   H44       1.0  0.13788  0.87768  0.07763  1.0000
  H   H45       1.0  0.21181  0.09555  0.15231  1.0000
  H   H46       1.0  0.78818  0.90444  0.84769  1.0000
  C   C1        1.0  0.25729  0.67700  0.16190  1.0000
  C   C2        1.0  0.74271  0.32300  0.83810  1.0000
  C   C3        1.0  0.12705  0.61269  0.15628  1.0000
  C   C4        1.0  0.87295  0.38731  0.84372  1.0000
  C   C5        1.0  0.01356  0.67174  0.16690  1.0000
  C   C6        1.0  0.98644  0.32826  0.83310  1.0000
  C   C7        1.0  0.89123  0.61328  0.16341  1.0000
  C   C8        1.0  0.10877  0.38672  0.83659  1.0000
  C   C9        1.0  0.77140  0.67969  0.17220  1.0000
  C   C10       1.0  0.22861  0.32031  0.82780  1.0000
  C   C11       1.0  0.88236  0.49538  0.14819  1.0000
  C   C12       1.0  0.11764  0.50462  0.85181  1.0000
  C   C13       1.0  0.99582  0.43487  0.13440  1.0000
  C   C14       1.0  0.00418  0.56513  0.86560  1.0000
  C   C15       1.0  0.11847  0.49403  0.13960  1.0000
  C   C16       1.0  0.88153  0.50597  0.86041  1.0000
  C   C17       1.0  0.08905  0.25147  0.08347  1.0000
  C   C18       1.0  0.91095  0.74853  0.91653  1.0000
  C   C19       1.0  0.04144  0.12220  0.04216  1.0000
  C   C20       1.0  0.95856  0.87780  0.95784  1.0000
  C   C21       1.0  0.60661  0.23824  0.06314  1.0000
  C   C22       1.0  0.39339  0.76176  0.93686  1.0000
  C   C23       1.0  0.49226  0.38479  0.09392  1.0000
  C   C24       1.0  0.50774  0.61521  0.90608  1.0000
  C   C25       1.0  0.53786  0.46675  0.31414  1.0000
  C   C26       1.0  0.46214  0.53325  0.68586  1.0000
  C   C27       1.0  0.42127  0.42337  0.35056  1.0000
  C   C28       1.0  0.57873  0.57664  0.64944  1.0000
  C   C29       1.0  0.31106  0.48677  0.36931  1.0000
  C   C30       1.0  0.68894  0.51323  0.63069  1.0000
  C   C31       1.0  0.66882  0.95964  0.36078  1.0000
  C   C32       1.0  0.33118  0.04036  0.63922  1.0000
  C   C33       1.0  0.45756  0.97464  0.33164  1.0000
  C   C34       1.0  0.54244  0.02536  0.66836  1.0000
  C   C35       1.0  0.74584  0.15906  0.53641  1.0000
  C   C36       1.0  0.25416  0.84093  0.46359  1.0000
  C   C37       1.0  0.86148  0.19983  0.49752  1.0000
  C   C38       1.0  0.13852  0.80017  0.50248  1.0000
  C   C39       1.0  0.99396  0.19256  0.54588  1.0000
  C   C40       1.0  0.00604  0.80744  0.45412  1.0000
  C   C41       1.0  0.10255  0.23694  0.51683  1.0000
  C   C42       1.0  0.89745  0.76306  0.48317  1.0000
  C   C43       1.0  0.08140  0.28905  0.43798  1.0000
  C   C44       1.0  0.91860  0.71095  0.56202  1.0000
  C   C45       1.0  0.94778  0.29336  0.38720  1.0000
  C   C46       1.0  0.05222  0.70664  0.61281  1.0000
  C   C47       1.0  0.83942  0.24932  0.41673  1.0000
  C   C48       1.0  0.16058  0.75068  0.58327  1.0000
  C   C49       1.0  0.19789  0.33686  0.40913  1.0000
  C   C50       1.0  0.80211  0.66315  0.59087  1.0000
  C   C51       1.0  0.31077  0.27526  0.39334  1.0000
  C   C52       1.0  0.68923  0.72475  0.60665  1.0000
  C   C53       1.0  0.42033  0.31742  0.36403  1.0000
  C   C54       1.0  0.57967  0.68258  0.63597  1.0000
  C   C55       1.0  0.20022  0.44408  0.39756  1.0000
  C   C56       1.0  0.79978  0.55592  0.60244  1.0000
  C   C57       1.0  0.92173  0.06848  0.95666  1.0000
  C   C58       1.0  0.07827  0.93152  0.04334  1.0000
  C   C59       1.0  0.11902  0.05304  0.08499  1.0000
  C   C60       1.0  0.88098  0.94696  0.91501  1.0000
  N   N1        1.0  0.52681  0.29292  0.00718  1.0000
  N   N2        1.0  0.47319  0.70708  0.99282  1.0000
  N   N3        1.0  0.62207  0.29094  0.17882  1.0000
  N   N4        1.0  0.37793  0.70906  0.82118  1.0000
  N   N5        1.0  0.54915  0.38405  0.19633  1.0000
  N   N6        1.0  0.45085  0.61595  0.80367  1.0000
  N   N7        1.0  0.54970  0.89964  0.29102  1.0000
  N   N8        1.0  0.45030  0.10036  0.70898  1.0000
  N   N9        1.0  0.51335  0.07647  0.42238  1.0000
  N   N10       1.0  0.48666  0.92353  0.57761  1.0000
  N   N11       1.0  0.64745  0.06499  0.43968  1.0000
  N   N12       1.0  0.35255  0.93501  0.56032  1.0000
  O   O1        1.0  0.36573  0.62711  0.17310  1.0000
  O   O2        1.0  0.63427  0.37289  0.82690  1.0000
  O   O3        1.0  0.25984  0.77582  0.15738  1.0000
  O   O4        1.0  0.74016  0.22418  0.84262  1.0000
  O   O5        1.0  0.78266  0.78319  0.17851  1.0000
  O   O6        1.0  0.21733  0.21681  0.82149  1.0000
  O   O7        1.0  0.65846  0.62602  0.17133  1.0000
  O   O8        1.0  0.34154  0.37398  0.82867  1.0000
  O   O9        1.0  0.97868  0.31862  0.11573  1.0000
  O   O10       1.0  0.02131  0.68138  0.88426  1.0000
