data_image0
_chemical_formula_structural       Cu2H36C54N4O12
_chemical_formula_sum              "Cu2 H36 C54 N4 O12"
_cell_length_a       7.35196
_cell_length_b       12.5073
_cell_length_c       12.627
_cell_angle_alpha    74.5282
_cell_angle_beta     77.8805
_cell_angle_gamma    85.8041

_space_group_name_H-M_alt    "P 1"
_space_group_IT_number       1

loop_
  _space_group_symop_operation_xyz
  'x, y, z'

loop_
  _atom_site_type_symbol
  _atom_site_label
  _atom_site_symmetry_multiplicity
  _atom_site_fract_x
  _atom_site_fract_y
  _atom_site_fract_z
  _atom_site_occupancy
  Cu  Cu1       1.0  0.06412  0.32715  0.74696  1.0000
  Cu  Cu2       1.0  0.93589  0.67285  0.25304  1.0000
  H   H1        1.0  0.04298  0.15621  0.24495  1.0000
  H   H2        1.0  0.95701  0.84379  0.75505  1.0000
  H   H3        1.0  0.98558  0.27782  0.37807  1.0000
  H   H4        1.0  0.01442  0.72218  0.62193  1.0000
  H   H5        1.0  0.29388  0.04546  0.59469  1.0000
  H   H6        1.0  0.70612  0.95454  0.40530  1.0000
  H   H7        1.0  0.35657  0.92748  0.45992  1.0000
  H   H8        1.0  0.64342  0.07252  0.54008  1.0000
  H   H9        1.0  0.62051  0.94277  0.24600  1.0000
  H   H10       1.0  0.37948  0.05722  0.75400  1.0000
  H   H11       1.0  0.87734  0.04722  0.10327  1.0000
  H   H12       1.0  0.12265  0.95277  0.89673  1.0000
  H   H13       1.0  0.22217  0.12154  0.05417  1.0000
  H   H14       1.0  0.77782  0.87846  0.94583  1.0000
  H   H15       1.0  0.47787  0.22492  0.91219  1.0000
  H   H16       1.0  0.52212  0.77508  0.08781  1.0000
  H   H17       1.0  0.72683  0.43050  0.88677  1.0000
  H   H18       1.0  0.27318  0.56950  0.11323  1.0000
  H   H19       1.0  0.69289  0.59771  0.96639  1.0000
  H   H20       1.0  0.30711  0.40229  0.03360  1.0000
  H   H21       1.0  0.96677  0.71882  0.93022  1.0000
  H   H22       1.0  0.03323  0.28118  0.06977  1.0000
  H   H23       1.0  0.30495  0.76400  0.82432  1.0000
  H   H24       1.0  0.69505  0.23600  0.17568  1.0000
  H   H25       1.0  0.59155  0.70978  0.70733  1.0000
  H   H26       1.0  0.40845  0.29022  0.29267  1.0000
  H   H27       1.0  0.76851  0.56566  0.60577  1.0000
  H   H28       1.0  0.23149  0.43434  0.39423  1.0000
  H   H29       1.0  0.75925  0.38546  0.56036  1.0000
  H   H30       1.0  0.24076  0.61455  0.43964  1.0000
  H   H31       1.0  0.45940  0.28063  0.61776  1.0000
  H   H32       1.0  0.54062  0.71937  0.38224  1.0000
  H   H33       1.0  0.28112  0.81404  0.25562  1.0000
  H   H34       1.0  0.71887  0.18596  0.74439  1.0000
  H   H35       1.0  0.00050  0.91642  0.25755  1.0000
  H   H36       1.0  0.99949  0.08358  0.74245  1.0000
  C   C1        1.0  0.24681  0.96986  0.25447  1.0000
  C   C2        1.0  0.75318  0.03014  0.74553  1.0000
  C   C3        1.0  0.20630  0.03601  0.34302  1.0000
  C   C4        1.0  0.79370  0.96400  0.65697  1.0000
  C   C5        1.0  0.10062  0.13432  0.32072  1.0000
  C   C6        1.0  0.89937  0.86569  0.67928  1.0000
  C   C7        1.0  0.06798  0.20132  0.39454  1.0000
  C   C8        1.0  0.93202  0.79869  0.60546  1.0000
  C   C9        1.0  0.13861  0.17033  0.49358  1.0000
  C   C10       1.0  0.86139  0.82968  0.50642  1.0000
  C   C11       1.0  0.24136  0.07089  0.51702  1.0000
  C   C12       1.0  0.75863  0.92911  0.48297  1.0000
  C   C13       1.0  0.27654  0.00460  0.44168  1.0000
  C   C14       1.0  0.72345  0.99540  0.55832  1.0000
  C   C15       1.0  0.10077  0.24460  0.57056  1.0000
  C   C16       1.0  0.89923  0.75540  0.42944  1.0000
  C   C17       1.0  0.40419  0.02886  0.16194  1.0000
  C   C18       1.0  0.59580  0.97114  0.83806  1.0000
  C   C19       1.0  0.58911  0.00723  0.17461  1.0000
  C   C20       1.0  0.41087  0.99277  0.82539  1.0000
  C   C21       1.0  0.73312  0.06480  0.09465  1.0000
  C   C22       1.0  0.26687  0.93519  0.90535  1.0000
  C   C23       1.0  0.36458  0.10764  0.06724  1.0000
  C   C24       1.0  0.63541  0.89237  0.93276  1.0000
  C   C25       1.0  0.50859  0.16508  0.98694  1.0000
  C   C26       1.0  0.49141  0.83492  0.01306  1.0000
  C   C27       1.0  0.69344  0.14503  0.00070  1.0000
  C   C28       1.0  0.30655  0.85497  0.99930  1.0000
  C   C29       1.0  0.84909  0.20619  0.91725  1.0000
  C   C30       1.0  0.15091  0.79380  0.08276  1.0000
  C   C31       1.0  0.84168  0.48663  0.87164  1.0000
  C   C32       1.0  0.15833  0.51337  0.12836  1.0000
  C   C33       1.0  0.82505  0.57977  0.91566  1.0000
  C   C34       1.0  0.17496  0.42023  0.08434  1.0000
  C   C35       1.0  0.97592  0.64794  0.89400  1.0000
  C   C36       1.0  0.02409  0.35206  0.10600  1.0000
  C   C37       1.0  0.14480  0.62315  0.82659  1.0000
  C   C38       1.0  0.85521  0.37685  0.17341  1.0000
  C   C39       1.0  0.30916  0.68870  0.79572  1.0000
  C   C40       1.0  0.69084  0.31130  0.20428  1.0000
  C   C41       1.0  0.46839  0.65837  0.73117  1.0000
  C   C42       1.0  0.53161  0.34163  0.26883  1.0000
  C   C43       1.0  0.47851  0.55866  0.69407  1.0000
  C   C44       1.0  0.52150  0.44134  0.30593  1.0000
  C   C45       1.0  0.31727  0.49358  0.72255  1.0000
  C   C46       1.0  0.68274  0.50642  0.27745  1.0000
  C   C47       1.0  0.14948  0.52701  0.78705  1.0000
  C   C48       1.0  0.85053  0.47299  0.21295  1.0000
  C   C49       1.0  0.64012  0.51862  0.63239  1.0000
  C   C50       1.0  0.35989  0.48138  0.36761  1.0000
  C   C51       1.0  0.63418  0.41932  0.60446  1.0000
  C   C52       1.0  0.36583  0.58069  0.39554  1.0000
  C   C53       1.0  0.46776  0.36010  0.63637  1.0000
  C   C54       1.0  0.53225  0.63990  0.36363  1.0000
  N   N1        1.0  0.00015  0.46101  0.80933  1.0000
  N   N2        1.0  0.99987  0.53899  0.19067  1.0000
  N   N3        1.0  0.31326  0.39677  0.69338  1.0000
  N   N4        1.0  0.68676  0.60322  0.30662  1.0000
  O   O1        1.0  0.13480  0.20405  0.67150  1.0000
  O   O2        1.0  0.86520  0.79595  0.32850  1.0000
  O   O3        1.0  0.04077  0.34192  0.53892  1.0000
  O   O4        1.0  0.95924  0.65808  0.46108  1.0000
  O   O5        1.0  0.81294  0.26374  0.82028  1.0000
  O   O6        1.0  0.18706  0.73626  0.17973  1.0000
  O   O7        1.0  0.00853  0.20578  0.93862  1.0000
  O   O8        1.0  0.99147  0.79421  0.06138  1.0000
  O   O9        1.0  0.29771  0.85969  0.30627  1.0000
  O   O10       1.0  0.70227  0.14031  0.69373  1.0000
  O   O11       1.0  0.09023  0.97134  0.20514  1.0000
  O   O12       1.0  0.90976  0.02866  0.79486  1.0000
