data_image0
_chemical_formula_structural       Zn4H48C40N16O32
_chemical_formula_sum              "Zn4 H48 C40 N16 O32"
_cell_length_a       7.34815
_cell_length_b       11.8776
_cell_length_c       19.348
_cell_angle_alpha    90
_cell_angle_beta     90
_cell_angle_gamma    90

_space_group_name_H-M_alt    "P 1"
_space_group_IT_number       1

loop_
  _space_group_symop_operation_xyz
  'x, y, z'

loop_
  _atom_site_type_symbol
  _atom_site_label
  _atom_site_symmetry_multiplicity
  _atom_site_fract_x
  _atom_site_fract_y
  _atom_site_fract_z
  _atom_site_occupancy
  Zn  Zn1       1.0  0.50000  0.50000  0.00000  1.0000
  Zn  Zn2       1.0  0.50000  1.00000  0.50000  1.0000
  Zn  Zn3       1.0  0.00000  1.00000  1.00000  1.0000
  Zn  Zn4       1.0  0.00000  0.50000  0.50000  1.0000
  H   H1        1.0  0.45868  0.25322  0.04356  1.0000
  H   H2        1.0  0.45869  0.24677  0.45644  1.0000
  H   H3        1.0  0.04131  0.75322  0.95644  1.0000
  H   H4        1.0  0.04131  0.74678  0.54356  1.0000
  H   H5        1.0  0.54131  0.74677  0.95644  1.0000
  H   H6        1.0  0.54131  0.75322  0.54356  1.0000
  H   H7        1.0  0.95868  0.24677  0.04356  1.0000
  H   H8        1.0  0.95869  0.25323  0.45644  1.0000
  H   H9        1.0  0.45528  0.14012  0.14947  1.0000
  H   H10       1.0  0.45528  0.35988  0.35053  1.0000
  H   H11       1.0  0.04472  0.64012  0.85053  1.0000
  H   H12       1.0  0.04472  0.85988  0.64947  1.0000
  H   H13       1.0  0.54471  0.85988  0.85053  1.0000
  H   H14       1.0  0.54472  0.64012  0.64947  1.0000
  H   H15       1.0  0.95528  0.35988  0.14947  1.0000
  H   H16       1.0  0.95528  0.14012  0.35053  1.0000
  H   H17       1.0  0.56350  0.44666  0.26422  1.0000
  H   H18       1.0  0.56350  0.05333  0.23578  1.0000
  H   H19       1.0  0.93650  0.94666  0.73578  1.0000
  H   H20       1.0  0.93649  0.55333  0.76422  1.0000
  H   H21       1.0  0.43650  0.55333  0.73578  1.0000
  H   H22       1.0  0.43650  0.94667  0.76422  1.0000
  H   H23       1.0  0.06350  0.05334  0.26422  1.0000
  H   H24       1.0  0.06351  0.44667  0.23578  1.0000
  H   H25       1.0  0.55108  0.54844  0.15217  1.0000
  H   H26       1.0  0.55108  0.95156  0.34783  1.0000
  H   H27       1.0  0.94891  0.04844  0.84783  1.0000
  H   H28       1.0  0.94891  0.45156  0.65217  1.0000
  H   H29       1.0  0.44892  0.45155  0.84783  1.0000
  H   H30       1.0  0.44892  0.04844  0.65217  1.0000
  H   H31       1.0  0.05108  0.95156  0.15217  1.0000
  H   H32       1.0  0.05110  0.54844  0.34783  1.0000
  H   H33       1.0  0.60039  0.29724  0.93991  1.0000
  H   H34       1.0  0.60039  0.20276  0.56009  1.0000
  H   H35       1.0  0.89962  0.79724  0.06009  1.0000
  H   H36       1.0  0.89962  0.70276  0.43991  1.0000
  H   H37       1.0  0.39961  0.70276  0.06009  1.0000
  H   H38       1.0  0.39962  0.79724  0.43991  1.0000
  H   H39       1.0  0.10038  0.20276  0.93991  1.0000
  H   H40       1.0  0.10038  0.29724  0.56009  1.0000
  H   H41       1.0  0.77964  0.37215  0.93826  1.0000
  H   H42       1.0  0.77965  0.12785  0.56174  1.0000
  H   H43       1.0  0.72036  0.87215  0.06174  1.0000
  H   H44       1.0  0.72036  0.62785  0.43826  1.0000
  H   H45       1.0  0.22036  0.62785  0.06174  1.0000
  H   H46       1.0  0.22036  0.87215  0.43826  1.0000
  H   H47       1.0  0.27964  0.12785  0.93826  1.0000
  H   H48       1.0  0.27964  0.37215  0.56174  1.0000
  C   C1        1.0  0.48113  0.29344  0.09339  1.0000
  C   C2        1.0  0.48114  0.20656  0.40661  1.0000
  C   C3        1.0  0.01886  0.79344  0.90661  1.0000
  C   C4        1.0  0.01886  0.70656  0.59339  1.0000
  C   C5        1.0  0.51886  0.70656  0.90661  1.0000
  C   C6        1.0  0.51886  0.79344  0.59339  1.0000
  C   C7        1.0  0.98114  0.20656  0.09339  1.0000
  C   C8        1.0  0.98114  0.29344  0.40661  1.0000
  C   C9        1.0  0.48065  0.23002  0.15372  1.0000
  C   C10       1.0  0.48065  0.26998  0.34628  1.0000
  C   C11       1.0  0.01934  0.73002  0.84628  1.0000
  C   C12       1.0  0.01934  0.76998  0.65372  1.0000
  C   C13       1.0  0.51934  0.76998  0.84628  1.0000
  C   C14       1.0  0.51934  0.73002  0.65372  1.0000
  C   C15       1.0  0.98066  0.26998  0.15372  1.0000
  C   C16       1.0  0.98065  0.23002  0.34628  1.0000
  C   C17       1.0  0.50989  0.28268  0.21751  1.0000
  C   C18       1.0  0.50989  0.21731  0.28249  1.0000
  C   C19       1.0  0.99011  0.78269  0.78249  1.0000
  C   C20       1.0  0.99010  0.71731  0.71751  1.0000
  C   C21       1.0  0.49011  0.71732  0.78249  1.0000
  C   C22       1.0  0.49011  0.78269  0.71751  1.0000
  C   C23       1.0  0.00989  0.21732  0.21751  1.0000
  C   C24       1.0  0.00989  0.28269  0.28249  1.0000
  C   C25       1.0  0.53762  0.39983  0.21677  1.0000
  C   C26       1.0  0.53762  0.10016  0.28323  1.0000
  C   C27       1.0  0.96238  0.89983  0.78323  1.0000
  C   C28       1.0  0.96237  0.60017  0.71677  1.0000
  C   C29       1.0  0.46238  0.60016  0.78323  1.0000
  C   C30       1.0  0.46238  0.89983  0.71677  1.0000
  C   C31       1.0  0.03763  0.10017  0.21677  1.0000
  C   C32       1.0  0.03763  0.39984  0.28323  1.0000
  C   C33       1.0  0.53381  0.45742  0.15427  1.0000
  C   C34       1.0  0.53381  0.04258  0.34573  1.0000
  C   C35       1.0  0.96618  0.95742  0.84573  1.0000
  C   C36       1.0  0.96618  0.54258  0.65427  1.0000
  C   C37       1.0  0.46619  0.54258  0.84573  1.0000
  C   C38       1.0  0.46619  0.95742  0.65427  1.0000
  C   C39       1.0  0.03381  0.04258  0.15427  1.0000
  C   C40       1.0  0.03382  0.45743  0.34573  1.0000
  N   N1        1.0  0.50664  0.40558  0.09319  1.0000
  N   N2        1.0  0.50664  0.09442  0.40681  1.0000
  N   N3        1.0  0.99336  0.90558  0.90681  1.0000
  N   N4        1.0  0.99335  0.59442  0.59319  1.0000
  N   N5        1.0  0.49336  0.59442  0.90681  1.0000
  N   N6        1.0  0.49336  0.90558  0.59319  1.0000
  N   N7        1.0  0.00664  0.09442  0.09319  1.0000
  N   N8        1.0  0.00665  0.40558  0.40681  1.0000
  N   N9        1.0  0.12111  0.41633  0.94285  1.0000
  N   N10       1.0  0.12112  0.08367  0.55715  1.0000
  N   N11       1.0  0.37889  0.91633  0.05715  1.0000
  N   N12       1.0  0.37888  0.58368  0.44285  1.0000
  N   N13       1.0  0.87889  0.58367  0.05715  1.0000
  N   N14       1.0  0.87888  0.91633  0.44285  1.0000
  N   N15       1.0  0.62112  0.08367  0.94285  1.0000
  N   N16       1.0  0.62112  0.41633  0.55715  1.0000
  O   O1        1.0  0.27290  0.38678  0.96920  1.0000
  O   O2        1.0  0.27291  0.11323  0.53081  1.0000
  O   O3        1.0  0.22710  0.88678  0.03080  1.0000
  O   O4        1.0  0.22709  0.61323  0.46919  1.0000
  O   O5        1.0  0.72710  0.61322  0.03080  1.0000
  O   O6        1.0  0.72709  0.88678  0.46919  1.0000
  O   O7        1.0  0.77290  0.11322  0.96920  1.0000
  O   O8        1.0  0.77290  0.38678  0.53080  1.0000
  O   O9        1.0  0.00779  0.33764  0.92818  1.0000
  O   O10       1.0  0.00779  0.16236  0.57182  1.0000
  O   O11       1.0  0.49221  0.83764  0.07182  1.0000
  O   O12       1.0  0.49221  0.66236  0.42818  1.0000
  O   O13       1.0  0.99221  0.66236  0.07182  1.0000
  O   O14       1.0  0.99221  0.83764  0.42818  1.0000
  O   O15       1.0  0.50779  0.16236  0.92818  1.0000
  O   O16       1.0  0.50779  0.33764  0.57182  1.0000
  O   O17       1.0  0.08341  0.51665  0.93139  1.0000
  O   O18       1.0  0.08341  0.98336  0.56861  1.0000
  O   O19       1.0  0.41659  0.01665  0.06861  1.0000
  O   O20       1.0  0.41659  0.48336  0.43139  1.0000
  O   O21       1.0  0.91660  0.48335  0.06861  1.0000
  O   O22       1.0  0.91660  0.01664  0.43139  1.0000
  O   O23       1.0  0.58340  0.98335  0.93139  1.0000
  O   O24       1.0  0.58340  0.51665  0.56861  1.0000
  O   O25       1.0  0.64527  0.37596  0.94233  1.0000
  O   O26       1.0  0.64527  0.12404  0.55767  1.0000
  O   O27       1.0  0.85473  0.87596  0.05767  1.0000
  O   O28       1.0  0.85473  0.62404  0.44233  1.0000
  O   O29       1.0  0.35473  0.62404  0.05768  1.0000
  O   O30       1.0  0.35473  0.87596  0.44233  1.0000
  O   O31       1.0  0.14527  0.12404  0.94233  1.0000
  O   O32       1.0  0.14527  0.37596  0.55768  1.0000
