data_image0
_chemical_formula_structural       Na4H28C16N8O16
_chemical_formula_sum              "Na4 H28 C16 N8 O16"
_cell_length_a       6.41723
_cell_length_b       10.2746
_cell_length_c       10.2745
_cell_angle_alpha    91.4395
_cell_angle_beta     99.6296
_cell_angle_gamma    99.6356

_space_group_name_H-M_alt    "P 1"
_space_group_IT_number       1

loop_
  _space_group_symop_operation_xyz
  'x, y, z'

loop_
  _atom_site_type_symbol
  _atom_site_label
  _atom_site_symmetry_multiplicity
  _atom_site_fract_x
  _atom_site_fract_y
  _atom_site_fract_z
  _atom_site_occupancy
  Na  Na1       1.0  0.34900  0.73465  0.75477  1.0000
  Na  Na2       1.0  0.15099  0.24521  0.26537  1.0000
  Na  Na3       1.0  0.65100  0.26536  0.24523  1.0000
  Na  Na4       1.0  0.84900  0.75479  0.73463  1.0000
  H   H1        1.0  0.57418  0.50087  0.91086  1.0000
  H   H2        1.0  0.92587  0.08917  0.49915  1.0000
  H   H3        1.0  0.42589  0.49918  0.08919  1.0000
  H   H4        1.0  0.07420  0.91083  0.50086  1.0000
  H   H5        1.0  0.54324  0.25981  0.95902  1.0000
  H   H6        1.0  0.95680  0.04099  0.74022  1.0000
  H   H7        1.0  0.45674  0.74022  0.04099  1.0000
  H   H8        1.0  0.04323  0.95900  0.25979  1.0000
  H   H9        1.0  0.79696  0.83219  0.97893  1.0000
  H   H10       1.0  0.70300  0.02105  0.16781  1.0000
  H   H11       1.0  0.20305  0.16781  0.02106  1.0000
  H   H12       1.0  0.29700  0.97895  0.83219  1.0000
  H   H13       1.0  0.67823  0.93610  0.89217  1.0000
  H   H14       1.0  0.82176  0.10782  0.06390  1.0000
  H   H15       1.0  0.32177  0.06389  0.10783  1.0000
  H   H16       1.0  0.17824  0.89219  0.93609  1.0000
  H   H17       1.0  0.04653  0.52729  0.85997  1.0000
  H   H18       1.0  0.45347  0.14002  0.47272  1.0000
  H   H19       1.0  0.95346  0.47271  0.14002  1.0000
  H   H20       1.0  0.54654  0.85999  0.52728  1.0000
  H   H21       1.0  0.05077  0.65744  0.95778  1.0000
  H   H22       1.0  0.44919  0.04220  0.34258  1.0000
  H   H23       1.0  0.94923  0.34256  0.04221  1.0000
  H   H24       1.0  0.55081  0.95781  0.65743  1.0000
  H   H25       1.0  0.48788  0.38311  0.50708  1.0000
  H   H26       1.0  0.01208  0.49290  0.61690  1.0000
  H   H27       1.0  0.51207  0.61690  0.49289  1.0000
  H   H28       1.0  0.98789  0.50709  0.38310  1.0000
  C   C1        1.0  0.52899  0.46141  0.69887  1.0000
  C   C2        1.0  0.97098  0.30114  0.53858  1.0000
  C   C3        1.0  0.47098  0.53859  0.30114  1.0000
  C   C4        1.0  0.02900  0.69884  0.46141  1.0000
  C   C5        1.0  0.50566  0.19339  0.75271  1.0000
  C   C6        1.0  0.99441  0.24729  0.80661  1.0000
  C   C7        1.0  0.49439  0.80661  0.24729  1.0000
  C   C8        1.0  0.00561  0.75271  0.19338  1.0000
  C   C9        1.0  0.54710  0.42288  0.83297  1.0000
  C   C10       1.0  0.95282  0.16705  0.57715  1.0000
  C   C11       1.0  0.45278  0.57715  0.16706  1.0000
  C   C12       1.0  0.04715  0.83293  0.42285  1.0000
  C   C13       1.0  0.53289  0.29295  0.85885  1.0000
  C   C14       1.0  0.96720  0.14114  0.70708  1.0000
  C   C15       1.0  0.46720  0.70707  0.14115  1.0000
  C   C16       1.0  0.03285  0.85885  0.29294  1.0000
  N   N1        1.0  0.49034  0.23018  0.62777  1.0000
  N   N2        1.0  0.00967  0.37220  0.76982  1.0000
  N   N3        1.0  0.50963  0.76982  0.37220  1.0000
  N   N4        1.0  0.99031  0.62779  0.23017  1.0000
  N   N5        1.0  0.50052  0.36061  0.60649  1.0000
  N   N6        1.0  0.99952  0.39350  0.63940  1.0000
  N   N7        1.0  0.49953  0.63939  0.39349  1.0000
  N   N8        1.0  0.00049  0.60648  0.36059  1.0000
  O   O1        1.0  0.53710  0.58122  0.66436  1.0000
  O   O2        1.0  0.96287  0.33565  0.41877  1.0000
  O   O3        1.0  0.46288  0.41876  0.33566  1.0000
  O   O4        1.0  0.03711  0.66434  0.58123  1.0000
  O   O5        1.0  0.67893  0.84204  0.90437  1.0000
  O   O6        1.0  0.82107  0.09561  0.15797  1.0000
  O   O7        1.0  0.32108  0.15795  0.09563  1.0000
  O   O8        1.0  0.17894  0.90439  0.84203  1.0000
  O   O9        1.0  0.50066  0.06938  0.77584  1.0000
  O   O10       1.0  0.99942  0.22416  0.93063  1.0000
  O   O11       1.0  0.49933  0.93063  0.22416  1.0000
  O   O12       1.0  0.00059  0.77583  0.06937  1.0000
  O   O13       1.0  0.08120  0.62556  0.87173  1.0000
  O   O14       1.0  0.41876  0.12825  0.37445  1.0000
  O   O15       1.0  0.91878  0.37444  0.12826  1.0000
  O   O16       1.0  0.58124  0.87175  0.62555  1.0000
