data_image0
_chemical_formula_structural       U4H24C32N4O22
_chemical_formula_sum              "U4 H24 C32 N4 O22"
_cell_length_a       8.57628
_cell_length_b       9.88791
_cell_length_c       11.8248
_cell_angle_alpha    78.4063
_cell_angle_beta     80.7046
_cell_angle_gamma    83.5126

_space_group_name_H-M_alt    "P 1"
_space_group_IT_number       1

loop_
  _space_group_symop_operation_xyz
  'x, y, z'

loop_
  _atom_site_type_symbol
  _atom_site_label
  _atom_site_symmetry_multiplicity
  _atom_site_fract_x
  _atom_site_fract_y
  _atom_site_fract_z
  _atom_site_occupancy
  U   U1        1.0  0.18627  0.58252  0.03581  1.0000
  U   U2        1.0  0.81373  0.41748  0.96419  1.0000
  U   U3        1.0  0.70539  0.69427  0.51408  1.0000
  U   U4        1.0  0.29461  0.30574  0.48592  1.0000
  H   H1        1.0  0.78295  0.38012  0.23292  1.0000
  H   H2        1.0  0.21705  0.61988  0.76709  1.0000
  H   H3        1.0  0.86708  0.44714  0.33480  1.0000
  H   H4        1.0  0.13292  0.55286  0.66520  1.0000
  H   H5        1.0  0.60728  0.74748  0.21502  1.0000
  H   H6        1.0  0.39272  0.25253  0.78498  1.0000
  H   H7        1.0  0.70776  0.77376  0.06999  1.0000
  H   H8        1.0  0.29224  0.22624  0.93001  1.0000
  H   H9        1.0  0.45167  0.76705  0.75292  1.0000
  H   H10       1.0  0.54833  0.23295  0.24708  1.0000
  H   H11       1.0  0.39575  0.92599  0.89403  1.0000
  H   H12       1.0  0.60425  0.07401  0.10597  1.0000
  H   H13       1.0  0.61468  0.07397  0.90942  1.0000
  H   H14       1.0  0.38532  0.92603  0.09058  1.0000
  H   H15       1.0  0.87612  0.04107  0.79179  1.0000
  H   H16       1.0  0.12388  0.95893  0.20821  1.0000
  H   H17       1.0  0.09750  0.95765  0.72846  1.0000
  H   H18       1.0  0.90250  0.04235  0.27154  1.0000
  H   H19       1.0  0.34653  0.91927  0.59364  1.0000
  H   H20       1.0  0.65347  0.08072  0.40636  1.0000
  H   H21       1.0  0.33912  0.79621  0.42910  1.0000
  H   H22       1.0  0.66088  0.20379  0.57090  1.0000
  H   H23       1.0  0.08292  0.71902  0.40481  1.0000
  H   H24       1.0  0.91708  0.28098  0.59519  1.0000
  C   C1        1.0  0.91395  0.68729  0.23365  1.0000
  C   C2        1.0  0.08605  0.31271  0.76634  1.0000
  C   C3        1.0  0.81478  0.60042  0.18146  1.0000
  C   C4        1.0  0.18522  0.39958  0.81854  1.0000
  C   C5        1.0  0.77581  0.46870  0.27637  1.0000
  C   C6        1.0  0.22419  0.53130  0.72363  1.0000
  C   C7        1.0  0.61700  0.47942  0.35176  1.0000
  C   C8        1.0  0.38300  0.52058  0.64824  1.0000
  C   C9        1.0  0.66685  0.69403  0.14511  1.0000
  C   C10       1.0  0.33315  0.30597  0.85489  1.0000
  C   C11       1.0  0.54766  0.61653  0.10668  1.0000
  C   C12       1.0  0.45234  0.38347  0.89332  1.0000
  C   C13       1.0  0.54247  0.83041  0.76285  1.0000
  C   C14       1.0  0.45753  0.16959  0.23715  1.0000
  C   C15       1.0  0.51292  0.91930  0.84282  1.0000
  C   C16       1.0  0.48708  0.08070  0.15719  1.0000
  C   C17       1.0  0.63382  0.99740  0.85284  1.0000
  C   C18       1.0  0.36618  0.00260  0.14716  1.0000
  C   C19       1.0  0.78112  0.97959  0.78587  1.0000
  C   C20       1.0  0.21888  0.02041  0.21413  1.0000
  C   C21       1.0  0.80270  0.88747  0.70769  1.0000
  C   C22       1.0  0.19730  0.11253  0.29231  1.0000
  C   C23       1.0  0.95544  0.86449  0.63410  1.0000
  C   C24       1.0  0.04456  0.13551  0.36590  1.0000
  C   C25       1.0  0.09667  0.90728  0.65486  1.0000
  C   C26       1.0  0.90333  0.09272  0.34514  1.0000
  C   C27       1.0  0.23634  0.88392  0.58093  1.0000
  C   C28       1.0  0.76366  0.11607  0.41907  1.0000
  C   C29       1.0  0.23265  0.81656  0.48883  1.0000
  C   C30       1.0  0.76735  0.18343  0.51117  1.0000
  C   C31       1.0  0.08962  0.77397  0.47449  1.0000
  C   C32       1.0  0.91038  0.22603  0.52551  1.0000
  N   N1        1.0  0.68242  0.81668  0.69444  1.0000
  N   N2        1.0  0.31758  0.18332  0.30556  1.0000
  N   N3        1.0  0.95327  0.79821  0.54448  1.0000
  N   N4        1.0  0.04673  0.20178  0.45552  1.0000
  O   O1        1.0  0.21225  0.42887  0.14530  1.0000
  O   O2        1.0  0.78775  0.57113  0.85470  1.0000
  O   O3        1.0  0.16980  0.74049  0.92708  1.0000
  O   O4        1.0  0.83020  0.25951  0.07292  1.0000
  O   O5        1.0  0.81739  0.53384  0.56442  1.0000
  O   O6        1.0  0.18260  0.46616  0.43558  1.0000
  O   O7        1.0  0.59416  0.85437  0.46054  1.0000
  O   O8        1.0  0.40584  0.14563  0.53946  1.0000
  O   O9        1.0  0.05167  0.71104  0.18139  1.0000
  O   O10       1.0  0.94833  0.28896  0.81861  1.0000
  O   O11       1.0  0.85437  0.73024  0.32711  1.0000
  O   O12       1.0  0.14563  0.26976  0.67289  1.0000
  O   O13       1.0  0.58014  0.58303  0.40293  1.0000
  O   O14       1.0  0.41986  0.41698  0.59707  1.0000
  O   O15       1.0  0.52431  0.38499  0.36141  1.0000
  O   O16       1.0  0.47569  0.61501  0.63859  1.0000
  O   O17       1.0  0.40872  0.67269  0.09824  1.0000
  O   O18       1.0  0.59128  0.32731  0.90176  1.0000
  O   O19       1.0  0.59554  0.49603  0.08486  1.0000
  O   O20       1.0  0.40446  0.50397  0.91514  1.0000
  O   O21       1.0  0.90735  0.55869  0.08245  1.0000
  O   O22       1.0  0.09265  0.44130  0.91755  1.0000
