data_image0
_chemical_formula_structural       Cu2H12C18I2N2O4
_chemical_formula_sum              "Cu2 H12 C18 I2 N2 O4"
_cell_length_a       4.00207
_cell_length_b       9.38924
_cell_length_c       12.9761
_cell_angle_alpha    96.2585
_cell_angle_beta     95.7685
_cell_angle_gamma    101.415

_space_group_name_H-M_alt    "P 1"
_space_group_IT_number       1

loop_
  _space_group_symop_operation_xyz
  'x, y, z'

loop_
  _atom_site_type_symbol
  _atom_site_label
  _atom_site_symmetry_multiplicity
  _atom_site_fract_x
  _atom_site_fract_y
  _atom_site_fract_z
  _atom_site_occupancy
  Cu  Cu1       1.0  0.80354  0.09482  0.51924  1.0000
  Cu  Cu2       1.0  0.19644  0.90519  0.48075  1.0000
  H   H1        1.0  0.43828  0.34722  0.87319  1.0000
  H   H2        1.0  0.56171  0.65277  0.12681  1.0000
  H   H3        1.0  0.18165  0.13588  0.73250  1.0000
  H   H4        1.0  0.81835  0.86412  0.26750  1.0000
  H   H5        1.0  0.76496  0.40644  0.54831  1.0000
  H   H6        1.0  0.23506  0.59356  0.45170  1.0000
  H   H7        1.0  0.00908  0.62820  0.67868  1.0000
  H   H8        1.0  0.99094  0.37180  0.32132  1.0000
  H   H9        1.0  0.68188  0.99571  0.82174  1.0000
  H   H10       1.0  0.31812  0.00429  0.17826  1.0000
  H   H11       1.0  0.12673  0.77637  0.04599  1.0000
  H   H12       1.0  0.87327  0.22363  0.95401  1.0000
  C   C1        1.0  0.29455  0.36389  0.80129  1.0000
  C   C2        1.0  0.70545  0.63611  0.19871  1.0000
  C   C3        1.0  0.15061  0.24717  0.72423  1.0000
  C   C4        1.0  0.84940  0.75283  0.27577  1.0000
  C   C5        1.0  0.91918  0.39865  0.62099  1.0000
  C   C6        1.0  0.08084  0.60135  0.37901  1.0000
  C   C7        1.0  0.05460  0.52140  0.69395  1.0000
  C   C8        1.0  0.94543  0.47860  0.30605  1.0000
  C   C9        1.0  0.24713  0.50431  0.78620  1.0000
  C   C10       1.0  0.75287  0.49568  0.21380  1.0000
  C   C11       1.0  0.40713  0.62893  0.86855  1.0000
  C   C12       1.0  0.59286  0.37107  0.13145  1.0000
  C   C13       1.0  0.60252  0.99991  0.89979  1.0000
  C   C14       1.0  0.39747  0.00010  0.10021  1.0000
  C   C15       1.0  0.39991  0.87582  0.92862  1.0000
  C   C16       1.0  0.60006  0.12418  0.07138  1.0000
  C   C17       1.0  0.29501  0.87390  0.02768  1.0000
  C   C18       1.0  0.70498  0.12610  0.97232  1.0000
  I   I1        1.0  0.70505  0.85374  0.60641  1.0000
  I   I2        1.0  0.29492  0.14626  0.39359  1.0000
  N   N1        1.0  0.96540  0.26324  0.63490  1.0000
  N   N2        1.0  0.03460  0.73677  0.36510  1.0000
  O   O1        1.0  0.28714  0.75229  0.85255  1.0000
  O   O2        1.0  0.71286  0.24771  0.14745  1.0000
  O   O3        1.0  0.62131  0.62184  0.94049  1.0000
  O   O4        1.0  0.37870  0.37817  0.05952  1.0000
