data_image0
_chemical_formula_structural       Ag4H48C48N12Cl4F4
_chemical_formula_sum              "Ag4 H48 C48 N12 Cl4 F4"
_cell_length_a       4.47043
_cell_length_b       14.477
_cell_length_c       18.6331
_cell_angle_alpha    90
_cell_angle_beta     90
_cell_angle_gamma    90

_space_group_name_H-M_alt    "P 1"
_space_group_IT_number       1

loop_
  _space_group_symop_operation_xyz
  'x, y, z'

loop_
  _atom_site_type_symbol
  _atom_site_label
  _atom_site_symmetry_multiplicity
  _atom_site_fract_x
  _atom_site_fract_y
  _atom_site_fract_z
  _atom_site_occupancy
  Ag  Ag1       1.0  0.80225  0.31329  0.56074  1.0000
  Ag  Ag2       1.0  0.30225  0.18671  0.43926  1.0000
  Ag  Ag3       1.0  0.19775  0.81329  0.93926  1.0000
  Ag  Ag4       1.0  0.69775  0.68671  0.06074  1.0000
  H   H1        1.0  0.34130  0.36031  0.70206  1.0000
  H   H2        1.0  0.84130  0.13969  0.29794  1.0000
  H   H3        1.0  0.65870  0.86031  0.79794  1.0000
  H   H4        1.0  0.15870  0.63969  0.20206  1.0000
  H   H5        1.0  0.09515  0.39484  0.84975  1.0000
  H   H6        1.0  0.59515  0.10516  0.15025  1.0000
  H   H7        1.0  0.90485  0.89484  0.65025  1.0000
  H   H8        1.0  0.40485  0.60516  0.34975  1.0000
  H   H9        1.0  0.44263  0.43016  0.81487  1.0000
  H   H10       1.0  0.94263  0.06984  0.18513  1.0000
  H   H11       1.0  0.55737  0.93015  0.68513  1.0000
  H   H12       1.0  0.05737  0.56985  0.31487  1.0000
  H   H13       1.0  0.94034  0.55181  0.83966  1.0000
  H   H14       1.0  0.44034  0.94819  0.16034  1.0000
  H   H15       1.0  0.05966  0.05181  0.66034  1.0000
  H   H16       1.0  0.55966  0.44819  0.33966  1.0000
  H   H17       1.0  0.24972  0.57865  0.78447  1.0000
  H   H18       1.0  0.74973  0.92135  0.21552  1.0000
  H   H19       1.0  0.75028  0.07865  0.71552  1.0000
  H   H20       1.0  0.25028  0.42135  0.28448  1.0000
  H   H21       1.0  0.93381  0.24497  0.69758  1.0000
  H   H22       1.0  0.43381  0.25503  0.30242  1.0000
  H   H23       1.0  0.06619  0.74497  0.80242  1.0000
  H   H24       1.0  0.56619  0.75503  0.19758  1.0000
  H   H25       1.0  0.15830  0.23329  0.77742  1.0000
  H   H26       1.0  0.65830  0.26671  0.22258  1.0000
  H   H27       1.0  0.84170  0.73329  0.72258  1.0000
  H   H28       1.0  0.34170  0.76671  0.27742  1.0000
  H   H29       1.0  0.41522  0.41617  0.51769  1.0000
  H   H30       1.0  0.91522  0.08383  0.48231  1.0000
  H   H31       1.0  0.58477  0.91617  0.98231  1.0000
  H   H32       1.0  0.08477  0.58383  0.01769  1.0000
  H   H33       1.0  0.04879  0.47458  0.43145  1.0000
  H   H34       1.0  0.54879  0.02542  0.56855  1.0000
  H   H35       1.0  0.95121  0.97458  0.06855  1.0000
  H   H36       1.0  0.45121  0.52542  0.93145  1.0000
  H   H37       1.0  0.85157  0.63654  0.44173  1.0000
  H   H38       1.0  0.35157  0.86346  0.55827  1.0000
  H   H39       1.0  0.14843  0.13654  0.05827  1.0000
  H   H40       1.0  0.64843  0.36346  0.94173  1.0000
  H   H41       1.0  0.01747  0.73502  0.54365  1.0000
  H   H42       1.0  0.51747  0.76498  0.45635  1.0000
  H   H43       1.0  0.98253  0.23502  0.95635  1.0000
  H   H44       1.0  0.48253  0.26498  0.04365  1.0000
  H   H45       1.0  0.38515  0.67497  0.63202  1.0000
  H   H46       1.0  0.88515  0.82503  0.36798  1.0000
  H   H47       1.0  0.61485  0.17497  0.86798  1.0000
  H   H48       1.0  0.11485  0.32503  0.13202  1.0000
  C   C1        1.0  0.77706  0.42627  0.63322  1.0000
  C   C2        1.0  0.27706  0.07373  0.36678  1.0000
  C   C3        1.0  0.22294  0.92627  0.86678  1.0000
  C   C4        1.0  0.72294  0.57373  0.13322  1.0000
  C   C5        1.0  0.89005  0.51698  0.72747  1.0000
  C   C6        1.0  0.39005  0.98302  0.27253  1.0000
  C   C7        1.0  0.10995  0.01698  0.77253  1.0000
  C   C8        1.0  0.60995  0.48302  0.22747  1.0000
  C   C9        1.0  0.13916  0.37191  0.73453  1.0000
  C   C10       1.0  0.63916  0.12809  0.26547  1.0000
  C   C11       1.0  0.86084  0.87191  0.76547  1.0000
  C   C12       1.0  0.36084  0.62809  0.23453  1.0000
  C   C13       1.0  0.20260  0.42865  0.80389  1.0000
  C   C14       1.0  0.70260  0.07135  0.19611  1.0000
  C   C15       1.0  0.79740  0.92865  0.69611  1.0000
  C   C16       1.0  0.29739  0.57135  0.30389  1.0000
  C   C17       1.0  0.07202  0.52742  0.79362  1.0000
  C   C18       1.0  0.57202  0.97258  0.20637  1.0000
  C   C19       1.0  0.92798  0.02742  0.70637  1.0000
  C   C20       1.0  0.42798  0.47258  0.29363  1.0000
  C   C21       1.0  0.00210  0.27800  0.74807  1.0000
  C   C22       1.0  0.50210  0.22200  0.25193  1.0000
  C   C23       1.0  0.99790  0.77800  0.75193  1.0000
  C   C24       1.0  0.49790  0.72200  0.24807  1.0000
  C   C25       1.0  0.42562  0.54261  0.58005  1.0000
  C   C26       1.0  0.92562  0.95739  0.41995  1.0000
  C   C27       1.0  0.57438  0.04261  0.91995  1.0000
  C   C28       1.0  0.07438  0.45739  0.08005  1.0000
  C   C29       1.0  0.33128  0.48643  0.52335  1.0000
  C   C30       1.0  0.83128  0.01357  0.47665  1.0000
  C   C31       1.0  0.66872  0.98643  0.97665  1.0000
  C   C32       1.0  0.16872  0.51357  0.02335  1.0000
  C   C33       1.0  0.12566  0.52061  0.47391  1.0000
  C   C34       1.0  0.62566  0.97940  0.52609  1.0000
  C   C35       1.0  0.87434  0.02061  0.02609  1.0000
  C   C36       1.0  0.37434  0.47940  0.97391  1.0000
  C   C37       1.0  0.01350  0.61019  0.48037  1.0000
  C   C38       1.0  0.51350  0.88981  0.51963  1.0000
  C   C39       1.0  0.98650  0.11019  0.01963  1.0000
  C   C40       1.0  0.48650  0.38981  0.98037  1.0000
  C   C41       1.0  0.10717  0.66544  0.53748  1.0000
  C   C42       1.0  0.60717  0.83456  0.46252  1.0000
  C   C43       1.0  0.89283  0.16544  0.96252  1.0000
  C   C44       1.0  0.39283  0.33456  0.03748  1.0000
  C   C45       1.0  0.31303  0.63225  0.58737  1.0000
  C   C46       1.0  0.81303  0.86775  0.41263  1.0000
  C   C47       1.0  0.68697  0.13225  0.91263  1.0000
  C   C48       1.0  0.18698  0.36775  0.08737  1.0000
  N   N1        1.0  0.93631  0.43323  0.69509  1.0000
  N   N2        1.0  0.43631  0.06677  0.30491  1.0000
  N   N3        1.0  0.06369  0.93323  0.80491  1.0000
  N   N4        1.0  0.56369  0.56677  0.19509  1.0000
  N   N5        1.0  0.70162  0.56687  0.69027  1.0000
  N   N6        1.0  0.20163  0.93313  0.30973  1.0000
  N   N7        1.0  0.29837  0.06687  0.80973  1.0000
  N   N8        1.0  0.79837  0.43313  0.19027  1.0000
  N   N9        1.0  0.63399  0.50949  0.63202  1.0000
  N   N10       1.0  0.13399  0.99051  0.36798  1.0000
  N   N11       1.0  0.36601  0.00949  0.86798  1.0000
  N   N12       1.0  0.86601  0.49051  0.13202  1.0000
  Cl  Cl1       1.0  0.79797  0.29734  0.42241  1.0000
  Cl  Cl2       1.0  0.29797  0.20266  0.57759  1.0000
  Cl  Cl3       1.0  0.20203  0.79734  0.07759  1.0000
  Cl  Cl4       1.0  0.70203  0.70266  0.92241  1.0000
  F   F1        1.0  0.74035  0.28835  0.79093  1.0000
  F   F2        1.0  0.24035  0.21165  0.20907  1.0000
  F   F3        1.0  0.25965  0.78835  0.70907  1.0000
  F   F4        1.0  0.75965  0.71165  0.29093  1.0000
