data_image0
_chemical_formula_structural       Cu4H48C56I4N16
_chemical_formula_sum              "Cu4 H48 C56 I4 N16"
_cell_length_a       10.0033
_cell_length_b       11.6245
_cell_length_c       13.8012
_cell_angle_alpha    95.6633
_cell_angle_beta     90.2268
_cell_angle_gamma    94.0699

_space_group_name_H-M_alt    "P 1"
_space_group_IT_number       1

loop_
  _space_group_symop_operation_xyz
  'x, y, z'

loop_
  _atom_site_type_symbol
  _atom_site_label
  _atom_site_symmetry_multiplicity
  _atom_site_fract_x
  _atom_site_fract_y
  _atom_site_fract_z
  _atom_site_occupancy
  Cu  Cu1       1.0  0.11952  0.53499  0.54091  1.0000
  Cu  Cu2       1.0  0.88048  0.46501  0.45909  1.0000
  Cu  Cu3       1.0  0.62323  0.53828  0.96597  1.0000
  Cu  Cu4       1.0  0.37676  0.46172  0.03403  1.0000
  H   H1        1.0  0.29128  0.70021  0.44017  1.0000
  H   H2        1.0  0.70872  0.29979  0.55984  1.0000
  H   H3        1.0  0.50053  0.70303  0.34158  1.0000
  H   H4        1.0  0.49947  0.29697  0.65842  1.0000
  H   H5        1.0  0.50903  0.33635  0.36957  1.0000
  H   H6        1.0  0.49097  0.66365  0.63043  1.0000
  H   H7        1.0  0.29836  0.34902  0.46461  1.0000
  H   H8        1.0  0.70164  0.65098  0.53539  1.0000
  H   H9        1.0  0.63450  0.55402  0.22118  1.0000
  H   H10       1.0  0.36550  0.44598  0.77882  1.0000
  H   H11       1.0  0.72916  0.58200  0.33177  1.0000
  H   H12       1.0  0.27083  0.41799  0.66823  1.0000
  H   H13       1.0  0.59165  0.32713  0.15608  1.0000
  H   H14       1.0  0.40835  0.67287  0.84392  1.0000
  H   H15       1.0  0.57528  0.12090  0.09966  1.0000
  H   H16       1.0  0.42473  0.87910  0.90034  1.0000
  H   H17       1.0  0.59711  0.93168  0.00118  1.0000
  H   H18       1.0  0.40289  0.06832  0.99882  1.0000
  H   H19       1.0  0.80990  0.83697  0.00079  1.0000
  H   H20       1.0  0.19011  0.16303  0.99921  1.0000
  H   H21       1.0  0.00177  0.92573  0.10762  1.0000
  H   H22       1.0  0.99824  0.07427  0.89238  1.0000
  H   H23       1.0  0.97641  0.10952  0.21059  1.0000
  H   H24       1.0  0.02359  0.89048  0.78941  1.0000
  H   H25       1.0  0.80380  0.35377  0.00811  1.0000
  H   H26       1.0  0.19620  0.64623  0.99189  1.0000
  H   H27       1.0  0.01630  0.34038  0.09919  1.0000
  H   H28       1.0  0.98370  0.65962  0.90081  1.0000
  H   H29       1.0  0.99879  0.70260  0.20263  1.0000
  H   H30       1.0  0.00120  0.29741  0.79737  1.0000
  H   H31       1.0  0.78461  0.69965  0.10868  1.0000
  H   H32       1.0  0.21539  0.30035  0.89132  1.0000
  H   H33       1.0  0.23518  0.58187  0.18085  1.0000
  H   H34       1.0  0.76482  0.41814  0.81915  1.0000
  H   H35       1.0  0.14354  0.55686  0.28849  1.0000
  H   H36       1.0  0.85646  0.44314  0.71151  1.0000
  H   H37       1.0  0.08918  0.33070  0.31418  1.0000
  H   H38       1.0  0.91082  0.66930  0.68583  1.0000
  H   H39       1.0  0.09641  0.15028  0.37574  1.0000
  H   H40       1.0  0.90359  0.84972  0.62426  1.0000
  H   H41       1.0  0.07569  0.94831  0.41926  1.0000
  H   H42       1.0  0.92431  0.05169  0.58074  1.0000
  H   H43       1.0  0.20879  0.79926  0.33307  1.0000
  H   H44       1.0  0.79122  0.20074  0.66693  1.0000
  H   H45       1.0  0.36933  0.85356  0.20354  1.0000
  H   H46       1.0  0.63068  0.14645  0.79646  1.0000
  H   H47       1.0  0.38864  0.05491  0.15859  1.0000
  H   H48       1.0  0.61136  0.94508  0.84141  1.0000
  C   C1        1.0  0.34335  0.62162  0.42233  1.0000
  C   C2        1.0  0.65665  0.37838  0.57767  1.0000
  C   C3        1.0  0.45975  0.62255  0.36807  1.0000
  C   C4        1.0  0.54025  0.37745  0.63194  1.0000
  C   C5        1.0  0.52367  0.51937  0.34832  1.0000
  C   C6        1.0  0.47633  0.48063  0.65168  1.0000
  C   C7        1.0  0.46493  0.41936  0.38321  1.0000
  C   C8        1.0  0.53507  0.58064  0.61679  1.0000
  C   C9        1.0  0.34732  0.42569  0.43632  1.0000
  C   C10       1.0  0.65268  0.57431  0.56368  1.0000
  C   C11       1.0  0.65244  0.52202  0.29240  1.0000
  C   C12       1.0  0.34756  0.47798  0.70760  1.0000
  C   C13       1.0  0.67313  0.32248  0.20748  1.0000
  C   C14       1.0  0.32688  0.67752  0.79252  1.0000
  C   C15       1.0  0.76206  0.23814  0.21949  1.0000
  C   C16       1.0  0.23794  0.76186  0.78051  1.0000
  C   C17       1.0  0.77453  0.12723  0.16177  1.0000
  C   C18       1.0  0.22547  0.87277  0.83822  1.0000
  C   C19       1.0  0.66796  0.07704  0.10176  1.0000
  C   C20       1.0  0.33204  0.92296  0.89824  1.0000
  C   C21       1.0  0.68089  0.97230  0.04564  1.0000
  C   C22       1.0  0.31911  0.02770  0.95436  1.0000
  C   C23       1.0  0.80072  0.91759  0.04691  1.0000
  C   C24       1.0  0.19928  0.08241  0.95309  1.0000
  C   C25       1.0  0.90726  0.96699  0.10631  1.0000
  C   C26       1.0  0.09275  0.03301  0.89368  1.0000
  C   C27       1.0  0.89397  0.07094  0.16390  1.0000
  C   C28       1.0  0.10603  0.92907  0.83610  1.0000
  C   C29       1.0  0.85130  0.42941  0.05166  1.0000
  C   C30       1.0  0.14870  0.57059  0.94834  1.0000
  C   C31       1.0  0.97026  0.42281  0.10259  1.0000
  C   C32       1.0  0.02973  0.57719  0.89741  1.0000
  C   C33       1.0  0.02761  0.52159  0.15712  1.0000
  C   C34       1.0  0.97238  0.47841  0.84288  1.0000
  C   C35       1.0  0.95995  0.62340  0.15963  1.0000
  C   C36       1.0  0.04004  0.37661  0.84038  1.0000
  C   C37       1.0  0.84104  0.62252  0.10731  1.0000
  C   C38       1.0  0.15896  0.37748  0.89269  1.0000
  C   C39       1.0  0.15836  0.52375  0.21197  1.0000
  C   C40       1.0  0.84164  0.47625  0.78803  1.0000
  C   C41       1.0  0.17029  0.32335  0.26241  1.0000
  C   C42       1.0  0.82971  0.67665  0.73759  1.0000
  C   C43       1.0  0.24909  0.23297  0.23211  1.0000
  C   C44       1.0  0.75091  0.76703  0.76789  1.0000
  C   C45       1.0  0.24403  0.11625  0.26320  1.0000
  C   C46       1.0  0.75597  0.88375  0.73680  1.0000
  C   C47       1.0  0.15684  0.08573  0.33780  1.0000
  C   C48       1.0  0.84317  0.91427  0.66220  1.0000
  C   C49       1.0  0.14511  0.97221  0.36264  1.0000
  C   C50       1.0  0.85489  0.02779  0.63736  1.0000
  C   C51       1.0  0.22082  0.88827  0.31424  1.0000
  C   C52       1.0  0.77919  0.11173  0.68576  1.0000
  C   C53       1.0  0.30985  0.91849  0.24173  1.0000
  C   C54       1.0  0.69015  0.08151  0.75827  1.0000
  C   C55       1.0  0.32137  0.03167  0.21629  1.0000
  C   C56       1.0  0.67863  0.96833  0.78371  1.0000
  I   I1        1.0  0.97657  0.67800  0.45026  1.0000
  I   I2        1.0  0.02343  0.32200  0.54974  1.0000
  I   I3        1.0  0.47443  0.67569  0.07721  1.0000
  I   I4        1.0  0.52557  0.32431  0.92279  1.0000
  N   N1        1.0  0.28649  0.52481  0.45634  1.0000
  N   N2        1.0  0.71351  0.47519  0.54367  1.0000
  N   N3        1.0  0.70989  0.41082  0.27572  1.0000
  N   N4        1.0  0.29011  0.58918  0.72428  1.0000
  N   N5        1.0  0.81569  0.38274  0.32946  1.0000
  N   N6        1.0  0.18431  0.61726  0.67053  1.0000
  N   N7        1.0  0.84721  0.27875  0.29497  1.0000
  N   N8        1.0  0.15279  0.72125  0.70503  1.0000
  N   N9        1.0  0.78689  0.52742  0.05286  1.0000
  N   N10       1.0  0.21311  0.47258  0.94714  1.0000
  N   N11       1.0  0.21252  0.41122  0.21035  1.0000
  N   N12       1.0  0.78747  0.58878  0.78965  1.0000
  N   N13       1.0  0.31255  0.37788  0.14894  1.0000
  N   N14       1.0  0.68745  0.62213  0.85107  1.0000
  N   N15       1.0  0.33504  0.27030  0.16277  1.0000
  N   N16       1.0  0.66496  0.72970  0.83723  1.0000
