data_image0
_chemical_formula_structural       Zn4H36C52S4N12O16
_chemical_formula_sum              "Zn4 H36 C52 S4 N12 O16"
_cell_length_a       7.92011
_cell_length_b       13.575
_cell_length_c       13.6988
_cell_angle_alpha    90
_cell_angle_beta     98.409
_cell_angle_gamma    90

_space_group_name_H-M_alt    "P 1"
_space_group_IT_number       1

loop_
  _space_group_symop_operation_xyz
  'x, y, z'

loop_
  _atom_site_type_symbol
  _atom_site_label
  _atom_site_symmetry_multiplicity
  _atom_site_fract_x
  _atom_site_fract_y
  _atom_site_fract_z
  _atom_site_occupancy
  Zn  Zn1       1.0  0.44223  0.57583  0.69037  1.0000
  Zn  Zn2       1.0  0.05776  0.07583  0.30962  1.0000
  Zn  Zn3       1.0  0.55776  0.42417  0.30962  1.0000
  Zn  Zn4       1.0  0.94225  0.92417  0.69038  1.0000
  H   H1        1.0  0.34270  0.57417  0.06626  1.0000
  H   H2        1.0  0.15730  0.07417  0.93374  1.0000
  H   H3        1.0  0.65730  0.42583  0.93375  1.0000
  H   H4        1.0  0.84270  0.92583  0.06625  1.0000
  H   H5        1.0  0.25583  0.68886  0.19601  1.0000
  H   H6        1.0  0.24417  0.18886  0.80399  1.0000
  H   H7        1.0  0.74417  0.31114  0.80399  1.0000
  H   H8        1.0  0.75583  0.81114  0.19600  1.0000
  H   H9        1.0  0.19832  0.92452  0.00307  1.0000
  H   H10       1.0  0.30168  0.42452  0.99693  1.0000
  H   H11       1.0  0.80168  0.07548  0.99693  1.0000
  H   H12       1.0  0.69833  0.57548  0.00307  1.0000
  H   H13       1.0  0.28054  0.81850  0.86226  1.0000
  H   H14       1.0  0.21946  0.31851  0.13773  1.0000
  H   H15       1.0  0.71946  0.18149  0.13774  1.0000
  H   H16       1.0  0.78055  0.68149  0.86226  1.0000
  H   H17       1.0  0.48585  0.79403  0.66252  1.0000
  H   H18       1.0  0.01414  0.29403  0.33748  1.0000
  H   H19       1.0  0.51415  0.20597  0.33748  1.0000
  H   H20       1.0  0.98586  0.70597  0.66252  1.0000
  H   H21       1.0  0.37888  0.91943  0.53418  1.0000
  H   H22       1.0  0.12112  0.41943  0.46582  1.0000
  H   H23       1.0  0.62113  0.08057  0.46582  1.0000
  H   H24       1.0  0.87888  0.58057  0.53419  1.0000
  H   H25       1.0  0.17889  0.68055  0.34408  1.0000
  H   H26       1.0  0.32110  0.18055  0.65591  1.0000
  H   H27       1.0  0.82111  0.31945  0.65591  1.0000
  H   H28       1.0  0.67890  0.81945  0.34409  1.0000
  H   H29       1.0  0.30156  0.56371  0.47802  1.0000
  H   H30       1.0  0.19843  0.06371  0.52197  1.0000
  H   H31       1.0  0.69843  0.43629  0.52197  1.0000
  H   H32       1.0  0.80157  0.93629  0.47803  1.0000
  H   H33       1.0  0.18654  0.84885  0.15694  1.0000
  H   H34       1.0  0.31346  0.34885  0.84306  1.0000
  H   H35       1.0  0.81346  0.15115  0.84306  1.0000
  H   H36       1.0  0.68655  0.65115  0.15694  1.0000
  C   C1        1.0  0.36083  0.62096  0.87418  1.0000
  C   C2        1.0  0.13917  0.12096  0.12582  1.0000
  C   C3        1.0  0.63917  0.37904  0.12582  1.0000
  C   C4        1.0  0.86084  0.87904  0.87418  1.0000
  C   C5        1.0  0.31209  0.68799  0.95391  1.0000
  C   C6        1.0  0.18792  0.18799  0.04609  1.0000
  C   C7        1.0  0.68792  0.31201  0.04609  1.0000
  C   C8        1.0  0.81209  0.81201  0.95390  1.0000
  C   C9        1.0  0.30753  0.65026  0.04856  1.0000
  C   C10       1.0  0.19247  0.15027  0.95144  1.0000
  C   C11       1.0  0.69247  0.34973  0.95144  1.0000
  C   C12       1.0  0.80753  0.84973  0.04855  1.0000
  C   C13       1.0  0.26275  0.71202  0.12091  1.0000
  C   C14       1.0  0.23725  0.21202  0.87909  1.0000
  C   C15       1.0  0.73725  0.28798  0.87909  1.0000
  C   C16       1.0  0.76275  0.78798  0.12091  1.0000
  C   C17       1.0  0.23197  0.84687  0.01018  1.0000
  C   C18       1.0  0.26803  0.34687  0.98982  1.0000
  C   C19       1.0  0.76804  0.15313  0.98983  1.0000
  C   C20       1.0  0.73197  0.65313  0.01017  1.0000
  C   C21       1.0  0.27541  0.78784  0.93513  1.0000
  C   C22       1.0  0.22459  0.28784  0.06487  1.0000
  C   C23       1.0  0.72459  0.21216  0.06487  1.0000
  C   C24       1.0  0.77541  0.71216  0.93513  1.0000
  C   C25       1.0  0.41999  0.77191  0.59033  1.0000
  C   C26       1.0  0.08000  0.27191  0.40967  1.0000
  C   C27       1.0  0.58001  0.22809  0.40967  1.0000
  C   C28       1.0  0.92000  0.72809  0.59033  1.0000
  C   C29       1.0  0.35973  0.84125  0.51909  1.0000
  C   C30       1.0  0.14027  0.34125  0.48091  1.0000
  C   C31       1.0  0.64027  0.15875  0.48091  1.0000
  C   C32       1.0  0.85973  0.65875  0.51909  1.0000
  C   C33       1.0  0.27037  0.80922  0.42903  1.0000
  C   C34       1.0  0.22963  0.30922  0.57097  1.0000
  C   C35       1.0  0.72963  0.19078  0.57097  1.0000
  C   C36       1.0  0.77037  0.69078  0.42903  1.0000
  C   C37       1.0  0.19115  0.88133  0.35176  1.0000
  C   C38       1.0  0.30884  0.38134  0.64824  1.0000
  C   C39       1.0  0.80885  0.11866  0.64824  1.0000
  C   C40       1.0  0.69115  0.61867  0.35176  1.0000
  C   C41       1.0  0.25018  0.70807  0.41263  1.0000
  C   C42       1.0  0.24981  0.20807  0.58737  1.0000
  C   C43       1.0  0.74982  0.29193  0.58737  1.0000
  C   C44       1.0  0.75019  0.79193  0.41263  1.0000
  C   C45       1.0  0.31600  0.64312  0.48671  1.0000
  C   C46       1.0  0.18399  0.14312  0.51329  1.0000
  C   C47       1.0  0.68399  0.35688  0.51329  1.0000
  C   C48       1.0  0.81601  0.85688  0.48671  1.0000
  C   C49       1.0  0.81804  0.51673  0.75415  1.0000
  C   C50       1.0  0.68195  0.01673  0.24586  1.0000
  C   C51       1.0  0.18194  0.48327  0.24586  1.0000
  C   C52       1.0  0.31805  0.98327  0.75415  1.0000
  S   S1        1.0  0.00867  0.48841  0.80242  1.0000
  S   S2        1.0  0.49131  0.98841  0.19760  1.0000
  S   S3        1.0  0.99131  0.51159  0.19759  1.0000
  S   S4        1.0  0.50869  0.01159  0.80242  1.0000
  N   N1        1.0  0.22507  0.80709  0.09971  1.0000
  N   N2        1.0  0.27494  0.30709  0.90029  1.0000
  N   N3        1.0  0.77494  0.19291  0.90030  1.0000
  N   N4        1.0  0.72507  0.69291  0.09970  1.0000
  N   N5        1.0  0.39671  0.67450  0.57473  1.0000
  N   N6        1.0  0.10328  0.17450  0.42526  1.0000
  N   N7        1.0  0.60328  0.32550  0.42526  1.0000
  N   N8        1.0  0.89672  0.82550  0.57474  1.0000
  N   N9        1.0  0.67760  0.53865  0.71754  1.0000
  N   N10       1.0  0.82239  0.03864  0.28246  1.0000
  N   N11       1.0  0.32238  0.46136  0.28246  1.0000
  N   N12       1.0  0.17762  0.96136  0.71754  1.0000
  O   O1        1.0  0.36143  0.66269  0.78951  1.0000
  O   O2        1.0  0.13856  0.16270  0.21048  1.0000
  O   O3        1.0  0.63856  0.33731  0.21049  1.0000
  O   O4        1.0  0.86144  0.83730  0.78951  1.0000
  O   O5        1.0  0.39866  0.53339  0.89463  1.0000
  O   O6        1.0  0.10133  0.03339  0.10536  1.0000
  O   O7        1.0  0.60134  0.46661  0.10537  1.0000
  O   O8        1.0  0.89866  0.96661  0.89463  1.0000
  O   O9        1.0  0.20163  0.97201  0.37893  1.0000
  O   O10       1.0  0.29836  0.47202  0.62107  1.0000
  O   O11       1.0  0.79837  0.02799  0.62107  1.0000
  O   O12       1.0  0.70163  0.52799  0.37893  1.0000
  O   O13       1.0  0.11979  0.84896  0.27037  1.0000
  O   O14       1.0  0.38021  0.34896  0.72962  1.0000
  O   O15       1.0  0.88021  0.15104  0.72963  1.0000
  O   O16       1.0  0.61980  0.65104  0.27038  1.0000
