data_image0
_chemical_formula_structural       Cd2H56C76N4O10
_chemical_formula_sum              "Cd2 H56 C76 N4 O10"
_cell_length_a       9.96826
_cell_length_b       10.2619
_cell_length_c       15.8366
_cell_angle_alpha    76.2038
_cell_angle_beta     74.0795
_cell_angle_gamma    75.244

_space_group_name_H-M_alt    "P 1"
_space_group_IT_number       1

loop_
  _space_group_symop_operation_xyz
  'x, y, z'

loop_
  _atom_site_type_symbol
  _atom_site_label
  _atom_site_symmetry_multiplicity
  _atom_site_fract_x
  _atom_site_fract_y
  _atom_site_fract_z
  _atom_site_occupancy
  Cd  Cd1       1.0  0.30878  0.19949  0.48055  1.0000
  Cd  Cd2       1.0  0.69122  0.80051  0.51945  1.0000
  H   H1        1.0  0.15423  0.01532  0.65807  1.0000
  H   H2        1.0  0.84577  0.98468  0.34193  1.0000
  H   H3        1.0  0.56257  0.14177  0.31074  1.0000
  H   H4        1.0  0.43743  0.85823  0.68926  1.0000
  H   H5        1.0  0.13971  0.95379  0.82014  1.0000
  H   H6        1.0  0.86029  0.04621  0.17986  1.0000
  H   H7        1.0  0.57533  0.34147  0.86762  1.0000
  H   H8        1.0  0.42467  0.65853  0.13238  1.0000
  H   H9        1.0  0.41709  0.28775  0.62233  1.0000
  H   H10       1.0  0.58292  0.71226  0.37767  1.0000
  H   H11       1.0  0.42647  0.57674  0.63640  1.0000
  H   H12       1.0  0.57352  0.42327  0.36360  1.0000
  H   H13       1.0  0.41641  0.23627  0.78403  1.0000
  H   H14       1.0  0.58359  0.76373  0.21597  1.0000
  H   H15       1.0  0.23063  0.85545  0.32507  1.0000
  H   H16       1.0  0.76937  0.14455  0.67493  1.0000
  H   H17       1.0  0.14591  0.35226  0.32759  1.0000
  H   H18       1.0  0.85409  0.64775  0.67241  1.0000
  H   H19       1.0  0.94331  0.60652  0.14130  1.0000
  H   H20       1.0  0.05669  0.39348  0.85870  1.0000
  H   H21       1.0  0.61574  0.41900  0.70445  1.0000
  H   H22       1.0  0.38425  0.58100  0.29555  1.0000
  H   H23       1.0  0.34835  0.11802  0.92804  1.0000
  H   H24       1.0  0.65166  0.88198  0.07196  1.0000
  H   H25       1.0  0.06607  0.77687  0.03419  1.0000
  H   H26       1.0  0.93393  0.22313  0.96581  1.0000
  H   H27       1.0  0.18258  0.41958  0.16425  1.0000
  H   H28       1.0  0.81742  0.58042  0.83575  1.0000
  H   H29       1.0  0.61771  0.19742  0.14386  1.0000
  H   H30       1.0  0.38229  0.80258  0.85614  1.0000
  H   H31       1.0  0.15382  0.91526  0.95635  1.0000
  H   H32       1.0  0.84618  0.08474  0.04365  1.0000
  H   H33       1.0  0.91572  0.75126  0.91327  1.0000
  H   H34       1.0  0.08428  0.24874  0.08673  1.0000
  H   H35       1.0  0.18665  0.71742  0.65238  1.0000
  H   H36       1.0  0.81334  0.28259  0.34762  1.0000
  H   H37       1.0  0.09335  0.58121  0.98302  1.0000
  H   H38       1.0  0.90665  0.41879  0.01698  1.0000
  H   H39       1.0  0.35291  0.08053  0.06011  1.0000
  H   H40       1.0  0.64710  0.91947  0.93989  1.0000
  H   H41       1.0  0.94871  0.56124  0.30316  1.0000
  H   H42       1.0  0.05129  0.43876  0.69684  1.0000
  H   H43       1.0  0.08036  0.68800  0.35495  1.0000
  H   H44       1.0  0.91964  0.31200  0.64506  1.0000
  H   H45       1.0  0.22854  0.44175  0.03100  1.0000
  H   H46       1.0  0.77146  0.55826  0.96900  1.0000
  H   H47       1.0  0.95923  0.82160  0.74787  1.0000
  H   H48       1.0  0.04077  0.17841  0.25213  1.0000
  H   H49       1.0  0.54743  0.31455  0.00724  1.0000
  H   H50       1.0  0.45257  0.68545  0.99276  1.0000
  H   H51       1.0  0.35845  0.02882  0.21906  1.0000
  H   H52       1.0  0.64155  0.97118  0.78094  1.0000
  H   H53       1.0  0.01906  0.18441  0.47897  1.0000
  H   H54       1.0  0.98094  0.81559  0.52103  1.0000
  H   H55       1.0  0.99213  0.34517  0.47822  1.0000
  H   H56       1.0  0.00787  0.65483  0.52179  1.0000
  C   C1        1.0  0.21071  0.06227  0.68891  1.0000
  C   C2        1.0  0.78928  0.93773  0.31110  1.0000
  C   C3        1.0  0.48137  0.20104  0.27478  1.0000
  C   C4        1.0  0.51863  0.79896  0.72522  1.0000
  C   C5        1.0  0.20367  0.02813  0.77998  1.0000
  C   C6        1.0  0.79633  0.97187  0.22002  1.0000
  C   C7        1.0  0.48965  0.41234  0.83981  1.0000
  C   C8        1.0  0.51035  0.58766  0.16019  1.0000
  C   C9        1.0  0.35774  0.21372  0.66869  1.0000
  C   C10       1.0  0.64226  0.78628  0.33131  1.0000
  C   C11       1.0  0.29037  0.64470  0.48832  1.0000
  C   C12       1.0  0.70964  0.35530  0.51167  1.0000
  C   C13       1.0  0.27339  0.59320  0.76320  1.0000
  C   C14       1.0  0.72661  0.40680  0.23679  1.0000
  C   C15       1.0  0.15383  0.80466  0.22387  1.0000
  C   C16       1.0  0.84617  0.19534  0.77613  1.0000
  C   C17       1.0  0.40649  0.54285  0.70859  1.0000
  C   C18       1.0  0.59350  0.45716  0.29141  1.0000
  C   C19       1.0  0.31620  0.75449  0.48891  1.0000
  C   C20       1.0  0.68380  0.24550  0.51109  1.0000
  C   C21       1.0  0.24975  0.51385  0.49911  1.0000
  C   C22       1.0  0.75025  0.48614  0.50088  1.0000
  C   C23       1.0  0.35671  0.18461  0.75897  1.0000
  C   C24       1.0  0.64329  0.81539  0.24103  1.0000
  C   C25       1.0  0.27901  0.08951  0.81785  1.0000
  C   C26       1.0  0.72099  0.91049  0.18215  1.0000
  C   C27       1.0  0.33958  0.88259  0.50094  1.0000
  C   C28       1.0  0.66042  0.11740  0.49906  1.0000
  C   C29       1.0  0.22919  0.87718  0.25439  1.0000
  C   C30       1.0  0.77081  0.12282  0.74561  1.0000
  C   C31       1.0  0.24895  0.31902  0.28430  1.0000
  C   C32       1.0  0.75105  0.68098  0.71570  1.0000
  C   C33       1.0  0.36029  0.45716  0.89689  1.0000
  C   C34       1.0  0.63971  0.54284  0.10311  1.0000
  C   C35       1.0  0.00353  0.66132  0.16392  1.0000
  C   C36       1.0  0.99647  0.33868  0.83608  1.0000
  C   C37       1.0  0.24878  0.55152  0.85857  1.0000
  C   C38       1.0  0.75121  0.44848  0.14142  1.0000
  C   C39       1.0  0.51291  0.45514  0.74681  1.0000
  C   C40       1.0  0.48709  0.54486  0.25318  1.0000
  C   C41       1.0  0.15001  0.83307  0.13082  1.0000
  C   C42       1.0  0.84999  0.16693  0.86918  1.0000
  C   C43       1.0  0.28327  0.06058  0.91166  1.0000
  C   C44       1.0  0.71673  0.93942  0.08834  1.0000
  C   C45       1.0  0.07303  0.75777  0.10357  1.0000
  C   C46       1.0  0.92697  0.24223  0.89643  1.0000
  C   C47       1.0  0.27037  0.35518  0.19239  1.0000
  C   C48       1.0  0.72963  0.64482  0.80761  1.0000
  C   C49       1.0  0.51115  0.23267  0.18215  1.0000
  C   C50       1.0  0.48885  0.76733  0.81785  1.0000
  C   C51       1.0  0.40447  0.31115  0.13787  1.0000
  C   C52       1.0  0.59553  0.68885  0.86213  1.0000
  C   C53       1.0  0.21758  0.96960  0.97639  1.0000
  C   C54       1.0  0.78243  0.03039  0.02361  1.0000
  C   C55       1.0  0.01534  0.70596  0.87152  1.0000
  C   C56       1.0  0.98465  0.29404  0.12848  1.0000
  C   C57       1.0  0.16592  0.68915  0.72491  1.0000
  C   C58       1.0  0.83408  0.31085  0.27509  1.0000
  C   C59       1.0  0.11629  0.61021  0.91063  1.0000
  C   C60       1.0  0.88371  0.38979  0.08937  1.0000
  C   C61       1.0  0.22286  0.93608  0.07035  1.0000
  C   C62       1.0  0.77715  0.06392  0.92965  1.0000
  C   C63       1.0  0.29690  0.00254  0.10451  1.0000
  C   C64       1.0  0.70311  0.99746  0.89549  1.0000
  C   C65       1.0  0.00644  0.63487  0.25514  1.0000
  C   C66       1.0  0.99355  0.36514  0.74486  1.0000
  C   C67       1.0  0.08052  0.70528  0.28424  1.0000
  C   C68       1.0  0.91948  0.29472  0.71576  1.0000
  C   C69       1.0  0.33744  0.41367  0.99306  1.0000
  C   C70       1.0  0.66256  0.58633  0.00694  1.0000
  C   C71       1.0  0.04005  0.74608  0.77766  1.0000
  C   C72       1.0  0.95995  0.25392  0.22234  1.0000
  C   C73       1.0  0.43594  0.34524  0.04090  1.0000
  C   C74       1.0  0.56406  0.65476  0.95910  1.0000
  C   C75       1.0  0.30001  0.97386  0.19533  1.0000
  C   C76       1.0  0.69999  0.02614  0.80467  1.0000
  N   N1        1.0  0.28688  0.15289  0.63336  1.0000
  N   N2        1.0  0.71312  0.84711  0.36664  1.0000
  N   N3        1.0  0.35199  0.24255  0.32564  1.0000
  N   N4        1.0  0.64801  0.75745  0.67436  1.0000
  O   O1        1.0  0.34696  0.41781  0.46912  1.0000
  O   O2        1.0  0.65305  0.58219  0.53088  1.0000
  O   O3        1.0  0.43278  0.87497  0.54333  1.0000
  O   O4        1.0  0.56722  0.12503  0.45666  1.0000
  O   O5        1.0  0.25866  0.99159  0.47076  1.0000
  O   O6        1.0  0.74134  0.00840  0.52924  1.0000
  O   O7        1.0  0.12203  0.50792  0.53894  1.0000
  O   O8        1.0  0.87798  0.49208  0.46106  1.0000
  O   O9        1.0  0.05767  0.25386  0.49144  1.0000
  O   O10       1.0  0.94232  0.74614  0.50856  1.0000
