data_image0
_chemical_formula_structural       Cd2H56C76N4O10
_chemical_formula_sum              "Cd2 H56 C76 N4 O10"
_cell_length_a       10.2091
_cell_length_b       10.0681
_cell_length_c       15.688
_cell_angle_alpha    74.4023
_cell_angle_beta     75.788
_cell_angle_gamma    75.3991

_space_group_name_H-M_alt    "P 1"
_space_group_IT_number       1

loop_
  _space_group_symop_operation_xyz
  'x, y, z'

loop_
  _atom_site_type_symbol
  _atom_site_label
  _atom_site_symmetry_multiplicity
  _atom_site_fract_x
  _atom_site_fract_y
  _atom_site_fract_z
  _atom_site_occupancy
  Cd  Cd1       1.0  0.20061  0.30493  0.47230  1.0000
  Cd  Cd2       1.0  0.79939  0.69507  0.52770  1.0000
  H   H1        1.0  0.18847  0.01416  0.47410  1.0000
  H   H2        1.0  0.81153  0.98584  0.52590  1.0000
  H   H3        1.0  0.35133  0.99277  0.46706  1.0000
  H   H4        1.0  0.64866  0.00723  0.53294  1.0000
  H   H5        1.0  0.13100  0.56466  0.31097  1.0000
  H   H6        1.0  0.86900  0.43534  0.68903  1.0000
  H   H7        1.0  0.35139  0.16166  0.30538  1.0000
  H   H8        1.0  0.64862  0.83834  0.69461  1.0000
  H   H9        1.0  0.39830  0.59684  0.69315  1.0000
  H   H10       1.0  0.60170  0.40316  0.30685  1.0000
  H   H11       1.0  0.54416  0.39562  0.63167  1.0000
  H   H12       1.0  0.45584  0.60437  0.36833  1.0000
  H   H13       1.0  0.43539  0.22380  0.14076  1.0000
  H   H14       1.0  0.56461  0.77620  0.85923  1.0000
  H   H15       1.0  0.36731  0.59562  0.85381  1.0000
  H   H16       1.0  0.63269  0.40438  0.14619  1.0000
  H   H17       1.0  0.28101  0.41157  0.61582  1.0000
  H   H18       1.0  0.71899  0.58842  0.38418  1.0000
  H   H19       1.0  0.01453  0.14248  0.65356  1.0000
  H   H20       1.0  0.98547  0.85752  0.34644  1.0000
  H   H21       1.0  0.95300  0.12775  0.81760  1.0000
  H   H22       1.0  0.04700  0.87225  0.18240  1.0000
  H   H23       1.0  0.20111  0.64468  0.14450  1.0000
  H   H24       1.0  0.79889  0.35533  0.85550  1.0000
  H   H25       1.0  0.59024  0.12610  0.98697  1.0000
  H   H26       1.0  0.40976  0.87390  0.01303  1.0000
  H   H27       1.0  0.30674  0.56241  0.99472  1.0000
  H   H28       1.0  0.69326  0.43759  0.00528  1.0000
  H   H29       1.0  0.67911  0.15297  0.65700  1.0000
  H   H30       1.0  0.32089  0.84703  0.34300  1.0000
  H   H31       1.0  0.53252  0.30066  0.02208  1.0000
  H   H32       1.0  0.46748  0.69934  0.97792  1.0000
  H   H33       1.0  0.22677  0.41362  0.77895  1.0000
  H   H34       1.0  0.77323  0.58638  0.22105  1.0000
  H   H35       1.0  0.55695  0.96503  0.31546  1.0000
  H   H36       1.0  0.44304  0.03497  0.68454  1.0000
  H   H37       1.0  0.86576  0.24072  0.32532  1.0000
  H   H38       1.0  0.13424  0.75928  0.67468  1.0000
  H   H39       1.0  0.92050  0.13712  0.95956  1.0000
  H   H40       1.0  0.07950  0.86288  0.04044  1.0000
  H   H41       1.0  0.10845  0.34883  0.92271  1.0000
  H   H42       1.0  0.89155  0.65117  0.07729  1.0000
  H   H43       1.0  0.77600  0.05936  0.04194  1.0000
  H   H44       1.0  0.22400  0.94065  0.95806  1.0000
  H   H45       1.0  0.73541  0.92652  0.92492  1.0000
  H   H46       1.0  0.26459  0.07347  0.07508  1.0000
  H   H47       1.0  0.60014  0.94782  0.15406  1.0000
  H   H48       1.0  0.39986  0.05218  0.84593  1.0000
  H   H49       1.0  0.78676  0.94113  0.75902  1.0000
  H   H50       1.0  0.21324  0.05887  0.24098  1.0000
  H   H51       1.0  0.68865  0.09884  0.36118  1.0000
  H   H52       1.0  0.31135  0.90116  0.63882  1.0000
  H   H53       1.0  0.09257  0.34091  0.05513  1.0000
  H   H54       1.0  0.90743  0.65909  0.94487  1.0000
  H   H55       1.0  0.04355  0.35757  0.21364  1.0000
  H   H56       1.0  0.95645  0.64243  0.78636  1.0000
  C   C1        1.0  0.19610  0.49250  0.26977  1.0000
  C   C2        1.0  0.80390  0.50750  0.73022  1.0000
  C   C3        1.0  0.57762  0.26543  0.76268  1.0000
  C   C4        1.0  0.42238  0.73457  0.23732  1.0000
  C   C5        1.0  0.32026  0.26779  0.26676  1.0000
  C   C6        1.0  0.67974  0.73222  0.73324  1.0000
  C   C7        1.0  0.44161  0.50218  0.73835  1.0000
  C   C8        1.0  0.55839  0.49782  0.26165  1.0000
  C   C9        1.0  0.55539  0.26130  0.85757  1.0000
  C   C10       1.0  0.44460  0.73870  0.14243  1.0000
  C   C11       1.0  0.52127  0.38903  0.70406  1.0000
  C   C12       1.0  0.47873  0.61097  0.29594  1.0000
  C   C13       1.0  0.36581  0.30427  0.17382  1.0000
  C   C14       1.0  0.63419  0.69573  0.82618  1.0000
  C   C15       1.0  0.42269  0.50002  0.83072  1.0000
  C   C16       1.0  0.57731  0.49998  0.16927  1.0000
  C   C17       1.0  0.20807  0.35105  0.66298  1.0000
  C   C18       1.0  0.79193  0.64895  0.33702  1.0000
  C   C19       1.0  0.06074  0.19976  0.68440  1.0000
  C   C20       1.0  0.93925  0.80024  0.31560  1.0000
  C   C21       1.0  0.08509  0.27098  0.81412  1.0000
  C   C22       1.0  0.91491  0.72902  0.18588  1.0000
  C   C23       1.0  0.75040  0.31917  0.48890  1.0000
  C   C24       1.0  0.24960  0.68083  0.51110  1.0000
  C   C25       1.0  0.83567  0.14952  0.13462  1.0000
  C   C26       1.0  0.16434  0.85048  0.86538  1.0000
  C   C27       1.0  0.64216  0.29186  0.48548  1.0000
  C   C28       1.0  0.35784  0.70815  0.51452  1.0000
  C   C29       1.0  0.80880  0.15977  0.22744  1.0000
  C   C30       1.0  0.19120  0.84023  0.77256  1.0000
  C   C31       1.0  0.02622  0.19288  0.77653  1.0000
  C   C32       1.0  0.97378  0.80712  0.22347  1.0000
  C   C33       1.0  0.23593  0.53589  0.17723  1.0000
  C   C34       1.0  0.76407  0.46411  0.82277  1.0000
  C   C35       1.0  0.48277  0.38526  0.89016  1.0000
  C   C36       1.0  0.51723  0.61474  0.10984  1.0000
  C   C37       1.0  0.61205  0.13498  0.91440  1.0000
  C   C38       1.0  0.38795  0.86502  0.08560  1.0000
  C   C39       1.0  0.38961  0.50152  0.03125  1.0000
  C   C40       1.0  0.61039  0.49848  0.96875  1.0000
  C   C41       1.0  0.94087  0.21658  0.07081  1.0000
  C   C42       1.0  0.05914  0.78341  0.92919  1.0000
  C   C43       1.0  0.66146  0.14758  0.72915  1.0000
  C   C44       1.0  0.33854  0.85242  0.27085  1.0000
  C   C45       1.0  0.51121  0.25183  0.49353  1.0000
  C   C46       1.0  0.48879  0.74817  0.50647  1.0000
  C   C47       1.0  0.50090  0.40266  0.97828  1.0000
  C   C48       1.0  0.49910  0.59734  0.02172  1.0000
  C   C49       1.0  0.87886  0.34272  0.50153  1.0000
  C   C50       1.0  0.12114  0.65728  0.49847  1.0000
  C   C51       1.0  0.32750  0.44277  0.12696  1.0000
  C   C52       1.0  0.67250  0.55724  0.87303  1.0000
  C   C53       1.0  0.17751  0.35145  0.75404  1.0000
  C   C54       1.0  0.82249  0.64855  0.24596  1.0000
  C   C55       1.0  0.63214  0.01851  0.26496  1.0000
  C   C56       1.0  0.36786  0.98149  0.73503  1.0000
  C   C57       1.0  0.88570  0.23482  0.25470  1.0000
  C   C58       1.0  0.11430  0.76517  0.74530  1.0000
  C   C59       1.0  0.97158  0.20689  0.97658  1.0000
  C   C60       1.0  0.02842  0.79311  0.02342  1.0000
  C   C61       1.0  0.05616  0.27715  0.90853  1.0000
  C   C62       1.0  0.94384  0.72285  0.09147  1.0000
  C   C63       1.0  0.75679  0.07208  0.11088  1.0000
  C   C64       1.0  0.24320  0.92793  0.88911  1.0000
  C   C65       1.0  0.69273  0.02208  0.87976  1.0000
  C   C66       1.0  0.30727  0.97792  0.12024  1.0000
  C   C67       1.0  0.65771  0.00849  0.17408  1.0000
  C   C68       1.0  0.34229  0.99151  0.82592  1.0000
  C   C69       1.0  0.72038  0.02955  0.78590  1.0000
  C   C70       1.0  0.27963  0.97045  0.21410  1.0000
  C   C71       1.0  0.70651  0.09273  0.29075  1.0000
  C   C72       1.0  0.29349  0.90727  0.70925  1.0000
  C   C73       1.0  0.01200  0.29013  0.10189  1.0000
  C   C74       1.0  0.98800  0.70986  0.89811  1.0000
  C   C75       1.0  0.98501  0.29946  0.19253  1.0000
  C   C76       1.0  0.01499  0.70054  0.80748  1.0000
  N   N1        1.0  0.15011  0.27734  0.62782  1.0000
  N   N2        1.0  0.84989  0.72265  0.37218  1.0000
  N   N3        1.0  0.23947  0.36044  0.31465  1.0000
  N   N4        1.0  0.76053  0.63956  0.68535  1.0000
  O   O1        1.0  0.41503  0.34925  0.46501  1.0000
  O   O2        1.0  0.58497  0.65076  0.53499  1.0000
  O   O3        1.0  0.98752  0.26044  0.47086  1.0000
  O   O4        1.0  0.01248  0.73956  0.52914  1.0000
  O   O5        1.0  0.87230  0.43608  0.54309  1.0000
  O   O6        1.0  0.12770  0.56393  0.45691  1.0000
  O   O7        1.0  0.50473  0.12457  0.52970  1.0000
  O   O8        1.0  0.49527  0.87543  0.47030  1.0000
  O   O9        1.0  0.26364  0.06455  0.45838  1.0000
  O   O10       1.0  0.73636  0.93545  0.54161  1.0000
