data_image0
_chemical_formula_structural       Ag2P2H52C58N8O6
_chemical_formula_sum              "Ag2 P2 H52 C58 N8 O6"
_cell_length_a       9.35685
_cell_length_b       9.42058
_cell_length_c       16.6099
_cell_angle_alpha    74.941
_cell_angle_beta     74.836
_cell_angle_gamma    68.5499

_space_group_name_H-M_alt    "P 1"
_space_group_IT_number       1

loop_
  _space_group_symop_operation_xyz
  'x, y, z'

loop_
  _atom_site_type_symbol
  _atom_site_label
  _atom_site_symmetry_multiplicity
  _atom_site_fract_x
  _atom_site_fract_y
  _atom_site_fract_z
  _atom_site_occupancy
  Ag  Ag1       1.0  0.17485  0.80035  0.80256  1.0000
  Ag  Ag2       1.0  0.79972  0.17543  0.30279  1.0000
  P   P1        1.0  0.32698  0.87961  0.67377  1.0000
  P   P2        1.0  0.87887  0.32691  0.17400  1.0000
  H   H1        1.0  0.50200  0.31464  0.77486  1.0000
  H   H2        1.0  0.31425  0.50477  0.27441  1.0000
  H   H3        1.0  0.91980  0.07569  0.73090  1.0000
  H   H4        1.0  0.07616  0.92064  0.23066  1.0000
  H   H5        1.0  0.45908  0.09164  0.87547  1.0000
  H   H6        1.0  0.08967  0.46389  0.37509  1.0000
  H   H7        1.0  0.58588  0.84142  0.96642  1.0000
  H   H8        1.0  0.83796  0.59116  0.46620  1.0000
  H   H9        1.0  0.87863  0.72073  0.93399  1.0000
  H   H10       1.0  0.71762  0.88189  0.43379  1.0000
  H   H11       1.0  0.81444  0.32103  0.70226  1.0000
  H   H12       1.0  0.32340  0.81412  0.20129  1.0000
  H   H13       1.0  0.63522  0.45875  0.68139  1.0000
  H   H14       1.0  0.46090  0.63552  0.18040  1.0000
  H   H15       1.0  0.54780  0.25009  0.46080  1.0000
  H   H16       1.0  0.25137  0.54841  0.96019  1.0000
  H   H17       1.0  0.49516  0.30391  0.60660  1.0000
  H   H18       1.0  0.30619  0.49648  0.10571  1.0000
  H   H19       1.0  0.98036  0.27015  0.56688  1.0000
  H   H20       1.0  0.26876  0.97931  0.06679  1.0000
  H   H21       1.0  0.01569  0.20791  0.42486  1.0000
  H   H22       1.0  0.20554  0.01385  0.92500  1.0000
  H   H23       1.0  0.51453  0.66501  0.79514  1.0000
  H   H24       1.0  0.66483  0.51392  0.29611  1.0000
  H   H25       1.0  0.79715  0.59108  0.80368  1.0000
  H   H26       1.0  0.59159  0.79441  0.30465  1.0000
  H   H27       1.0  0.97041  0.71676  0.69290  1.0000
  H   H28       1.0  0.71787  0.96594  0.19334  1.0000
  H   H29       1.0  0.86498  0.91214  0.57058  1.0000
  H   H30       1.0  0.91299  0.86078  0.07037  1.0000
  H   H31       1.0  0.58719  0.98421  0.56220  1.0000
  H   H32       1.0  0.98420  0.58500  0.06184  1.0000
  H   H33       1.0  0.34293  0.09690  0.50510  1.0000
  H   H34       1.0  0.09765  0.34296  0.00518  1.0000
  H   H35       1.0  0.25942  0.38359  0.46852  1.0000
  H   H36       1.0  0.38636  0.25933  0.96819  1.0000
  H   H37       1.0  0.12233  0.54282  0.58063  1.0000
  H   H38       1.0  0.54678  0.12128  0.07986  1.0000
  H   H39       1.0  0.06813  0.41217  0.73188  1.0000
  H   H40       1.0  0.41517  0.06699  0.23120  1.0000
  H   H41       1.0  0.15909  0.12641  0.76965  1.0000
  H   H42       1.0  0.12725  0.15830  0.26942  1.0000
  H   H43       1.0  0.57692  0.67247  0.56305  1.0000
  H   H44       1.0  0.67376  0.57583  0.06207  1.0000
  H   H45       1.0  0.57200  0.58083  0.43733  1.0000
  H   H46       1.0  0.58374  0.57103  0.93569  1.0000
  H   H47       1.0  0.32699  0.66846  0.38018  1.0000
  H   H48       1.0  0.67082  0.32696  0.87908  1.0000
  H   H49       1.0  0.08484  0.84884  0.45058  1.0000
  H   H50       1.0  0.84818  0.08551  0.95093  1.0000
  H   H51       1.0  0.08881  0.93890  0.57768  1.0000
  H   H52       1.0  0.93614  0.08922  0.07890  1.0000
  C   C1        1.0  0.84092  0.02973  0.78302  1.0000
  C   C2        1.0  0.02931  0.84269  0.28274  1.0000
  C   C3        1.0  0.67885  0.10873  0.79724  1.0000
  C   C4        1.0  0.10812  0.68160  0.29688  1.0000
  C   C5        1.0  0.58542  0.03618  0.86425  1.0000
  C   C6        1.0  0.03452  0.58947  0.36399  1.0000
  C   C7        1.0  0.65633  0.89783  0.91407  1.0000
  C   C8        1.0  0.89525  0.66061  0.41384  1.0000
  C   C9        1.0  0.81864  0.83033  0.89710  1.0000
  C   C10       1.0  0.82793  0.82182  0.39687  1.0000
  C   C11       1.0  0.70318  0.33471  0.68532  1.0000
  C   C12       1.0  0.33617  0.70372  0.18454  1.0000
  C   C13       1.0  0.64108  0.25357  0.48717  1.0000
  C   C14       1.0  0.25427  0.64131  0.98667  1.0000
  C   C15       1.0  0.61198  0.28535  0.56806  1.0000
  C   C16       1.0  0.28658  0.61263  0.06741  1.0000
  C   C17       1.0  0.73375  0.29341  0.59879  1.0000
  C   C18       1.0  0.29404  0.73394  0.09820  1.0000
  C   C19       1.0  0.88094  0.26578  0.54624  1.0000
  C   C20       1.0  0.26504  0.88030  0.04599  1.0000
  C   C21       1.0  0.90103  0.23186  0.46627  1.0000
  C   C22       1.0  0.23058  0.89994  0.96619  1.0000
  C   C23       1.0  0.53292  0.82948  0.67840  1.0000
  C   C24       1.0  0.82932  0.53152  0.17868  1.0000
  C   C25       1.0  0.59288  0.71811  0.74618  1.0000
  C   C26       1.0  0.71823  0.59137  0.24687  1.0000
  C   C27       1.0  0.75051  0.67648  0.75067  1.0000
  C   C28       1.0  0.67707  0.74783  0.25143  1.0000
  C   C29       1.0  0.84849  0.74672  0.68790  1.0000
  C   C30       1.0  0.74750  0.84488  0.18831  1.0000
  C   C31       1.0  0.78946  0.85694  0.61999  1.0000
  C   C32       1.0  0.85763  0.78592  0.12003  1.0000
  C   C33       1.0  0.63264  0.89791  0.61513  1.0000
  C   C34       1.0  0.89813  0.63024  0.11513  1.0000
  C   C35       1.0  0.26082  0.09116  0.64051  1.0000
  C   C36       1.0  0.09193  0.26037  0.14046  1.0000
  C   C37       1.0  0.28706  0.16516  0.55541  1.0000
  C   C38       1.0  0.16645  0.28682  0.05532  1.0000
  C   C39       1.0  0.23830  0.32701  0.53458  1.0000
  C   C40       1.0  0.32945  0.23788  0.03427  1.0000
  C   C41       1.0  0.16065  0.41666  0.59768  1.0000
  C   C42       1.0  0.41971  0.15971  0.09716  1.0000
  C   C43       1.0  0.13081  0.34398  0.68208  1.0000
  C   C44       1.0  0.34646  0.12979  0.18160  1.0000
  C   C45       1.0  0.18150  0.18221  0.70337  1.0000
  C   C46       1.0  0.18348  0.18072  0.20312  1.0000
  C   C47       1.0  0.33305  0.81128  0.57918  1.0000
  C   C48       1.0  0.81058  0.33280  0.07934  1.0000
  C   C49       1.0  0.46844  0.71004  0.53919  1.0000
  C   C50       1.0  0.71087  0.46771  0.03855  1.0000
  C   C51       1.0  0.46564  0.65914  0.46798  1.0000
  C   C52       1.0  0.66085  0.46499  0.96694  1.0000
  C   C53       1.0  0.32840  0.70869  0.43579  1.0000
  C   C54       1.0  0.71009  0.32833  0.93504  1.0000
  C   C55       1.0  0.19250  0.80956  0.47553  1.0000
  C   C56       1.0  0.80930  0.19282  0.97558  1.0000
  C   C57       1.0  0.19462  0.85954  0.54700  1.0000
  C   C58       1.0  0.85814  0.19484  0.04754  1.0000
  N   N1        1.0  0.90772  0.89602  0.83219  1.0000
  N   N2        1.0  0.89475  0.90976  0.33201  1.0000
  N   N3        1.0  0.61306  0.24998  0.75059  1.0000
  N   N4        1.0  0.25023  0.61538  0.25016  1.0000
  N   N5        1.0  0.78286  0.22630  0.43641  1.0000
  N   N6        1.0  0.22585  0.78221  0.93623  1.0000
  N   N7        1.0  0.21959  0.43710  0.83918  1.0000
  N   N8        1.0  0.43353  0.22145  0.33931  1.0000
  O   O1        1.0  0.34315  0.47784  0.81150  1.0000
  O   O2        1.0  0.47494  0.34396  0.31251  1.0000
  O   O3        1.0  0.08870  0.54105  0.85387  1.0000
  O   O4        1.0  0.53804  0.09110  0.35318  1.0000
  O   O5        1.0  0.22958  0.29654  0.85175  1.0000
  O   O6        1.0  0.29183  0.23188  0.35191  1.0000
