data_image0
_chemical_formula_structural       Zn4H32C56Cl8O16
_chemical_formula_sum              "Zn4 H32 C56 Cl8 O16"
_cell_length_a       7.14055
_cell_length_b       10.3471
_cell_length_c       19.091
_cell_angle_alpha    90
_cell_angle_beta     95.7027
_cell_angle_gamma    90

_space_group_name_H-M_alt    "P 1"
_space_group_IT_number       1

loop_
  _space_group_symop_operation_xyz
  'x, y, z'

loop_
  _atom_site_type_symbol
  _atom_site_label
  _atom_site_symmetry_multiplicity
  _atom_site_fract_x
  _atom_site_fract_y
  _atom_site_fract_z
  _atom_site_occupancy
  Zn  Zn1       1.0  0.75007  0.96162  0.51278  1.0000
  Zn  Zn2       1.0  0.24992  0.46163  0.98723  1.0000
  Zn  Zn3       1.0  0.24993  0.03839  0.48723  1.0000
  Zn  Zn4       1.0  0.75007  0.53839  0.01277  1.0000
  H   H1        1.0  0.91506  0.21330  0.21185  1.0000
  H   H2        1.0  0.08495  0.71330  0.28815  1.0000
  H   H3        1.0  0.08493  0.78667  0.78815  1.0000
  H   H4        1.0  0.91506  0.28667  0.71185  1.0000
  H   H5        1.0  0.64569  0.58902  0.59872  1.0000
  H   H6        1.0  0.35431  0.08902  0.90128  1.0000
  H   H7        1.0  0.35435  0.41099  0.40129  1.0000
  H   H8        1.0  0.64565  0.91099  0.09871  1.0000
  H   H9        1.0  0.65914  0.34831  0.15409  1.0000
  H   H10       1.0  0.34088  0.84830  0.34592  1.0000
  H   H11       1.0  0.34085  0.65167  0.84590  1.0000
  H   H12       1.0  0.65913  0.15167  0.65409  1.0000
  H   H13       1.0  0.94734  0.68954  0.64618  1.0000
  H   H14       1.0  0.05267  0.18954  0.85382  1.0000
  H   H15       1.0  0.05270  0.31047  0.35382  1.0000
  H   H16       1.0  0.94731  0.81047  0.14617  1.0000
  H   H17       1.0  0.34444  0.35338  0.20226  1.0000
  H   H18       1.0  0.65559  0.85336  0.29775  1.0000
  H   H19       1.0  0.65556  0.64660  0.79773  1.0000
  H   H20       1.0  0.34442  0.14662  0.70226  1.0000
  H   H21       1.0  0.24955  0.56882  0.64324  1.0000
  H   H22       1.0  0.75045  0.06882  0.85676  1.0000
  H   H23       1.0  0.75049  0.43119  0.35676  1.0000
  H   H24       1.0  0.24952  0.93118  0.14323  1.0000
  H   H25       1.0  0.29937  0.22584  0.31003  1.0000
  H   H26       1.0  0.70064  0.72582  0.18998  1.0000
  H   H27       1.0  0.70062  0.77416  0.68997  1.0000
  H   H28       1.0  0.29936  0.27418  0.81002  1.0000
  H   H29       1.0  0.24480  0.34906  0.59037  1.0000
  H   H30       1.0  0.75520  0.84907  0.90963  1.0000
  H   H31       1.0  0.75523  0.65094  0.40964  1.0000
  H   H32       1.0  0.24478  0.15093  0.09036  1.0000
  C   C1        1.0  0.75179  0.14398  0.29272  1.0000
  C   C2        1.0  0.24822  0.64397  0.20728  1.0000
  C   C3        1.0  0.24820  0.85602  0.70728  1.0000
  C   C4        1.0  0.75179  0.35602  0.79272  1.0000
  C   C5        1.0  0.77598  0.41180  0.56967  1.0000
  C   C6        1.0  0.22401  0.91180  0.93032  1.0000
  C   C7        1.0  0.22404  0.58821  0.43034  1.0000
  C   C8        1.0  0.77597  0.08821  0.06967  1.0000
  C   C9        1.0  0.77933  0.21758  0.23322  1.0000
  C   C10       1.0  0.22069  0.71758  0.26679  1.0000
  C   C11       1.0  0.22066  0.78240  0.76678  1.0000
  C   C12       1.0  0.77932  0.28241  0.73322  1.0000
  C   C13       1.0  0.77716  0.53587  0.59837  1.0000
  C   C14       1.0  0.22284  0.03587  0.90163  1.0000
  C   C15       1.0  0.22287  0.46413  0.40164  1.0000
  C   C16       1.0  0.77713  0.96413  0.09836  1.0000
  C   C17       1.0  0.63456  0.29378  0.20108  1.0000
  C   C18       1.0  0.36546  0.79377  0.29893  1.0000
  C   C19       1.0  0.36543  0.70620  0.79892  1.0000
  C   C20       1.0  0.63455  0.20621  0.70108  1.0000
  C   C21       1.0  0.94720  0.59187  0.62495  1.0000
  C   C22       1.0  0.05280  0.09189  0.87505  1.0000
  C   C23       1.0  0.05283  0.40814  0.37505  1.0000
  C   C24       1.0  0.94717  0.90812  0.12495  1.0000
  C   C25       1.0  0.45966  0.29624  0.22799  1.0000
  C   C26       1.0  0.54036  0.79622  0.27202  1.0000
  C   C27       1.0  0.54033  0.70374  0.77200  1.0000
  C   C28       1.0  0.45965  0.20376  0.72799  1.0000
  C   C29       1.0  0.11640  0.52512  0.62269  1.0000
  C   C30       1.0  0.88359  0.02513  0.87731  1.0000
  C   C31       1.0  0.88363  0.47489  0.37731  1.0000
  C   C32       1.0  0.11638  0.97488  0.12269  1.0000
  C   C33       1.0  0.43402  0.22511  0.28795  1.0000
  C   C34       1.0  0.56599  0.72510  0.21206  1.0000
  C   C35       1.0  0.56596  0.77488  0.71205  1.0000
  C   C36       1.0  0.43402  0.27489  0.78795  1.0000
  C   C37       1.0  0.11426  0.40214  0.59320  1.0000
  C   C38       1.0  0.88573  0.90214  0.90680  1.0000
  C   C39       1.0  0.88576  0.59788  0.40680  1.0000
  C   C40       1.0  0.11425  0.09787  0.09319  1.0000
  C   C41       1.0  0.57845  0.14883  0.32251  1.0000
  C   C42       1.0  0.42156  0.64882  0.17749  1.0000
  C   C43       1.0  0.42154  0.85116  0.67749  1.0000
  C   C44       1.0  0.57845  0.35117  0.82251  1.0000
  C   C45       1.0  0.94480  0.34303  0.56688  1.0000
  C   C46       1.0  0.05520  0.84304  0.93312  1.0000
  C   C47       1.0  0.05522  0.65697  0.43312  1.0000
  C   C48       1.0  0.94478  0.15697  0.06688  1.0000
  C   C49       1.0  0.53740  0.08317  0.38904  1.0000
  C   C50       1.0  0.46261  0.58317  0.11097  1.0000
  C   C51       1.0  0.46258  0.91683  0.61097  1.0000
  C   C52       1.0  0.53741  0.41684  0.88903  1.0000
  C   C53       1.0  0.95487  0.20923  0.53838  1.0000
  C   C54       1.0  0.04513  0.70923  0.96162  1.0000
  C   C55       1.0  0.04514  0.79078  0.46163  1.0000
  C   C56       1.0  0.95485  0.29078  0.03838  1.0000
  Cl  Cl1       1.0  0.94142  0.05026  0.32608  1.0000
  Cl  Cl2       1.0  0.05859  0.55027  0.17392  1.0000
  Cl  Cl3       1.0  0.05858  0.94973  0.67393  1.0000
  Cl  Cl4       1.0  0.94142  0.44973  0.82608  1.0000
  Cl  Cl5       1.0  0.56404  0.34758  0.53398  1.0000
  Cl  Cl6       1.0  0.43596  0.84758  0.96601  1.0000
  Cl  Cl7       1.0  0.43597  0.65243  0.46603  1.0000
  Cl  Cl8       1.0  0.56403  0.15243  0.03397  1.0000
  O   O1        1.0  0.64877  0.99548  0.41519  1.0000
  O   O2        1.0  0.35123  0.49548  0.08481  1.0000
  O   O3        1.0  0.35121  0.00453  0.58482  1.0000
  O   O4        1.0  0.64877  0.50453  0.91518  1.0000
  O   O5        1.0  0.83152  0.12766  0.55416  1.0000
  O   O6        1.0  0.16848  0.62766  0.94584  1.0000
  O   O7        1.0  0.16849  0.87235  0.44585  1.0000
  O   O8        1.0  0.83151  0.37235  0.05416  1.0000
  O   O9        1.0  0.38925  0.12036  0.41561  1.0000
  O   O10       1.0  0.61075  0.62036  0.08439  1.0000
  O   O11       1.0  0.61074  0.87965  0.58439  1.0000
  O   O12       1.0  0.38924  0.37965  0.91561  1.0000
  O   O13       1.0  0.08997  0.18657  0.50161  1.0000
  O   O14       1.0  0.91002  0.68657  0.99838  1.0000
  O   O15       1.0  0.91003  0.81344  0.49839  1.0000
  O   O16       1.0  0.08997  0.31345  0.00161  1.0000
