data_image0
_chemical_formula_structural       Hg4H16C24N4Cl4O12
_chemical_formula_sum              "Hg4 H16 C24 N4 Cl4 O12"
_cell_length_a       8.03799
_cell_length_b       9.91689
_cell_length_c       10.4458
_cell_angle_alpha    106.144
_cell_angle_beta     90
_cell_angle_gamma    90.0001

_space_group_name_H-M_alt    "P 1"
_space_group_IT_number       1

loop_
  _space_group_symop_operation_xyz
  'x, y, z'

loop_
  _atom_site_type_symbol
  _atom_site_label
  _atom_site_symmetry_multiplicity
  _atom_site_fract_x
  _atom_site_fract_y
  _atom_site_fract_z
  _atom_site_occupancy
  Hg  Hg1       1.0  0.47670  0.69807  0.50244  1.0000
  Hg  Hg2       1.0  0.97670  0.80193  0.49756  1.0000
  Hg  Hg3       1.0  0.52330  0.30193  0.49756  1.0000
  Hg  Hg4       1.0  0.02330  0.19807  0.50244  1.0000
  H   H1        1.0  0.33605  0.05377  0.23873  1.0000
  H   H2        1.0  0.83605  0.44623  0.76127  1.0000
  H   H3        1.0  0.66395  0.94623  0.76127  1.0000
  H   H4        1.0  0.16395  0.55377  0.23873  1.0000
  H   H5        1.0  0.65840  0.56315  0.23813  1.0000
  H   H6        1.0  0.15840  0.93685  0.76187  1.0000
  H   H7        1.0  0.34160  0.43685  0.76187  1.0000
  H   H8        1.0  0.84160  0.06315  0.23813  1.0000
  H   H9        1.0  0.55494  0.81632  0.96902  1.0000
  H   H10       1.0  0.05494  0.68368  0.03098  1.0000
  H   H11       1.0  0.44506  0.18368  0.03098  1.0000
  H   H12       1.0  0.94506  0.31632  0.96902  1.0000
  H   H13       1.0  0.68967  0.60243  0.01190  1.0000
  H   H14       1.0  0.18967  0.89757  0.98810  1.0000
  H   H15       1.0  0.31033  0.39757  0.98810  1.0000
  H   H16       1.0  0.81033  0.10243  0.01190  1.0000
  C   C1        1.0  0.44095  0.85721  0.29259  1.0000
  C   C2        1.0  0.94095  0.64279  0.70741  1.0000
  C   C3        1.0  0.55905  0.14279  0.70741  1.0000
  C   C4        1.0  0.05905  0.35721  0.29259  1.0000
  C   C5        1.0  0.34413  0.95255  0.40491  1.0000
  C   C6        1.0  0.84413  0.54745  0.59509  1.0000
  C   C7        1.0  0.65587  0.04745  0.59509  1.0000
  C   C8        1.0  0.15587  0.45255  0.40491  1.0000
  C   C9        1.0  0.45613  0.88728  0.16831  1.0000
  C   C10       1.0  0.95613  0.61272  0.83169  1.0000
  C   C11       1.0  0.54388  0.11272  0.83169  1.0000
  C   C12       1.0  0.04387  0.38728  0.16831  1.0000
  C   C13       1.0  0.60202  0.65291  0.21417  1.0000
  C   C14       1.0  0.10202  0.84710  0.78583  1.0000
  C   C15       1.0  0.39798  0.34709  0.78583  1.0000
  C   C16       1.0  0.89798  0.15291  0.21417  1.0000
  C   C17       1.0  0.54492  0.79357  0.06500  1.0000
  C   C18       1.0  0.04492  0.70644  0.93500  1.0000
  C   C19       1.0  0.45508  0.20643  0.93500  1.0000
  C   C20       1.0  0.95508  0.29356  0.06500  1.0000
  C   C21       1.0  0.61816  0.67652  0.08890  1.0000
  C   C22       1.0  0.11816  0.82348  0.91110  1.0000
  C   C23       1.0  0.38184  0.32348  0.91110  1.0000
  C   C24       1.0  0.88184  0.17652  0.08890  1.0000
  N   N1        1.0  0.51364  0.74087  0.31071  1.0000
  N   N2        1.0  0.01364  0.75913  0.68929  1.0000
  N   N3        1.0  0.48636  0.25913  0.68929  1.0000
  N   N4        1.0  0.98636  0.24087  0.31071  1.0000
  Cl  Cl1       1.0  0.47434  0.65573  0.71115  1.0000
  Cl  Cl2       1.0  0.97434  0.84427  0.28885  1.0000
  Cl  Cl3       1.0  0.52566  0.34428  0.28885  1.0000
  Cl  Cl4       1.0  0.02566  0.15572  0.71115  1.0000
  O   O1        1.0  0.31626  0.91704  0.50981  1.0000
  O   O2        1.0  0.81626  0.58296  0.49019  1.0000
  O   O3        1.0  0.68374  0.08296  0.49019  1.0000
  O   O4        1.0  0.18374  0.41704  0.50981  1.0000
  O   O5        1.0  0.29469  0.06862  0.38480  1.0000
  O   O6        1.0  0.79469  0.43139  0.61520  1.0000
  O   O7        1.0  0.70531  0.93138  0.61520  1.0000
  O   O8        1.0  0.20531  0.56862  0.38480  1.0000
  O   O9        1.0  0.38572  0.00170  0.14724  1.0000
  O   O10       1.0  0.88572  0.49830  0.85276  1.0000
  O   O11       1.0  0.61428  0.99830  0.85276  1.0000
  O   O12       1.0  0.11428  0.50170  0.14724  1.0000
