data_image0
_chemical_formula_structural       Zn4H24C22N8O16
_chemical_formula_sum              "Zn4 H24 C22 N8 O16"
_cell_length_a       7.65877
_cell_length_b       8.78404
_cell_length_c       11.4547
_cell_angle_alpha    82.2427
_cell_angle_beta     81.249
_cell_angle_gamma    72.919

_space_group_name_H-M_alt    "P 1"
_space_group_IT_number       1

loop_
  _space_group_symop_operation_xyz
  'x, y, z'

loop_
  _atom_site_type_symbol
  _atom_site_label
  _atom_site_symmetry_multiplicity
  _atom_site_fract_x
  _atom_site_fract_y
  _atom_site_fract_z
  _atom_site_occupancy
  Zn  Zn1       1.0  0.03894  0.27911  0.31343  1.0000
  Zn  Zn2       1.0  0.96106  0.72089  0.68657  1.0000
  Zn  Zn3       1.0  0.10369  0.03797  0.60070  1.0000
  Zn  Zn4       1.0  0.89631  0.96203  0.39929  1.0000
  H   H1        1.0  0.39585  0.37386  0.54486  1.0000
  H   H2        1.0  0.60415  0.62614  0.45514  1.0000
  H   H3        1.0  0.12208  0.39705  0.58153  1.0000
  H   H4        1.0  0.87792  0.60295  0.41847  1.0000
  H   H5        1.0  0.01627  0.16599  0.94421  1.0000
  H   H6        1.0  0.98373  0.83400  0.05579  1.0000
  H   H7        1.0  0.65928  0.74186  0.86964  1.0000
  H   H8        1.0  0.34072  0.25814  0.13036  1.0000
  H   H9        1.0  0.41723  0.77450  0.86753  1.0000
  H   H10       1.0  0.58277  0.22550  0.13247  1.0000
  H   H11       1.0  0.56001  0.79742  0.73252  1.0000
  H   H12       1.0  0.44000  0.20258  0.26748  1.0000
  H   H13       1.0  0.23070  0.27155  0.80461  1.0000
  H   H14       1.0  0.76930  0.72845  0.19539  1.0000
  H   H15       1.0  0.23474  0.32685  0.94816  1.0000
  H   H16       1.0  0.76526  0.67315  0.05185  1.0000
  H   H17       1.0  0.37272  0.13450  0.90439  1.0000
  H   H18       1.0  0.62728  0.86550  0.09562  1.0000
  H   H19       1.0  0.21552  0.00529  0.37230  1.0000
  H   H20       1.0  0.78448  0.99471  0.62770  1.0000
  H   H21       1.0  0.41554  0.10763  0.66449  1.0000
  H   H22       1.0  0.58446  0.89236  0.33551  1.0000
  H   H23       1.0  0.44383  0.12823  0.52776  1.0000
  H   H24       1.0  0.55617  0.87177  0.47224  1.0000
  C   C1        1.0  0.76086  0.31459  0.72052  1.0000
  C   C2        1.0  0.23914  0.68541  0.27948  1.0000
  C   C3        1.0  0.50327  0.42387  0.49698  1.0000
  C   C4        1.0  0.49673  0.57613  0.50301  1.0000
  C   C5        1.0  0.73333  0.47365  0.74146  1.0000
  C   C6        1.0  0.26667  0.52635  0.25854  1.0000
  C   C7        1.0  0.61887  0.23899  0.75967  1.0000
  C   C8        1.0  0.38113  0.76101  0.24034  1.0000
  C   C9        1.0  0.97908  0.10896  0.13828  1.0000
  C   C10       1.0  0.02092  0.89104  0.86173  1.0000
  C   C11       1.0  0.99073  0.39501  0.63096  1.0000
  C   C12       1.0  0.00927  0.60499  0.36903  1.0000
  C   C13       1.0  0.44519  0.48779  0.85855  1.0000
  C   C14       1.0  0.55481  0.51222  0.14145  1.0000
  C   C15       1.0  0.99795  0.07230  0.01362  1.0000
  C   C16       1.0  0.00205  0.92770  0.98638  1.0000
  C   C17       1.0  0.66041  0.31559  0.43057  1.0000
  C   C18       1.0  0.33959  0.68441  0.56943  1.0000
  C   C19       1.0  0.55385  0.72902  0.81989  1.0000
  C   C20       1.0  0.44615  0.27098  0.18011  1.0000
  C   C21       1.0  0.31751  0.26115  0.87495  1.0000
  C   C22       1.0  0.68250  0.73885  0.12505  1.0000
  N   N1        1.0  0.87795  0.52555  0.68462  1.0000
  N   N2        1.0  0.12205  0.47445  0.31538  1.0000
  N   N3        1.0  0.92755  0.26668  0.64858  1.0000
  N   N4        1.0  0.07245  0.73331  0.35142  1.0000
  N   N5        1.0  0.46943  0.33077  0.83027  1.0000
  N   N6        1.0  0.53057  0.66923  0.16973  1.0000
  N   N7        1.0  0.57961  0.56094  0.80494  1.0000
  N   N8        1.0  0.42039  0.43907  0.19506  1.0000
  O   O1        1.0  0.66502  0.16841  0.44163  1.0000
  O   O2        1.0  0.33498  0.83159  0.55837  1.0000
  O   O3        1.0  0.89212  0.03504  0.21785  1.0000
  O   O4        1.0  0.10788  0.96496  0.78215  1.0000
  O   O5        1.0  0.05843  0.21372  0.15355  1.0000
  O   O6        1.0  0.94157  0.78628  0.84645  1.0000
  O   O7        1.0  0.10703  0.07746  0.41550  1.0000
  O   O8        1.0  0.89297  0.92254  0.58450  1.0000
  O   O9        1.0  0.61479  0.10439  0.73498  1.0000
  O   O10       1.0  0.38521  0.89561  0.26502  1.0000
  O   O11       1.0  0.77901  0.37880  0.36902  1.0000
  O   O12       1.0  0.22099  0.62120  0.63098  1.0000
  O   O13       1.0  0.34580  0.13049  0.59516  1.0000
  O   O14       1.0  0.65420  0.86951  0.40485  1.0000
  O   O15       1.0  0.31141  0.55674  0.92482  1.0000
  O   O16       1.0  0.68859  0.44327  0.07518  1.0000
