data_image0
_chemical_formula_structural       Gd4H40C56N4O34
_chemical_formula_sum              "Gd4 H40 C56 N4 O34"
_cell_length_a       10.2363
_cell_length_b       12.1634
_cell_length_c       13.0585
_cell_angle_alpha    74.0463
_cell_angle_beta     75.4817
_cell_angle_gamma    70.9248

_space_group_name_H-M_alt    "P 1"
_space_group_IT_number       1

loop_
  _space_group_symop_operation_xyz
  'x, y, z'

loop_
  _atom_site_type_symbol
  _atom_site_label
  _atom_site_symmetry_multiplicity
  _atom_site_fract_x
  _atom_site_fract_y
  _atom_site_fract_z
  _atom_site_occupancy
  Gd  Gd1       1.0  0.79749  0.78234  0.89691  1.0000
  Gd  Gd2       1.0  0.20251  0.21766  0.10309  1.0000
  Gd  Gd3       1.0  0.19272  0.71743  0.05126  1.0000
  Gd  Gd4       1.0  0.80728  0.28257  0.94875  1.0000
  H   H1        1.0  0.72062  0.01544  0.96763  1.0000
  H   H2        1.0  0.27938  0.98456  0.03237  1.0000
  H   H3        1.0  0.87716  0.95807  0.97455  1.0000
  H   H4        1.0  0.12284  0.04193  0.02545  1.0000
  H   H5        1.0  0.31456  0.53336  0.23020  1.0000
  H   H6        1.0  0.68544  0.46664  0.76980  1.0000
  H   H7        1.0  0.30672  0.46249  0.14397  1.0000
  H   H8        1.0  0.69329  0.53751  0.85603  1.0000
  H   H9        1.0  0.26458  0.50505  0.94490  1.0000
  H   H10       1.0  0.73542  0.49494  0.05511  1.0000
  H   H11       1.0  0.11303  0.57787  0.92618  1.0000
  H   H12       1.0  0.88697  0.42213  0.07382  1.0000
  H   H13       1.0  0.00823  0.36743  0.43084  1.0000
  H   H14       1.0  0.99177  0.63256  0.56916  1.0000
  H   H15       1.0  0.82889  0.48770  0.55798  1.0000
  H   H16       1.0  0.17111  0.51230  0.44202  1.0000
  H   H17       1.0  0.66000  0.67498  0.48057  1.0000
  H   H18       1.0  0.34000  0.32502  0.51943  1.0000
  H   H19       1.0  0.58897  0.05704  0.17875  1.0000
  H   H20       1.0  0.41104  0.94296  0.82125  1.0000
  H   H21       1.0  0.77695  0.87231  0.21608  1.0000
  H   H22       1.0  0.22306  0.12769  0.78392  1.0000
  H   H23       1.0  0.49189  0.66675  0.32635  1.0000
  H   H24       1.0  0.50811  0.33326  0.67365  1.0000
  H   H25       1.0  0.29105  0.84454  0.29381  1.0000
  H   H26       1.0  0.70895  0.15547  0.70618  1.0000
  H   H27       1.0  0.97293  0.25232  0.58612  1.0000
  H   H28       1.0  0.02707  0.74768  0.41389  1.0000
  H   H29       1.0  0.13019  0.17716  0.42193  1.0000
  H   H30       1.0  0.86981  0.82284  0.57807  1.0000
  H   H31       1.0  0.28964  0.97025  0.44916  1.0000
  H   H32       1.0  0.71036  0.02975  0.55084  1.0000
  H   H33       1.0  0.63489  0.68262  0.69347  1.0000
  H   H34       1.0  0.36511  0.31738  0.30653  1.0000
  H   H35       1.0  0.45957  0.88030  0.66224  1.0000
  H   H36       1.0  0.54043  0.11970  0.33776  1.0000
  H   H37       1.0  0.17172  0.73817  0.60638  1.0000
  H   H38       1.0  0.82828  0.26183  0.39362  1.0000
  H   H39       1.0  0.33628  0.53357  0.63086  1.0000
  H   H40       1.0  0.66372  0.46643  0.36914  1.0000
  C   C1        1.0  0.86516  0.65023  0.12471  1.0000
  C   C2        1.0  0.13485  0.34977  0.87529  1.0000
  C   C3        1.0  0.03854  0.40010  0.22047  1.0000
  C   C4        1.0  0.96146  0.59990  0.77953  1.0000
  C   C5        1.0  0.85359  0.59651  0.24401  1.0000
  C   C6        1.0  0.14641  0.40349  0.75599  1.0000
  C   C7        1.0  0.94388  0.48746  0.28797  1.0000
  C   C8        1.0  0.05612  0.51254  0.71203  1.0000
  C   C9        1.0  0.93529  0.45113  0.40031  1.0000
  C   C10       1.0  0.06472  0.54887  0.59968  1.0000
  C   C11       1.0  0.83621  0.51790  0.47062  1.0000
  C   C12       1.0  0.16379  0.48209  0.52938  1.0000
  C   C13       1.0  0.74151  0.62223  0.42786  1.0000
  C   C14       1.0  0.25849  0.37777  0.57214  1.0000
  C   C15       1.0  0.74963  0.65994  0.31596  1.0000
  C   C16       1.0  0.25037  0.34006  0.68404  1.0000
  C   C17       1.0  0.56088  0.97410  0.21477  1.0000
  C   C18       1.0  0.43912  0.02590  0.78524  1.0000
  C   C19       1.0  0.66746  0.87223  0.23460  1.0000
  C   C20       1.0  0.33255  0.12778  0.76540  1.0000
  C   C21       1.0  0.50613  0.75610  0.29849  1.0000
  C   C22       1.0  0.49388  0.24390  0.70151  1.0000
  C   C23       1.0  0.39600  0.85528  0.27982  1.0000
  C   C24       1.0  0.60400  0.14473  0.72018  1.0000
  C   C25       1.0  0.41758  0.97118  0.23900  1.0000
  C   C26       1.0  0.58242  0.02883  0.76100  1.0000
  C   C27       1.0  0.47496  0.80092  0.00604  1.0000
  C   C28       1.0  0.52504  0.19908  0.99396  1.0000
  C   C29       1.0  0.51845  0.69107  0.95456  1.0000
  C   C30       1.0  0.48155  0.30893  0.04544  1.0000
  C   C31       1.0  0.10823  0.87981  0.81687  1.0000
  C   C32       1.0  0.89177  0.12019  0.18314  1.0000
  C   C33       1.0  0.94938  0.14529  0.78973  1.0000
  C   C34       1.0  0.05061  0.85471  0.21027  1.0000
  C   C35       1.0  0.12093  0.96988  0.71128  1.0000
  C   C36       1.0  0.87907  0.03012  0.28872  1.0000
  C   C37       1.0  0.03637  0.08848  0.69688  1.0000
  C   C38       1.0  0.96363  0.91152  0.30312  1.0000
  C   C39       1.0  0.04056  0.16138  0.59285  1.0000
  C   C40       1.0  0.95944  0.83862  0.40715  1.0000
  C   C41       1.0  0.12837  0.12023  0.50279  1.0000
  C   C42       1.0  0.87163  0.87977  0.49722  1.0000
  C   C43       1.0  0.21751  0.00469  0.51741  1.0000
  C   C44       1.0  0.78249  0.99531  0.48259  1.0000
  C   C45       1.0  0.21340  0.93197  0.62063  1.0000
  C   C46       1.0  0.78660  0.06803  0.37937  1.0000
  C   C47       1.0  0.53409  0.69003  0.67457  1.0000
  C   C48       1.0  0.46591  0.30997  0.32543  1.0000
  C   C49       1.0  0.43936  0.79943  0.65782  1.0000
  C   C50       1.0  0.56064  0.20057  0.34218  1.0000
  C   C51       1.0  0.27579  0.71886  0.62505  1.0000
  C   C52       1.0  0.72422  0.28114  0.37495  1.0000
  C   C53       1.0  0.36683  0.60753  0.63966  1.0000
  C   C54       1.0  0.63317  0.39247  0.36034  1.0000
  C   C55       1.0  0.50119  0.58539  0.66878  1.0000
  C   C56       1.0  0.49881  0.41461  0.33122  1.0000
  N   N1        1.0  0.64108  0.76440  0.27836  1.0000
  N   N2        1.0  0.35892  0.23560  0.72164  1.0000
  N   N3        1.0  0.31053  0.81450  0.63473  1.0000
  N   N4        1.0  0.68948  0.18550  0.36527  1.0000
  O   O1        1.0  0.96471  0.69793  0.07945  1.0000
  O   O2        1.0  0.03529  0.30207  0.92055  1.0000
  O   O3        1.0  0.76938  0.65556  0.07703  1.0000
  O   O4        1.0  0.23062  0.34444  0.92297  1.0000
  O   O5        1.0  0.03135  0.41810  0.12033  1.0000
  O   O6        1.0  0.96865  0.58189  0.87967  1.0000
  O   O7        1.0  0.11998  0.30504  0.26571  1.0000
  O   O8        1.0  0.88002  0.69496  0.73429  1.0000
  O   O9        1.0  0.31408  0.06551  0.22616  1.0000
  O   O10       1.0  0.68592  0.93449  0.77384  1.0000
  O   O11       1.0  0.56460  0.85517  0.99438  1.0000
  O   O12       1.0  0.43539  0.14483  0.00562  1.0000
  O   O13       1.0  0.34752  0.82960  0.05405  1.0000
  O   O14       1.0  0.65247  0.17040  0.94595  1.0000
  O   O15       1.0  0.64448  0.66395  0.90336  1.0000
  O   O16       1.0  0.35552  0.33605  0.09664  1.0000
  O   O17       1.0  0.42749  0.63866  0.96442  1.0000
  O   O18       1.0  0.57251  0.36134  0.03558  1.0000
  O   O19       1.0  0.01075  0.83104  0.83224  1.0000
  O   O20       1.0  0.98925  0.16896  0.16776  1.0000
  O   O21       1.0  0.19608  0.85467  0.87846  1.0000
  O   O22       1.0  0.80392  0.14533  0.12154  1.0000
  O   O23       1.0  0.96376  0.09325  0.88744  1.0000
  O   O24       1.0  0.03624  0.90675  0.11256  1.0000
  O   O25       1.0  0.86772  0.24986  0.76712  1.0000
  O   O26       1.0  0.13228  0.75014  0.23288  1.0000
  O   O27       1.0  0.58460  0.48103  0.68674  1.0000
  O   O28       1.0  0.41540  0.51897  0.31326  1.0000
  O   O29       1.0  0.79056  0.93641  0.98180  1.0000
  O   O30       1.0  0.20944  0.06359  0.01820  1.0000
  O   O31       1.0  0.26343  0.53773  0.17122  1.0000
  O   O32       1.0  0.73657  0.46227  0.82878  1.0000
  O   O33       1.0  0.19970  0.58457  0.94214  1.0000
  O   O34       1.0  0.80030  0.41543  0.05786  1.0000
