data_image0
_chemical_formula_structural       Tb4H40C56N4O34
_chemical_formula_sum              "Tb4 H40 C56 N4 O34"
_cell_length_a       10.2409
_cell_length_b       12.1138
_cell_length_c       13.0025
_cell_angle_alpha    74.6466
_cell_angle_beta     76.0168
_cell_angle_gamma    71.1512

_space_group_name_H-M_alt    "P 1"
_space_group_IT_number       1

loop_
  _space_group_symop_operation_xyz
  'x, y, z'

loop_
  _atom_site_type_symbol
  _atom_site_label
  _atom_site_symmetry_multiplicity
  _atom_site_fract_x
  _atom_site_fract_y
  _atom_site_fract_z
  _atom_site_occupancy
  Tb  Tb1       1.0  0.69400  0.21875  0.55119  1.0000
  Tb  Tb2       1.0  0.30600  0.78125  0.44881  1.0000
  Tb  Tb3       1.0  0.29511  0.28155  0.39513  1.0000
  Tb  Tb4       1.0  0.70489  0.71845  0.60487  1.0000
  H   H1        1.0  0.61237  0.07551  0.42818  1.0000
  H   H2        1.0  0.38763  0.92449  0.57182  1.0000
  H   H3        1.0  0.76860  0.00991  0.43934  1.0000
  H   H4        1.0  0.23140  0.99009  0.56066  1.0000
  H   H5        1.0  0.80855  0.96479  0.64341  1.0000
  H   H6        1.0  0.19145  0.03521  0.35659  1.0000
  H   H7        1.0  0.81630  0.03651  0.73011  1.0000
  H   H8        1.0  0.18370  0.96348  0.26989  1.0000
  H   H9        1.0  0.21760  0.51281  0.46745  1.0000
  H   H10       1.0  0.78240  0.48719  0.53255  1.0000
  H   H11       1.0  0.37595  0.46198  0.46562  1.0000
  H   H12       1.0  0.62405  0.53802  0.53438  1.0000
  H   H13       1.0  0.52470  0.24754  0.91342  1.0000
  H   H14       1.0  0.47531  0.75246  0.08658  1.0000
  H   H15       1.0  0.36154  0.32146  0.07633  1.0000
  H   H16       1.0  0.63846  0.67854  0.92367  1.0000
  H   H17       1.0  0.20245  0.52847  0.04850  1.0000
  H   H18       1.0  0.79755  0.47153  0.95150  1.0000
  H   H19       1.0  0.16859  0.96748  0.86546  1.0000
  H   H20       1.0  0.83141  0.03252  0.13454  1.0000
  H   H21       1.0  0.33116  0.76204  0.88884  1.0000
  H   H22       1.0  0.66884  0.23796  0.11116  1.0000
  H   H23       1.0  0.03601  0.62074  0.84031  1.0000
  H   H24       1.0  0.96399  0.37926  0.15969  1.0000
  H   H25       1.0  0.86247  0.81940  0.80986  1.0000
  H   H26       1.0  0.13753  0.18060  0.19014  1.0000
  H   H27       1.0  0.50786  0.86825  0.93071  1.0000
  H   H28       1.0  0.49214  0.13175  0.06929  1.0000
  H   H29       1.0  0.32677  0.98764  0.05802  1.0000
  H   H30       1.0  0.67323  0.01236  0.94198  1.0000
  H   H31       1.0  0.15913  0.17523  0.98017  1.0000
  H   H32       1.0  0.84087  0.82478  0.01983  1.0000
  H   H33       1.0  0.79366  0.34836  0.79459  1.0000
  H   H34       1.0  0.20634  0.65164  0.20541  1.0000
  H   H35       1.0  0.99293  0.16939  0.82702  1.0000
  H   H36       1.0  0.00707  0.83061  0.17298  1.0000
  H   H37       1.0  0.28047  0.37185  0.71442  1.0000
  H   H38       1.0  0.71953  0.62815  0.28558  1.0000
  H   H39       1.0  0.09445  0.55765  0.67712  1.0000
  H   H40       1.0  0.90555  0.44235  0.32288  1.0000
  C   C1        1.0  0.55426  0.35611  0.71063  1.0000
  C   C2        1.0  0.44574  0.64389  0.28937  1.0000
  C   C3        1.0  0.39638  0.62116  0.68405  1.0000
  C   C4        1.0  0.60362  0.37884  0.31595  1.0000
  C   C5        1.0  0.38043  0.53102  0.78890  1.0000
  C   C6        1.0  0.61957  0.46898  0.21110  1.0000
  C   C7        1.0  0.46487  0.41228  0.80345  1.0000
  C   C8        1.0  0.53513  0.58772  0.19655  1.0000
  C   C9        1.0  0.45716  0.33852  0.90673  1.0000
  C   C10       1.0  0.54284  0.66148  0.09327  1.0000
  C   C11       1.0  0.36583  0.37888  0.99597  1.0000
  C   C12       1.0  0.63417  0.62112  0.00403  1.0000
  C   C13       1.0  0.27697  0.49447  0.98099  1.0000
  C   C14       1.0  0.72304  0.50553  0.01901  1.0000
  C   C15       1.0  0.28463  0.56815  0.87852  1.0000
  C   C16       1.0  0.71537  0.43185  0.12148  1.0000
  C   C17       1.0  0.13599  0.89354  0.85803  1.0000
  C   C18       1.0  0.86401  0.10646  0.14197  1.0000
  C   C19       1.0  0.22600  0.78179  0.87198  1.0000
  C   C20       1.0  0.77400  0.21821  0.12802  1.0000
  C   C21       1.0  0.05815  0.70162  0.84358  1.0000
  C   C22       1.0  0.94185  0.29838  0.15642  1.0000
  C   C23       1.0  0.96443  0.81156  0.82723  1.0000
  C   C24       1.0  0.03557  0.18844  0.17278  1.0000
  C   C25       1.0  0.99992  0.91612  0.83155  1.0000
  C   C26       1.0  0.00009  0.08388  0.16846  1.0000
  C   C27       1.0  0.97567  0.30079  0.50526  1.0000
  C   C28       1.0  0.02433  0.69921  0.49474  1.0000
  C   C29       1.0  0.01751  0.19085  0.45305  1.0000
  C   C30       1.0  0.98249  0.80915  0.54696  1.0000
  C   C31       1.0  0.36879  0.15194  0.62436  1.0000
  C   C32       1.0  0.63121  0.84806  0.37564  1.0000
  C   C33       1.0  0.54129  0.90154  0.72033  1.0000
  C   C34       1.0  0.45871  0.09847  0.27968  1.0000
  C   C35       1.0  0.35559  0.09799  0.74367  1.0000
  C   C36       1.0  0.64441  0.90201  0.25633  1.0000
  C   C37       1.0  0.44538  0.98887  0.78779  1.0000
  C   C38       1.0  0.55462  0.01113  0.21221  1.0000
  C   C39       1.0  0.43534  0.95209  0.90022  1.0000
  C   C40       1.0  0.56466  0.04792  0.09978  1.0000
  C   C41       1.0  0.33536  0.01835  0.97063  1.0000
  C   C42       1.0  0.66464  0.98166  0.02937  1.0000
  C   C43       1.0  0.24140  0.12277  0.92763  1.0000
  C   C44       1.0  0.75860  0.87723  0.07237  1.0000
  C   C45       1.0  0.25101  0.16096  0.81564  1.0000
  C   C46       1.0  0.74899  0.83904  0.18436  1.0000
  C   C47       1.0  0.89889  0.35832  0.78007  1.0000
  C   C48       1.0  0.10111  0.64168  0.21993  1.0000
  C   C49       1.0  0.00803  0.25850  0.79869  1.0000
  C   C50       1.0  0.99196  0.74150  0.20131  1.0000
  C   C51       1.0  0.17083  0.37284  0.73333  1.0000
  C   C52       1.0  0.82917  0.62716  0.26667  1.0000
  C   C53       1.0  0.06533  0.47530  0.71350  1.0000
  C   C54       1.0  0.93467  0.52470  0.28649  1.0000
  C   C55       1.0  0.92174  0.47378  0.73873  1.0000
  C   C56       1.0  0.07826  0.52622  0.26127  1.0000
  N   N1        1.0  0.18847  0.68604  0.86441  1.0000
  N   N2        1.0  0.81153  0.31396  0.13559  1.0000
  N   N3        1.0  0.14320  0.26570  0.77793  1.0000
  N   N4        1.0  0.85680  0.73430  0.22207  1.0000
  O   O1        1.0  0.63617  0.25177  0.73286  1.0000
  O   O2        1.0  0.36383  0.74823  0.26714  1.0000
  O   O3        1.0  0.54086  0.40843  0.61274  1.0000
  O   O4        1.0  0.45914  0.59157  0.38726  1.0000
  O   O5        1.0  0.49469  0.66817  0.67169  1.0000
  O   O6        1.0  0.50531  0.33183  0.32831  1.0000
  O   O7        1.0  0.31021  0.64720  0.62043  1.0000
  O   O8        1.0  0.68979  0.35280  0.37957  1.0000
  O   O9        1.0  0.91735  0.02091  0.81435  1.0000
  O   O10       1.0  0.08265  0.97909  0.18565  1.0000
  O   O11       1.0  0.84886  0.33026  0.55309  1.0000
  O   O12       1.0  0.15114  0.66974  0.44691  1.0000
  O   O13       1.0  0.06606  0.35421  0.49443  1.0000
  O   O14       1.0  0.93394  0.64579  0.50557  1.0000
  O   O15       1.0  0.92550  0.13963  0.46179  1.0000
  O   O16       1.0  0.07450  0.86037  0.53821  1.0000
  O   O17       1.0  0.14325  0.16258  0.40280  1.0000
  O   O18       1.0  0.85675  0.83742  0.59720  1.0000
  O   O19       1.0  0.27374  0.15804  0.57501  1.0000
  O   O20       1.0  0.72626  0.84196  0.42499  1.0000
  O   O21       1.0  0.46933  0.19827  0.58129  1.0000
  O   O22       1.0  0.53067  0.80173  0.41871  1.0000
  O   O23       1.0  0.53362  0.91789  0.62024  1.0000
  O   O24       1.0  0.46638  0.08211  0.37976  1.0000
  O   O25       1.0  0.62415  0.80771  0.76575  1.0000
  O   O26       1.0  0.37585  0.19229  0.23425  1.0000
  O   O27       1.0  0.81925  0.56890  0.72645  1.0000
  O   O28       1.0  0.18075  0.43110  0.27356  1.0000
  O   O29       1.0  0.69821  0.08610  0.44219  1.0000
  O   O30       1.0  0.30179  0.91390  0.55782  1.0000
  O   O31       1.0  0.76628  0.04088  0.67004  1.0000
  O   O32       1.0  0.23372  0.95912  0.32996  1.0000
  O   O33       1.0  0.29102  0.43567  0.47867  1.0000
  O   O34       1.0  0.70898  0.56433  0.52133  1.0000
