data_image0
_chemical_formula_structural       Dy4H40C56N4O34
_chemical_formula_sum              "Dy4 H40 C56 N4 O34"
_cell_length_a       10.2546
_cell_length_b       12.0786
_cell_length_c       12.9755
_cell_angle_alpha    74.6478
_cell_angle_beta     76.1496
_cell_angle_gamma    71.208

_space_group_name_H-M_alt    "P 1"
_space_group_IT_number       1

loop_
  _space_group_symop_operation_xyz
  'x, y, z'

loop_
  _atom_site_type_symbol
  _atom_site_label
  _atom_site_symmetry_multiplicity
  _atom_site_fract_x
  _atom_site_fract_y
  _atom_site_fract_z
  _atom_site_occupancy
  Dy  Dy1       1.0  0.19491  0.71989  0.55125  1.0000
  Dy  Dy2       1.0  0.80508  0.28011  0.44875  1.0000
  Dy  Dy3       1.0  0.79345  0.77981  0.39282  1.0000
  Dy  Dy4       1.0  0.20654  0.22019  0.60718  1.0000
  H   H1        1.0  0.10976  0.57958  0.42635  1.0000
  H   H2        1.0  0.89024  0.42042  0.57365  1.0000
  H   H3        1.0  0.26233  0.50877  0.44311  1.0000
  H   H4        1.0  0.73766  0.49123  0.55690  1.0000
  H   H5        1.0  0.30926  0.46673  0.64264  1.0000
  H   H6        1.0  0.69073  0.53327  0.35736  1.0000
  H   H7        1.0  0.31722  0.53893  0.72927  1.0000
  H   H8        1.0  0.68278  0.46107  0.27073  1.0000
  H   H9        1.0  0.70837  0.00700  0.46916  1.0000
  H   H10       1.0  0.29163  0.99300  0.53084  1.0000
  H   H11       1.0  0.86839  0.97071  0.45182  1.0000
  H   H12       1.0  0.13161  0.02929  0.54818  1.0000
  H   H13       1.0  0.97333  0.25252  0.08645  1.0000
  H   H14       1.0  0.02667  0.74748  0.91355  1.0000
  H   H15       1.0  0.14170  0.18046  0.92460  1.0000
  H   H16       1.0  0.85830  0.81954  0.07540  1.0000
  H   H17       1.0  0.30164  0.97332  0.95349  1.0000
  H   H18       1.0  0.69836  0.02668  0.04651  1.0000
  H   H19       1.0  0.63746  0.67906  0.18971  1.0000
  H   H20       1.0  0.36254  0.32094  0.81030  1.0000
  H   H21       1.0  0.46542  0.87879  0.15839  1.0000
  H   H22       1.0  0.53458  0.12121  0.84161  1.0000
  H   H23       1.0  0.16742  0.73772  0.11349  1.0000
  H   H24       1.0  0.83258  0.26229  0.88651  1.0000
  H   H25       1.0  0.32907  0.53135  0.13730  1.0000
  H   H26       1.0  0.67093  0.46865  0.86270  1.0000
  H   H27       1.0  0.99363  0.63167  0.06660  1.0000
  H   H28       1.0  0.00637  0.36833  0.93340  1.0000
  H   H29       1.0  0.17648  0.51234  0.94024  1.0000
  H   H30       1.0  0.82352  0.48767  0.05976  1.0000
  H   H31       1.0  0.34327  0.32456  0.01960  1.0000
  H   H32       1.0  0.65673  0.67544  0.98040  1.0000
  H   H33       1.0  0.40047  0.94028  0.32342  1.0000
  H   H34       1.0  0.59953  0.05972  0.67658  1.0000
  H   H35       1.0  0.21660  0.12830  0.28686  1.0000
  H   H36       1.0  0.78340  0.87170  0.71314  1.0000
  H   H37       1.0  0.50797  0.32731  0.17384  1.0000
  H   H38       1.0  0.49203  0.67269  0.82616  1.0000
  H   H39       1.0  0.70504  0.14563  0.20488  1.0000
  H   H40       1.0  0.29495  0.85437  0.79512  1.0000
  C   C1        1.0  0.10046  0.87747  0.31626  1.0000
  C   C2        1.0  0.89954  0.12253  0.68374  1.0000
  C   C3        1.0  0.94096  0.14292  0.28877  1.0000
  C   C4        1.0  0.05904  0.85708  0.71123  1.0000
  C   C5        1.0  0.11706  0.96813  0.21147  1.0000
  C   C6        1.0  0.88294  0.03187  0.78853  1.0000
  C   C7        1.0  0.03203  0.08694  0.19639  1.0000
  C   C8        1.0  0.96797  0.91306  0.80361  1.0000
  C   C9        1.0  0.04164  0.16163  0.09337  1.0000
  C   C10       1.0  0.95836  0.83837  0.90663  1.0000
  C   C11       1.0  0.13587  0.12233  0.00486  1.0000
  C   C12       1.0  0.86413  0.87767  0.99514  1.0000
  C   C13       1.0  0.22519  0.00673  0.02043  1.0000
  C   C14       1.0  0.77481  0.99327  0.97957  1.0000
  C   C15       1.0  0.21525  0.93190  0.12257  1.0000
  C   C16       1.0  0.78475  0.06810  0.87743  1.0000
  C   C17       1.0  0.53507  0.68732  0.17305  1.0000
  C   C18       1.0  0.46493  0.31268  0.82696  1.0000
  C   C19       1.0  0.44207  0.79779  0.15629  1.0000
  C   C20       1.0  0.55793  0.20221  0.84371  1.0000
  C   C21       1.0  0.27270  0.71772  0.13000  1.0000
  C   C22       1.0  0.72730  0.28229  0.87000  1.0000
  C   C23       1.0  0.36212  0.60553  0.14407  1.0000
  C   C24       1.0  0.63788  0.39447  0.85593  1.0000
  C   C25       1.0  0.49849  0.58254  0.16990  1.0000
  C   C26       1.0  0.50151  0.41746  0.83010  1.0000
  C   C27       1.0  0.47691  0.79861  0.50560  1.0000
  C   C28       1.0  0.52310  0.20139  0.49440  1.0000
  C   C29       1.0  0.51745  0.68875  0.45331  1.0000
  C   C30       1.0  0.48256  0.31125  0.54669  1.0000
  C   C31       1.0  0.95738  0.59794  0.27774  1.0000
  C   C32       1.0  0.04262  0.40206  0.72226  1.0000
  C   C33       1.0  0.12748  0.34661  0.37496  1.0000
  C   C34       1.0  0.87252  0.65339  0.62504  1.0000
  C   C35       1.0  0.14393  0.40160  0.25550  1.0000
  C   C36       1.0  0.85606  0.59840  0.74450  1.0000
  C   C37       1.0  0.05456  0.51088  0.21051  1.0000
  C   C38       1.0  0.94544  0.48912  0.78949  1.0000
  C   C39       1.0  0.06603  0.54789  0.09775  1.0000
  C   C40       1.0  0.93397  0.45211  0.90225  1.0000
  C   C41       1.0  0.16708  0.48163  0.02789  1.0000
  C   C42       1.0  0.83292  0.51837  0.97211  1.0000
  C   C43       1.0  0.26054  0.37708  0.07178  1.0000
  C   C44       1.0  0.73946  0.62292  0.92822  1.0000
  C   C45       1.0  0.24934  0.33857  0.18413  1.0000
  C   C46       1.0  0.75065  0.66143  0.81587  1.0000
  C   C47       1.0  0.43070  0.02237  0.28708  1.0000
  C   C48       1.0  0.56929  0.97763  0.71292  1.0000
  C   C49       1.0  0.32641  0.12608  0.26764  1.0000
  C   C50       1.0  0.67358  0.87392  0.73236  1.0000
  C   C51       1.0  0.49138  0.23842  0.20183  1.0000
  C   C52       1.0  0.50862  0.76158  0.79817  1.0000
  C   C53       1.0  0.59925  0.13722  0.21985  1.0000
  C   C54       1.0  0.40075  0.86278  0.78015  1.0000
  C   C55       1.0  0.57457  0.02216  0.26080  1.0000
  C   C56       1.0  0.42543  0.97784  0.73920  1.0000
  N   N1        1.0  0.31117  0.81370  0.13663  1.0000
  N   N2        1.0  0.68883  0.18630  0.86337  1.0000
  N   N3        1.0  0.35575  0.23289  0.22277  1.0000
  N   N4        1.0  0.64425  0.76711  0.77723  1.0000
  O   O1        1.0  0.18568  0.85208  0.38062  1.0000
  O   O2        1.0  0.81432  0.14792  0.61938  1.0000
  O   O3        1.0  0.00306  0.82959  0.32771  1.0000
  O   O4        1.0  0.99695  0.17041  0.67229  1.0000
  O   O5        1.0  0.95202  0.08930  0.38712  1.0000
  O   O6        1.0  0.04799  0.91070  0.61288  1.0000
  O   O7        1.0  0.86088  0.24804  0.26654  1.0000
  O   O8        1.0  0.13912  0.75196  0.73346  1.0000
  O   O9        1.0  0.58044  0.47729  0.18728  1.0000
  O   O10       1.0  0.41956  0.52271  0.81272  1.0000
  O   O11       1.0  0.35091  0.82849  0.55373  1.0000
  O   O12       1.0  0.64909  0.17151  0.44627  1.0000
  O   O13       1.0  0.56776  0.85191  0.49428  1.0000
  O   O14       1.0  0.43224  0.14809  0.50572  1.0000
  O   O15       1.0  0.42445  0.63920  0.46056  1.0000
  O   O16       1.0  0.57555  0.36080  0.53944  1.0000
  O   O17       1.0  0.64357  0.65893  0.40450  1.0000
  O   O18       1.0  0.35643  0.34107  0.59551  1.0000
  O   O19       1.0  0.96541  0.58234  0.37789  1.0000
  O   O20       1.0  0.03459  0.41766  0.62211  1.0000
  O   O21       1.0  0.87306  0.69099  0.23239  1.0000
  O   O22       1.0  0.12694  0.30901  0.76761  1.0000
  O   O23       1.0  0.02714  0.29964  0.41400  1.0000
  O   O24       1.0  0.97286  0.70036  0.58599  1.0000
  O   O25       1.0  0.21946  0.34072  0.42737  1.0000
  O   O26       1.0  0.78054  0.65928  0.57263  1.0000
  O   O27       1.0  0.67583  0.92578  0.27183  1.0000
  O   O28       1.0  0.32418  0.07422  0.72817  1.0000
  O   O29       1.0  0.19572  0.58738  0.44271  1.0000
  O   O30       1.0  0.80428  0.41262  0.55729  1.0000
  O   O31       1.0  0.26696  0.54298  0.66934  1.0000
  O   O32       1.0  0.73305  0.45702  0.33067  1.0000
  O   O33       1.0  0.78913  0.93510  0.47286  1.0000
  O   O34       1.0  0.21087  0.06490  0.52714  1.0000
