data_image0
_chemical_formula_structural       Eu4H40C56N4O34
_chemical_formula_sum              "Eu4 H40 C56 N4 O34"
_cell_length_a       10.2467
_cell_length_b       12.0461
_cell_length_c       12.9488
_cell_angle_alpha    74.751
_cell_angle_beta     75.8559
_cell_angle_gamma    72.0327

_space_group_name_H-M_alt    "P 1"
_space_group_IT_number       1

loop_
  _space_group_symop_operation_xyz
  'x, y, z'

loop_
  _atom_site_type_symbol
  _atom_site_label
  _atom_site_symmetry_multiplicity
  _atom_site_fract_x
  _atom_site_fract_y
  _atom_site_fract_z
  _atom_site_occupancy
  Eu  Eu1       1.0  0.20170  0.71751  0.60293  1.0000
  Eu  Eu2       1.0  0.79830  0.28249  0.39707  1.0000
  Eu  Eu3       1.0  0.80838  0.78230  0.45004  1.0000
  Eu  Eu4       1.0  0.19162  0.21770  0.54996  1.0000
  H   H1        1.0  0.12443  0.52951  0.53810  1.0000
  H   H2        1.0  0.87557  0.47049  0.46190  1.0000
  H   H3        1.0  0.28310  0.48424  0.53164  1.0000
  H   H4        1.0  0.71689  0.51576  0.46836  1.0000
  H   H5        1.0  0.69283  0.03752  0.35642  1.0000
  H   H6        1.0  0.30717  0.96248  0.64358  1.0000
  H   H7        1.0  0.68479  0.96672  0.26910  1.0000
  H   H8        1.0  0.31521  0.03328  0.73090  1.0000
  H   H9        1.0  0.73357  0.98920  0.56879  1.0000
  H   H10       1.0  0.26643  0.01081  0.43120  1.0000
  H   H11       1.0  0.88893  0.92256  0.57717  1.0000
  H   H12       1.0  0.11107  0.07744  0.42283  1.0000
  H   H13       1.0  0.99491  0.12829  0.06736  1.0000
  H   H14       1.0  0.00510  0.87170  0.93264  1.0000
  H   H15       1.0  0.17429  0.00866  0.93969  1.0000
  H   H16       1.0  0.82571  0.99134  0.06031  1.0000
  H   H17       1.0  0.34131  0.82330  0.01771  1.0000
  H   H18       1.0  0.65869  0.17670  0.98229  1.0000
  H   H19       1.0  0.41121  0.44318  0.32377  1.0000
  H   H20       1.0  0.58879  0.55682  0.67623  1.0000
  H   H21       1.0  0.22499  0.62526  0.28602  1.0000
  H   H22       1.0  0.77501  0.37474  0.71398  1.0000
  H   H23       1.0  0.50862  0.83547  0.17043  1.0000
  H   H24       1.0  0.49138  0.16453  0.82957  1.0000
  H   H25       1.0  0.70786  0.66035  0.20344  1.0000
  H   H26       1.0  0.29214  0.33965  0.79656  1.0000
  H   H27       1.0  0.02911  0.25050  0.91764  1.0000
  H   H28       1.0  0.97089  0.74950  0.08235  1.0000
  H   H29       1.0  0.87374  0.32611  0.08251  1.0000
  H   H30       1.0  0.12626  0.67389  0.91749  1.0000
  H   H31       1.0  0.71272  0.53083  0.05489  1.0000
  H   H32       1.0  0.28728  0.46917  0.94511  1.0000
  H   H33       1.0  0.66140  0.96647  0.87553  1.0000
  H   H34       1.0  0.33860  0.03353  0.12447  1.0000
  H   H35       1.0  0.82452  0.76305  0.90002  1.0000
  H   H36       1.0  0.17548  0.23695  0.09998  1.0000
  H   H37       1.0  0.54190  0.61534  0.83750  1.0000
  H   H38       1.0  0.45810  0.38466  0.16251  1.0000
  H   H39       1.0  0.36830  0.81189  0.80561  1.0000
  H   H40       1.0  0.63170  0.18811  0.19439  1.0000
  C   C1        1.0  0.13818  0.85032  0.37514  1.0000
  C   C2        1.0  0.86183  0.14968  0.62486  1.0000
  C   C3        1.0  0.96272  0.09746  0.27867  1.0000
  C   C4        1.0  0.03728  0.90254  0.72133  1.0000
  C   C5        1.0  0.14824  0.90230  0.25527  1.0000
  C   C6        1.0  0.85176  0.09770  0.74473  1.0000
  C   C7        1.0  0.05819  0.01004  0.21105  1.0000
  C   C8        1.0  0.94181  0.98996  0.78895  1.0000
  C   C9        1.0  0.06732  0.04546  0.09810  1.0000
  C   C10       1.0  0.93268  0.95454  0.90190  1.0000
  C   C11       1.0  0.16630  0.97894  0.02755  1.0000
  C   C12       1.0  0.83370  0.02106  0.97245  1.0000
  C   C13       1.0  0.26010  0.87572  0.07066  1.0000
  C   C14       1.0  0.73990  0.12428  0.92934  1.0000
  C   C15       1.0  0.25184  0.83888  0.18311  1.0000
  C   C16       1.0  0.74816  0.16112  0.81689  1.0000
  C   C17       1.0  0.43964  0.52648  0.28653  1.0000
  C   C18       1.0  0.56036  0.47352  0.71347  1.0000
  C   C19       1.0  0.33376  0.62709  0.26630  1.0000
  C   C20       1.0  0.66624  0.37291  0.73370  1.0000
  C   C21       1.0  0.49419  0.74556  0.19935  1.0000
  C   C22       1.0  0.50581  0.25444  0.80065  1.0000
  C   C23       1.0  0.60361  0.64767  0.21837  1.0000
  C   C24       1.0  0.39639  0.35233  0.78163  1.0000
  C   C25       1.0  0.58241  0.53080  0.26095  1.0000
  C   C26       1.0  0.41759  0.46920  0.73905  1.0000
  C   C27       1.0  0.52368  0.70023  0.49274  1.0000
  C   C28       1.0  0.47632  0.29977  0.50726  1.0000
  C   C29       1.0  0.48261  0.80889  0.54738  1.0000
  C   C30       1.0  0.51739  0.19111  0.45262  1.0000
  C   C31       1.0  0.88810  0.61803  0.68402  1.0000
  C   C32       1.0  0.11190  0.38197  0.31598  1.0000
  C   C33       1.0  0.04928  0.35476  0.71267  1.0000
  C   C34       1.0  0.95072  0.64524  0.28733  1.0000
  C   C35       1.0  0.87715  0.52937  0.79091  1.0000
  C   C36       1.0  0.12285  0.47063  0.20909  1.0000
  C   C37       1.0  0.96298  0.41198  0.80581  1.0000
  C   C38       1.0  0.03702  0.58802  0.19419  1.0000
  C   C39       1.0  0.96084  0.34061  0.91064  1.0000
  C   C40       1.0  0.03917  0.65939  0.08936  1.0000
  C   C41       1.0  0.87405  0.38216  0.00117  1.0000
  C   C42       1.0  0.12595  0.61784  0.99883  1.0000
  C   C43       1.0  0.78387  0.49630  0.98617  1.0000
  C   C44       1.0  0.21613  0.50370  0.01383  1.0000
  C   C45       1.0  0.78563  0.56750  0.88208  1.0000
  C   C46       1.0  0.21437  0.43250  0.11792  1.0000
  C   C47       1.0  0.63193  0.89159  0.86480  1.0000
  C   C48       1.0  0.36807  0.10841  0.13520  1.0000
  C   C49       1.0  0.72212  0.78090  0.87951  1.0000
  C   C50       1.0  0.27788  0.21910  0.12049  1.0000
  C   C51       1.0  0.56155  0.69715  0.84302  1.0000
  C   C52       1.0  0.43845  0.30285  0.15698  1.0000
  C   C53       1.0  0.46773  0.80589  0.82595  1.0000
  C   C54       1.0  0.53227  0.19411  0.17405  1.0000
  C   C55       1.0  0.49970  0.91189  0.83337  1.0000
  C   C56       1.0  0.50030  0.08811  0.16663  1.0000
  N   N1        1.0  0.35985  0.73568  0.22074  1.0000
  N   N2        1.0  0.64015  0.26432  0.77927  1.0000
  N   N3        1.0  0.68861  0.68395  0.86794  1.0000
  N   N4        1.0  0.31140  0.31605  0.13206  1.0000
  O   O1        1.0  0.03894  0.80223  0.42329  1.0000
  O   O2        1.0  0.96106  0.19777  0.57671  1.0000
  O   O3        1.0  0.23538  0.84657  0.42116  1.0000
  O   O4        1.0  0.76463  0.15343  0.57884  1.0000
  O   O5        1.0  0.96751  0.07992  0.37986  1.0000
  O   O6        1.0  0.03249  0.92008  0.62014  1.0000
  O   O7        1.0  0.88321  0.19189  0.23260  1.0000
  O   O8        1.0  0.11679  0.80811  0.76740  1.0000
  O   O9        1.0  0.68513  0.43739  0.27384  1.0000
  O   O10       1.0  0.31487  0.56261  0.72616  1.0000
  O   O11       1.0  0.43359  0.64551  0.50332  1.0000
  O   O12       1.0  0.56641  0.35449  0.49667  1.0000
  O   O13       1.0  0.64966  0.67282  0.44335  1.0000
  O   O14       1.0  0.35034  0.32718  0.55665  1.0000
  O   O15       1.0  0.35784  0.83458  0.59957  1.0000
  O   O16       1.0  0.64216  0.16542  0.40044  1.0000
  O   O17       1.0  0.57403  0.86153  0.53884  1.0000
  O   O18       1.0  0.42597  0.13847  0.46116  1.0000
  O   O19       1.0  0.98650  0.66763  0.66575  1.0000
  O   O20       1.0  0.01350  0.33237  0.33425  1.0000
  O   O21       1.0  0.79840  0.64174  0.62417  1.0000
  O   O22       1.0  0.20160  0.35826  0.37583  1.0000
  O   O23       1.0  0.03783  0.40757  0.61421  1.0000
  O   O24       1.0  0.96217  0.59243  0.38579  1.0000
  O   O25       1.0  0.12728  0.24963  0.73514  1.0000
  O   O26       1.0  0.87272  0.75037  0.26485  1.0000
  O   O27       1.0  0.41726  0.01576  0.81539  1.0000
  O   O28       1.0  0.58274  0.98424  0.18461  1.0000
  O   O29       1.0  0.20828  0.55932  0.52021  1.0000
  O   O30       1.0  0.79172  0.44068  0.47979  1.0000
  O   O31       1.0  0.73555  0.96185  0.32891  1.0000
  O   O32       1.0  0.26445  0.03815  0.67109  1.0000
  O   O33       1.0  0.80186  0.91291  0.56375  1.0000
  O   O34       1.0  0.19814  0.08709  0.43625  1.0000
