data_image0
_chemical_formula_structural       Sm4H40C56N4O34
_chemical_formula_sum              "Sm4 H40 C56 N4 O34"
_cell_length_a       10.1616
_cell_length_b       12.313
_cell_length_c       13.1801
_cell_angle_alpha    73.266
_cell_angle_beta     74.3786
_cell_angle_gamma    70.3543

_space_group_name_H-M_alt    "P 1"
_space_group_IT_number       1

loop_
  _space_group_symop_operation_xyz
  'x, y, z'

loop_
  _atom_site_type_symbol
  _atom_site_label
  _atom_site_symmetry_multiplicity
  _atom_site_fract_x
  _atom_site_fract_y
  _atom_site_fract_z
  _atom_site_occupancy
  Sm  Sm1       1.0  0.80533  0.28247  0.40253  1.0000
  Sm  Sm2       1.0  0.19466  0.71753  0.59747  1.0000
  Sm  Sm3       1.0  0.18724  0.21857  0.54597  1.0000
  Sm  Sm4       1.0  0.81276  0.78143  0.45403  1.0000
  H   H1        1.0  0.28603  0.01669  0.42568  1.0000
  H   H2        1.0  0.71397  0.98331  0.57432  1.0000
  H   H3        1.0  0.12317  0.07132  0.42247  1.0000
  H   H4        1.0  0.87683  0.92868  0.57753  1.0000
  H   H5        1.0  0.31106  0.03179  0.72655  1.0000
  H   H6        1.0  0.68894  0.96821  0.27345  1.0000
  H   H7        1.0  0.30223  0.96088  0.64344  1.0000
  H   H8        1.0  0.69777  0.03912  0.35656  1.0000
  H   H9        1.0  0.87298  0.46485  0.47556  1.0000
  H   H10       1.0  0.12702  0.53515  0.52444  1.0000
  H   H11       1.0  0.71537  0.52011  0.46759  1.0000
  H   H12       1.0  0.28463  0.47988  0.53241  1.0000
  H   H13       1.0  0.00681  0.86757  0.92844  1.0000
  H   H14       1.0  0.99319  0.13243  0.07156  1.0000
  H   H15       1.0  0.83278  0.99020  0.05623  1.0000
  H   H16       1.0  0.16722  0.00980  0.94377  1.0000
  H   H17       1.0  0.66036  0.17691  0.98157  1.0000
  H   H18       1.0  0.33964  0.82309  0.01843  1.0000
  H   H19       1.0  0.57370  0.55499  0.68442  1.0000
  H   H20       1.0  0.42630  0.44501  0.31558  1.0000
  H   H21       1.0  0.76674  0.37420  0.72342  1.0000
  H   H22       1.0  0.23326  0.62580  0.27658  1.0000
  H   H23       1.0  0.48730  0.16317  0.82531  1.0000
  H   H24       1.0  0.51269  0.83683  0.17469  1.0000
  H   H25       1.0  0.28114  0.33671  0.79196  1.0000
  H   H26       1.0  0.71886  0.66329  0.20804  1.0000
  H   H27       1.0  0.96557  0.74855  0.08695  1.0000
  H   H28       1.0  0.03443  0.25145  0.91305  1.0000
  H   H29       1.0  0.10943  0.66904  0.92168  1.0000
  H   H30       1.0  0.89057  0.33096  0.07832  1.0000
  H   H31       1.0  0.27045  0.46317  0.94731  1.0000
  H   H32       1.0  0.72955  0.53683  0.05269  1.0000
  H   H33       1.0  0.34364  0.03575  0.12438  1.0000
  H   H34       1.0  0.65636  0.96426  0.87562  1.0000
  H   H35       1.0  0.17474  0.23801  0.09981  1.0000
  H   H36       1.0  0.82526  0.76199  0.90019  1.0000
  H   H37       1.0  0.45266  0.37899  0.16682  1.0000
  H   H38       1.0  0.54734  0.62101  0.83318  1.0000
  H   H39       1.0  0.63183  0.18377  0.19884  1.0000
  H   H40       1.0  0.36817  0.81623  0.80116  1.0000
  C   C1        1.0  0.85240  0.14685  0.62562  1.0000
  C   C2        1.0  0.14760  0.85315  0.37438  1.0000
  C   C3        1.0  0.02764  0.89853  0.71938  1.0000
  C   C4        1.0  0.97236  0.10147  0.28061  1.0000
  C   C5        1.0  0.84675  0.09557  0.74447  1.0000
  C   C6        1.0  0.15325  0.90443  0.25553  1.0000
  C   C7        1.0  0.93782  0.98651  0.78719  1.0000
  C   C8        1.0  0.06218  0.01349  0.21281  1.0000
  C   C9        1.0  0.93333  0.95141  0.89869  1.0000
  C   C10       1.0  0.06667  0.04860  0.10131  1.0000
  C   C11       1.0  0.83712  0.01948  0.96945  1.0000
  C   C12       1.0  0.16288  0.98052  0.03055  1.0000
  C   C13       1.0  0.74064  0.12370  0.92819  1.0000
  C   C14       1.0  0.25936  0.87630  0.07181  1.0000
  C   C15       1.0  0.74495  0.16015  0.81715  1.0000
  C   C16       1.0  0.25505  0.83985  0.18285  1.0000
  C   C17       1.0  0.54740  0.47166  0.71903  1.0000
  C   C18       1.0  0.45260  0.52834  0.28097  1.0000
  C   C19       1.0  0.65694  0.37197  0.73960  1.0000
  C   C20       1.0  0.34306  0.62803  0.26040  1.0000
  C   C21       1.0  0.49873  0.25268  0.79876  1.0000
  C   C22       1.0  0.50127  0.74732  0.20124  1.0000
  C   C23       1.0  0.38562  0.34970  0.77956  1.0000
  C   C24       1.0  0.61438  0.65030  0.22044  1.0000
  C   C25       1.0  0.40374  0.46609  0.73989  1.0000
  C   C26       1.0  0.59626  0.53391  0.26011  1.0000
  C   C27       1.0  0.47479  0.29833  0.50601  1.0000
  C   C28       1.0  0.52521  0.70167  0.49399  1.0000
  C   C29       1.0  0.52142  0.19336  0.44983  1.0000
  C   C30       1.0  0.47858  0.80664  0.55017  1.0000
  C   C31       1.0  0.12348  0.38446  0.32071  1.0000
  C   C32       1.0  0.87651  0.61554  0.67929  1.0000
  C   C33       1.0  0.95780  0.64638  0.29162  1.0000
  C   C34       1.0  0.04220  0.35362  0.70838  1.0000
  C   C35       1.0  0.12331  0.47035  0.21257  1.0000
  C   C36       1.0  0.87669  0.52965  0.78743  1.0000
  C   C37       1.0  0.03737  0.58803  0.19849  1.0000
  C   C38       1.0  0.96263  0.41197  0.80151  1.0000
  C   C39       1.0  0.03315  0.65781  0.09378  1.0000
  C   C40       1.0  0.96685  0.34219  0.90622  1.0000
  C   C41       1.0  0.11319  0.61407  0.00282  1.0000
  C   C42       1.0  0.88681  0.38593  0.99718  1.0000
  C   C43       1.0  0.20338  0.49906  0.01659  1.0000
  C   C44       1.0  0.79662  0.50094  0.98341  1.0000
  C   C45       1.0  0.20829  0.42969  0.12045  1.0000
  C   C46       1.0  0.79171  0.57032  0.87955  1.0000
  C   C47       1.0  0.37136  0.10873  0.13581  1.0000
  C   C48       1.0  0.62864  0.89127  0.86419  1.0000
  C   C49       1.0  0.27785  0.21893  0.12093  1.0000
  C   C50       1.0  0.72215  0.78107  0.87907  1.0000
  C   C51       1.0  0.43558  0.29883  0.16034  1.0000
  C   C52       1.0  0.56442  0.70117  0.83966  1.0000
  C   C53       1.0  0.53260  0.19068  0.17732  1.0000
  C   C54       1.0  0.46740  0.80932  0.82268  1.0000
  C   C55       1.0  0.50349  0.08670  0.16941  1.0000
  C   C56       1.0  0.49651  0.91330  0.83059  1.0000
  N   N1        1.0  0.63364  0.26343  0.78095  1.0000
  N   N2        1.0  0.36636  0.73657  0.21905  1.0000
  N   N3        1.0  0.30819  0.31359  0.13404  1.0000
  N   N4        1.0  0.69181  0.68641  0.86596  1.0000
  O   O1        1.0  0.75401  0.14871  0.58331  1.0000
  O   O2        1.0  0.24599  0.85129  0.41669  1.0000
  O   O3        1.0  0.94984  0.19716  0.57333  1.0000
  O   O4        1.0  0.05016  0.80284  0.42667  1.0000
  O   O5        1.0  0.02441  0.92199  0.61862  1.0000
  O   O6        1.0  0.97559  0.07801  0.38138  1.0000
  O   O7        1.0  0.10053  0.79870  0.76488  1.0000
  O   O8        1.0  0.89947  0.20130  0.23512  1.0000
  O   O9        1.0  0.29758  0.55831  0.72515  1.0000
  O   O10       1.0  0.70242  0.44169  0.27485  1.0000
  O   O11       1.0  0.56261  0.35452  0.49408  1.0000
  O   O12       1.0  0.43740  0.64548  0.50592  1.0000
  O   O13       1.0  0.34714  0.32201  0.55839  1.0000
  O   O14       1.0  0.65286  0.67799  0.44161  1.0000
  O   O15       1.0  0.64837  0.17043  0.39576  1.0000
  O   O16       1.0  0.35163  0.82957  0.60424  1.0000
  O   O17       1.0  0.43152  0.13985  0.45972  1.0000
  O   O18       1.0  0.56848  0.86015  0.54028  1.0000
  O   O19       1.0  0.22088  0.36452  0.37189  1.0000
  O   O20       1.0  0.77912  0.63548  0.62811  1.0000
  O   O21       1.0  0.02743  0.33094  0.35135  1.0000
  O   O22       1.0  0.97257  0.66906  0.64865  1.0000
  O   O23       1.0  0.96999  0.59186  0.38879  1.0000
  O   O24       1.0  0.03001  0.40814  0.61121  1.0000
  O   O25       1.0  0.88378  0.75372  0.26940  1.0000
  O   O26       1.0  0.11622  0.24629  0.73060  1.0000
  O   O27       1.0  0.58808  0.98330  0.18934  1.0000
  O   O28       1.0  0.41192  0.01670  0.81066  1.0000
  O   O29       1.0  0.20708  0.08701  0.43433  1.0000
  O   O30       1.0  0.79292  0.91299  0.56567  1.0000
  O   O31       1.0  0.26020  0.03668  0.66830  1.0000
  O   O32       1.0  0.73980  0.96332  0.33170  1.0000
  O   O33       1.0  0.78581  0.44234  0.48505  1.0000
  O   O34       1.0  0.21419  0.55766  0.51495  1.0000
