data_image0
_chemical_formula_structural       Nd4H40C56N4O34
_chemical_formula_sum              "Nd4 H40 C56 N4 O34"
_cell_length_a       10.1925
_cell_length_b       12.417
_cell_length_c       13.2659
_cell_angle_alpha    72.4177
_cell_angle_beta     73.387
_cell_angle_gamma    69.8419

_space_group_name_H-M_alt    "P 1"
_space_group_IT_number       1

loop_
  _space_group_symop_operation_xyz
  'x, y, z'

loop_
  _atom_site_type_symbol
  _atom_site_label
  _atom_site_symmetry_multiplicity
  _atom_site_fract_x
  _atom_site_fract_y
  _atom_site_fract_z
  _atom_site_occupancy
  Nd  Nd1       1.0  0.80934  0.78387  0.40351  1.0000
  Nd  Nd2       1.0  0.19066  0.21613  0.59649  1.0000
  Nd  Nd3       1.0  0.18437  0.71973  0.54173  1.0000
  Nd  Nd4       1.0  0.81564  0.28027  0.45827  1.0000
  H   H1        1.0  0.87189  0.96191  0.48473  1.0000
  H   H2        1.0  0.12811  0.03810  0.51527  1.0000
  H   H3        1.0  0.71805  0.02416  0.46695  1.0000
  H   H4        1.0  0.28195  0.97584  0.53305  1.0000
  H   H5        1.0  0.30881  0.53033  0.72477  1.0000
  H   H6        1.0  0.69119  0.46967  0.27523  1.0000
  H   H7        1.0  0.29832  0.45911  0.64469  1.0000
  H   H8        1.0  0.70169  0.54089  0.35531  1.0000
  H   H9        1.0  0.28626  0.50831  0.42927  1.0000
  H   H10       1.0  0.71374  0.49168  0.57073  1.0000
  H   H11       1.0  0.12663  0.56960  0.42119  1.0000
  H   H12       1.0  0.87337  0.43040  0.57881  1.0000
  H   H13       1.0  0.00463  0.36625  0.92925  1.0000
  H   H14       1.0  0.99537  0.63375  0.07075  1.0000
  H   H15       1.0  0.83539  0.49109  0.05668  1.0000
  H   H16       1.0  0.16461  0.50891  0.94332  1.0000
  H   H17       1.0  0.66116  0.67733  0.98306  1.0000
  H   H18       1.0  0.33884  0.32267  0.01694  1.0000
  H   H19       1.0  0.56110  0.05335  0.69198  1.0000
  H   H20       1.0  0.43891  0.94665  0.30802  1.0000
  H   H21       1.0  0.75717  0.87470  0.73159  1.0000
  H   H22       1.0  0.24283  0.12530  0.26841  1.0000
  H   H23       1.0  0.48601  0.65870  0.82301  1.0000
  H   H24       1.0  0.51399  0.34130  0.17699  1.0000
  H   H25       1.0  0.27765  0.82988  0.78983  1.0000
  H   H26       1.0  0.72234  0.17012  0.21017  1.0000
  H   H27       1.0  0.96199  0.24558  0.08884  1.0000
  H   H28       1.0  0.03801  0.75442  0.91116  1.0000
  H   H29       1.0  0.09750  0.16415  0.92351  1.0000
  H   H30       1.0  0.90250  0.83585  0.07649  1.0000
  H   H31       1.0  0.25914  0.95898  0.94843  1.0000
  H   H32       1.0  0.74086  0.04102  0.05157  1.0000
  H   H33       1.0  0.35096  0.53607  0.12047  1.0000
  H   H34       1.0  0.64904  0.46393  0.87953  1.0000
  H   H35       1.0  0.17919  0.73693  0.09646  1.0000
  H   H36       1.0  0.82081  0.26307  0.90354  1.0000
  H   H37       1.0  0.44830  0.87699  0.16949  1.0000
  H   H38       1.0  0.55170  0.12301  0.83051  1.0000
  H   H39       1.0  0.62912  0.68257  0.20152  1.0000
  H   H40       1.0  0.37088  0.31742  0.79848  1.0000
  C   C1        1.0  0.84529  0.64422  0.62783  1.0000
  C   C2        1.0  0.15471  0.35578  0.37217  1.0000
  C   C3        1.0  0.02006  0.39661  0.72106  1.0000
  C   C4        1.0  0.97994  0.60339  0.27894  1.0000
  C   C5        1.0  0.84105  0.59329  0.74651  1.0000
  C   C6        1.0  0.15895  0.40671  0.25349  1.0000
  C   C7        1.0  0.93275  0.48448  0.78882  1.0000
  C   C8        1.0  0.06725  0.51552  0.21118  1.0000
  C   C9        1.0  0.93098  0.45016  0.89979  1.0000
  C   C10       1.0  0.06902  0.54984  0.10021  1.0000
  C   C11       1.0  0.83728  0.51939  0.97029  1.0000
  C   C12       1.0  0.16272  0.48061  0.02971  1.0000
  C   C13       1.0  0.73987  0.62332  0.92969  1.0000
  C   C14       1.0  0.26013  0.37668  0.07031  1.0000
  C   C15       1.0  0.74094  0.65862  0.81926  1.0000
  C   C16       1.0  0.25906  0.34138  0.18074  1.0000
  C   C17       1.0  0.53730  0.96921  0.72491  1.0000
  C   C18       1.0  0.46270  0.03079  0.27509  1.0000
  C   C19       1.0  0.64847  0.87072  0.74541  1.0000
  C   C20       1.0  0.35153  0.12928  0.25459  1.0000
  C   C21       1.0  0.49511  0.74851  0.79867  1.0000
  C   C22       1.0  0.50489  0.25150  0.20133  1.0000
  C   C23       1.0  0.38047  0.84432  0.77970  1.0000
  C   C24       1.0  0.61952  0.15568  0.22030  1.0000
  C   C25       1.0  0.39525  0.96134  0.74297  1.0000
  C   C26       1.0  0.60475  0.03866  0.25703  1.0000
  C   C27       1.0  0.47432  0.79871  0.50500  1.0000
  C   C28       1.0  0.52568  0.20129  0.49500  1.0000
  C   C29       1.0  0.52371  0.69432  0.44909  1.0000
  C   C30       1.0  0.47629  0.30568  0.55091  1.0000
  C   C31       1.0  0.13507  0.88627  0.32363  1.0000
  C   C32       1.0  0.86493  0.11373  0.67637  1.0000
  C   C33       1.0  0.96361  0.14566  0.29335  1.0000
  C   C34       1.0  0.03639  0.85434  0.70665  1.0000
  C   C35       1.0  0.12547  0.96926  0.21449  1.0000
  C   C36       1.0  0.87453  0.03074  0.78551  1.0000
  C   C37       1.0  0.03905  0.08660  0.20045  1.0000
  C   C38       1.0  0.96095  0.91341  0.79955  1.0000
  C   C39       1.0  0.02962  0.15503  0.09568  1.0000
  C   C40       1.0  0.97038  0.84497  0.90432  1.0000
  C   C41       1.0  0.10481  0.11009  0.00469  1.0000
  C   C42       1.0  0.89519  0.88991  0.99531  1.0000
  C   C43       1.0  0.19538  0.99542  0.01809  1.0000
  C   C44       1.0  0.80462  0.00458  0.98191  1.0000
  C   C45       1.0  0.20585  0.92730  0.12188  1.0000
  C   C46       1.0  0.79415  0.07270  0.87812  1.0000
  C   C47       1.0  0.37558  0.60854  0.13380  1.0000
  C   C48       1.0  0.62442  0.39146  0.86620  1.0000
  C   C49       1.0  0.28081  0.71806  0.11899  1.0000
  C   C50       1.0  0.71919  0.28194  0.88100  1.0000
  C   C51       1.0  0.43332  0.79735  0.16202  1.0000
  C   C52       1.0  0.56667  0.20265  0.83798  1.0000
  C   C53       1.0  0.53118  0.68980  0.17906  1.0000
  C   C54       1.0  0.46882  0.31020  0.82094  1.0000
  C   C55       1.0  0.50471  0.58624  0.17049  1.0000
  C   C56       1.0  0.49529  0.41376  0.82951  1.0000
  N   N1        1.0  0.62831  0.76124  0.78372  1.0000
  N   N2        1.0  0.37169  0.23876  0.21628  1.0000
  N   N3        1.0  0.30735  0.81204  0.13459  1.0000
  N   N4        1.0  0.69265  0.18796  0.86540  1.0000
  O   O1        1.0  0.94260  0.69471  0.57381  1.0000
  O   O2        1.0  0.05740  0.30529  0.42619  1.0000
  O   O3        1.0  0.74673  0.64637  0.58692  1.0000
  O   O4        1.0  0.25327  0.35363  0.41308  1.0000
  O   O5        1.0  0.01996  0.42283  0.61988  1.0000
  O   O6        1.0  0.98004  0.57717  0.38012  1.0000
  O   O7        1.0  0.08764  0.29455  0.76701  1.0000
  O   O8        1.0  0.91236  0.70545  0.23299  1.0000
  O   O9        1.0  0.28767  0.05246  0.72809  1.0000
  O   O10       1.0  0.71233  0.94754  0.27191  1.0000
  O   O11       1.0  0.56072  0.85594  0.49176  1.0000
  O   O12       1.0  0.43928  0.14406  0.50824  1.0000
  O   O13       1.0  0.34629  0.82099  0.55837  1.0000
  O   O14       1.0  0.65371  0.17901  0.44163  1.0000
  O   O15       1.0  0.65150  0.67268  0.39439  1.0000
  O   O16       1.0  0.34850  0.32732  0.60562  1.0000
  O   O17       1.0  0.43542  0.63998  0.45948  1.0000
  O   O18       1.0  0.56458  0.36002  0.54052  1.0000
  O   O19       1.0  0.04272  0.82846  0.36597  1.0000
  O   O20       1.0  0.95728  0.17154  0.63403  1.0000
  O   O21       1.0  0.23780  0.87082  0.36642  1.0000
  O   O22       1.0  0.76220  0.12918  0.63358  1.0000
  O   O23       1.0  0.97726  0.09064  0.39008  1.0000
  O   O24       1.0  0.02274  0.90936  0.60992  1.0000
  O   O25       1.0  0.89110  0.25323  0.27091  1.0000
  O   O26       1.0  0.10890  0.74677  0.72909  1.0000
  O   O27       1.0  0.58926  0.48328  0.19209  1.0000
  O   O28       1.0  0.41074  0.51672  0.80791  1.0000
  O   O29       1.0  0.78424  0.94455  0.48694  1.0000
  O   O30       1.0  0.21577  0.05545  0.51306  1.0000
  O   O31       1.0  0.25605  0.53452  0.66906  1.0000
  O   O32       1.0  0.74395  0.46548  0.33094  1.0000
  O   O33       1.0  0.21170  0.58235  0.43293  1.0000
  O   O34       1.0  0.78830  0.41764  0.56707  1.0000
