data_image0
_chemical_formula_structural       Yb4H40C56N4O34
_chemical_formula_sum              "Yb4 H40 C56 N4 O34"
_cell_length_a       10.1976
_cell_length_b       11.8662
_cell_length_c       12.7393
_cell_angle_alpha    75.9926
_cell_angle_beta     77.0442
_cell_angle_gamma    72.3442

_space_group_name_H-M_alt    "P 1"
_space_group_IT_number       1

loop_
  _space_group_symop_operation_xyz
  'x, y, z'

loop_
  _atom_site_type_symbol
  _atom_site_label
  _atom_site_symmetry_multiplicity
  _atom_site_fract_x
  _atom_site_fract_y
  _atom_site_fract_z
  _atom_site_occupancy
  Yb  Yb1       1.0  0.80114  0.78031  0.44967  1.0000
  Yb  Yb2       1.0  0.19887  0.21969  0.55033  1.0000
  Yb  Yb3       1.0  0.21141  0.71869  0.60659  1.0000
  Yb  Yb4       1.0  0.78859  0.28131  0.39341  1.0000
  H   H1        1.0  0.68489  0.95757  0.27043  1.0000
  H   H2        1.0  0.31511  0.04243  0.72957  1.0000
  H   H3        1.0  0.69098  0.03050  0.36037  1.0000
  H   H4        1.0  0.30902  0.96950  0.63962  1.0000
  H   H5        1.0  0.89294  0.92067  0.57172  1.0000
  H   H6        1.0  0.10706  0.07933  0.42828  1.0000
  H   H7        1.0  0.74170  0.99462  0.55386  1.0000
  H   H8        1.0  0.25830  0.00537  0.44614  1.0000
  H   H9        1.0  0.12396  0.53916  0.53628  1.0000
  H   H10       1.0  0.87604  0.46084  0.46372  1.0000
  H   H11       1.0  0.28293  0.49298  0.52933  1.0000
  H   H12       1.0  0.71707  0.50702  0.47067  1.0000
  H   H13       1.0  0.99352  0.13119  0.06659  1.0000
  H   H14       1.0  0.00648  0.86881  0.93340  1.0000
  H   H15       1.0  0.17880  0.01238  0.93874  1.0000
  H   H16       1.0  0.82120  0.98762  0.06126  1.0000
  H   H17       1.0  0.34271  0.82402  0.01865  1.0000
  H   H18       1.0  0.65729  0.17598  0.98135  1.0000
  H   H19       1.0  0.39804  0.43797  0.32654  1.0000
  H   H20       1.0  0.60196  0.56203  0.67346  1.0000
  H   H21       1.0  0.21475  0.62468  0.28954  1.0000
  H   H22       1.0  0.78525  0.37533  0.71045  1.0000
  H   H23       1.0  0.50567  0.82877  0.17192  1.0000
  H   H24       1.0  0.49433  0.17123  0.82808  1.0000
  H   H25       1.0  0.70211  0.64865  0.20413  1.0000
  H   H26       1.0  0.29789  0.35135  0.79587  1.0000
  H   H27       1.0  0.02701  0.24819  0.91119  1.0000
  H   H28       1.0  0.97299  0.75181  0.08881  1.0000
  H   H29       1.0  0.85462  0.31900  0.07419  1.0000
  H   H30       1.0  0.14538  0.68100  0.92581  1.0000
  H   H31       1.0  0.69383  0.52605  0.04554  1.0000
  H   H32       1.0  0.30617  0.47395  0.95446  1.0000
  H   H33       1.0  0.35875  0.81681  0.81365  1.0000
  H   H34       1.0  0.64125  0.18319  0.18635  1.0000
  H   H35       1.0  0.53122  0.61701  0.84497  1.0000
  H   H36       1.0  0.46878  0.38299  0.15503  1.0000
  H   H37       1.0  0.83444  0.76738  0.87945  1.0000
  H   H38       1.0  0.16556  0.23262  0.12055  1.0000
  H   H39       1.0  0.67304  0.97396  0.85598  1.0000
  H   H40       1.0  0.32696  0.02604  0.14402  1.0000
  C   C1        1.0  0.12170  0.84397  0.37690  1.0000
  C   C2        1.0  0.87830  0.15603  0.62310  1.0000
  C   C3        1.0  0.95204  0.09725  0.28002  1.0000
  C   C4        1.0  0.04796  0.90275  0.71998  1.0000
  C   C5        1.0  0.13972  0.90004  0.25692  1.0000
  C   C6        1.0  0.86027  0.09996  0.74308  1.0000
  C   C7        1.0  0.05093  0.00958  0.21183  1.0000
  C   C8        1.0  0.94907  0.99042  0.78817  1.0000
  C   C9        1.0  0.06490  0.04710  0.09794  1.0000
  C   C10       1.0  0.93510  0.95290  0.90206  1.0000
  C   C11       1.0  0.16708  0.98110  0.02721  1.0000
  C   C12       1.0  0.83292  0.01890  0.97279  1.0000
  C   C13       1.0  0.25913  0.87618  0.07138  1.0000
  C   C14       1.0  0.74088  0.12381  0.92862  1.0000
  C   C15       1.0  0.24635  0.83715  0.18482  1.0000
  C   C16       1.0  0.75365  0.16285  0.81518  1.0000
  C   C17       1.0  0.42855  0.52082  0.28928  1.0000
  C   C18       1.0  0.57145  0.47919  0.71072  1.0000
  C   C19       1.0  0.32425  0.62399  0.26931  1.0000
  C   C20       1.0  0.67575  0.37601  0.73069  1.0000
  C   C21       1.0  0.48873  0.73893  0.20093  1.0000
  C   C22       1.0  0.51127  0.26108  0.79908  1.0000
  C   C23       1.0  0.59658  0.63832  0.21956  1.0000
  C   C24       1.0  0.40342  0.36169  0.78044  1.0000
  C   C25       1.0  0.57223  0.52198  0.26278  1.0000
  C   C26       1.0  0.42777  0.47803  0.73722  1.0000
  C   C27       1.0  0.52364  0.69768  0.49440  1.0000
  C   C28       1.0  0.47637  0.30232  0.50560  1.0000
  C   C29       1.0  0.48408  0.81060  0.54539  1.0000
  C   C30       1.0  0.51592  0.18940  0.45461  1.0000
  C   C31       1.0  0.90445  0.62508  0.68274  1.0000
  C   C32       1.0  0.09555  0.37492  0.31726  1.0000
  C   C33       1.0  0.06241  0.35905  0.70803  1.0000
  C   C34       1.0  0.93758  0.64095  0.29197  1.0000
  C   C35       1.0  0.88469  0.53371  0.78714  1.0000
  C   C36       1.0  0.11531  0.46629  0.21286  1.0000
  C   C37       1.0  0.96999  0.41476  0.80170  1.0000
  C   C38       1.0  0.03001  0.58524  0.19830  1.0000
  C   C39       1.0  0.95841  0.33919  0.90472  1.0000
  C   C40       1.0  0.04159  0.66081  0.09528  1.0000
  C   C41       1.0  0.86177  0.37763  0.99372  1.0000
  C   C42       1.0  0.13823  0.62237  0.00628  1.0000
  C   C43       1.0  0.77193  0.49307  0.97834  1.0000
  C   C44       1.0  0.22807  0.50692  0.02166  1.0000
  C   C45       1.0  0.78374  0.56875  0.87612  1.0000
  C   C46       1.0  0.21626  0.43125  0.12389  1.0000
  C   C47       1.0  0.46204  0.81055  0.82886  1.0000
  C   C48       1.0  0.53796  0.18945  0.17114  1.0000
  C   C49       1.0  0.55525  0.70010  0.84538  1.0000
  C   C50       1.0  0.44476  0.29990  0.15462  1.0000
  C   C51       1.0  0.72785  0.78541  0.86570  1.0000
  C   C52       1.0  0.27215  0.21459  0.13430  1.0000
  C   C53       1.0  0.63843  0.89754  0.85201  1.0000
  C   C54       1.0  0.36157  0.10246  0.14799  1.0000
  C   C55       1.0  0.49977  0.91776  0.83070  1.0000
  C   C56       1.0  0.50024  0.08224  0.16930  1.0000
  N   N1        1.0  0.35302  0.73193  0.22313  1.0000
  N   N2        1.0  0.64698  0.26807  0.77687  1.0000
  N   N3        1.0  0.68743  0.68674  0.86240  1.0000
  N   N4        1.0  0.31257  0.31326  0.13760  1.0000
  O   O1        1.0  0.01785  0.80056  0.41480  1.0000
  O   O2        1.0  0.98215  0.19944  0.58520  1.0000
  O   O3        1.0  0.21661  0.83380  0.43031  1.0000
  O   O4        1.0  0.78339  0.16620  0.56969  1.0000
  O   O5        1.0  0.95960  0.08449  0.38130  1.0000
  O   O6        1.0  0.04040  0.91551  0.61870  1.0000
  O   O7        1.0  0.86667  0.18899  0.23426  1.0000
  O   O8        1.0  0.13333  0.81101  0.76574  1.0000
  O   O9        1.0  0.67359  0.42604  0.27543  1.0000
  O   O10       1.0  0.32641  0.57396  0.72457  1.0000
  O   O11       1.0  0.65061  0.66585  0.44892  1.0000
  O   O12       1.0  0.34939  0.33415  0.55108  1.0000
  O   O13       1.0  0.43128  0.64457  0.50427  1.0000
  O   O14       1.0  0.56872  0.35542  0.49573  1.0000
  O   O15       1.0  0.57731  0.86206  0.53776  1.0000
  O   O16       1.0  0.42269  0.13793  0.46224  1.0000
  O   O17       1.0  0.35809  0.84077  0.59392  1.0000
  O   O18       1.0  0.64191  0.15923  0.40608  1.0000
  O   O19       1.0  0.81828  0.65322  0.61713  1.0000
  O   O20       1.0  0.18172  0.34678  0.38287  1.0000
  O   O21       1.0  0.00540  0.67015  0.67298  1.0000
  O   O22       1.0  0.99461  0.32984  0.32702  1.0000
  O   O23       1.0  0.04744  0.40897  0.60887  1.0000
  O   O24       1.0  0.95256  0.59103  0.39113  1.0000
  O   O25       1.0  0.14781  0.25651  0.73013  1.0000
  O   O26       1.0  0.85219  0.74349  0.26986  1.0000
  O   O27       1.0  0.41707  0.02304  0.81593  1.0000
  O   O28       1.0  0.58293  0.97696  0.18407  1.0000
  O   O29       1.0  0.73369  0.95332  0.33294  1.0000
  O   O30       1.0  0.26631  0.04668  0.66706  1.0000
  O   O31       1.0  0.80421  0.91378  0.55713  1.0000
  O   O32       1.0  0.19579  0.08622  0.44287  1.0000
  O   O33       1.0  0.20770  0.56909  0.52126  1.0000
  O   O34       1.0  0.79230  0.43091  0.47874  1.0000
