data_image0
_chemical_formula_structural       Pr4H40C56N4O34
_chemical_formula_sum              "Pr4 H40 C56 N4 O34"
_cell_length_a       10.2221
_cell_length_b       12.4541
_cell_length_c       13.2905
_cell_angle_alpha    72.3128
_cell_angle_beta     73.548
_cell_angle_gamma    69.6616

_space_group_name_H-M_alt    "P 1"
_space_group_IT_number       1

loop_
  _space_group_symop_operation_xyz
  'x, y, z'

loop_
  _atom_site_type_symbol
  _atom_site_label
  _atom_site_symmetry_multiplicity
  _atom_site_fract_x
  _atom_site_fract_y
  _atom_site_fract_z
  _atom_site_occupancy
  Pr  Pr1       1.0  0.68457  0.71854  0.54118  1.0000
  Pr  Pr2       1.0  0.31543  0.28146  0.45882  1.0000
  Pr  Pr3       1.0  0.30879  0.78695  0.40521  1.0000
  Pr  Pr4       1.0  0.69122  0.21305  0.59479  1.0000
  H   H1        1.0  0.78034  0.50181  0.43256  1.0000
  H   H2        1.0  0.21966  0.49819  0.56744  1.0000
  H   H3        1.0  0.62513  0.57204  0.41890  1.0000
  H   H4        1.0  0.37487  0.42796  0.58110  1.0000
  H   H5        1.0  0.80752  0.52772  0.72613  1.0000
  H   H6        1.0  0.19248  0.47228  0.27387  1.0000
  H   H7        1.0  0.79793  0.45678  0.64590  1.0000
  H   H8        1.0  0.20208  0.54322  0.35410  1.0000
  H   H9        1.0  0.23303  0.02409  0.47370  1.0000
  H   H10       1.0  0.76697  0.97591  0.52630  1.0000
  H   H11       1.0  0.36324  0.94219  0.52820  1.0000
  H   H12       1.0  0.63676  0.05781  0.47180  1.0000
  H   H13       1.0  0.46173  0.24552  0.08894  1.0000
  H   H14       1.0  0.53827  0.75448  0.91106  1.0000
  H   H15       1.0  0.59413  0.16370  0.92414  1.0000
  H   H16       1.0  0.40587  0.83630  0.07586  1.0000
  H   H17       1.0  0.75517  0.95848  0.94904  1.0000
  H   H18       1.0  0.24483  0.04152  0.05096  1.0000
  H   H19       1.0  0.12817  0.68370  0.20178  1.0000
  H   H20       1.0  0.87183  0.31630  0.79822  1.0000
  H   H21       1.0  0.94600  0.87726  0.17037  1.0000
  H   H22       1.0  0.05401  0.12274  0.82963  1.0000
  H   H23       1.0  0.67999  0.73708  0.09558  1.0000
  H   H24       1.0  0.32001  0.26292  0.90442  1.0000
  H   H25       1.0  0.85302  0.53710  0.11894  1.0000
  H   H26       1.0  0.14698  0.46290  0.88106  1.0000
  H   H27       1.0  0.50645  0.36362  0.92971  1.0000
  H   H28       1.0  0.49355  0.63638  0.07030  1.0000
  H   H29       1.0  0.33815  0.48787  0.05703  1.0000
  H   H30       1.0  0.66184  0.51213  0.94297  1.0000
  H   H31       1.0  0.16316  0.67382  0.98400  1.0000
  H   H32       1.0  0.83684  0.32618  0.01600  1.0000
  H   H33       1.0  0.05610  0.05042  0.69632  1.0000
  H   H34       1.0  0.94390  0.94958  0.30368  1.0000
  H   H35       1.0  0.25357  0.87295  0.73808  1.0000
  H   H36       1.0  0.74644  0.12705  0.26192  1.0000
  H   H37       1.0  0.98920  0.65432  0.82103  1.0000
  H   H38       1.0  0.01080  0.34568  0.17897  1.0000
  H   H39       1.0  0.78013  0.82369  0.78649  1.0000
  H   H40       1.0  0.21987  0.17631  0.21351  1.0000
  C   C1        1.0  0.63702  0.88659  0.32336  1.0000
  C   C2        1.0  0.36299  0.11341  0.67664  1.0000
  C   C3        1.0  0.46727  0.14711  0.29253  1.0000
  C   C4        1.0  0.53273  0.85289  0.70747  1.0000
  C   C5        1.0  0.62612  0.96961  0.21456  1.0000
  C   C6        1.0  0.37388  0.03039  0.78543  1.0000
  C   C7        1.0  0.54051  0.08709  0.20047  1.0000
  C   C8        1.0  0.45949  0.91291  0.79953  1.0000
  C   C9        1.0  0.52931  0.15506  0.09590  1.0000
  C   C10       1.0  0.47069  0.84494  0.90410  1.0000
  C   C11       1.0  0.60254  0.10978  0.00519  1.0000
  C   C12       1.0  0.39746  0.89022  0.99481  1.0000
  C   C13       1.0  0.69277  0.99502  0.01857  1.0000
  C   C14       1.0  0.30723  0.00498  0.98143  1.0000
  C   C15       1.0  0.70462  0.92725  0.12219  1.0000
  C   C16       1.0  0.29538  0.07275  0.87781  1.0000
  C   C17       1.0  0.03057  0.69064  0.17923  1.0000
  C   C18       1.0  0.96943  0.30936  0.82076  1.0000
  C   C19       1.0  0.93190  0.79773  0.16259  1.0000
  C   C20       1.0  0.06810  0.20227  0.83741  1.0000
  C   C21       1.0  0.78111  0.71843  0.11857  1.0000
  C   C22       1.0  0.21888  0.28157  0.88143  1.0000
  C   C23       1.0  0.87668  0.60932  0.13300  1.0000
  C   C24       1.0  0.12332  0.39068  0.86700  1.0000
  C   C25       1.0  0.00552  0.58725  0.16985  1.0000
  C   C26       1.0  0.99448  0.41274  0.83015  1.0000
  C   C27       1.0  0.97148  0.80217  0.50403  1.0000
  C   C28       1.0  0.02853  0.19783  0.49597  1.0000
  C   C29       1.0  0.02308  0.69658  0.44957  1.0000
  C   C30       1.0  0.97693  0.30342  0.55043  1.0000
  C   C31       1.0  0.34428  0.64265  0.62946  1.0000
  C   C32       1.0  0.65572  0.35735  0.37054  1.0000
  C   C33       1.0  0.52080  0.39411  0.72196  1.0000
  C   C34       1.0  0.47920  0.60589  0.27804  1.0000
  C   C35       1.0  0.34099  0.59057  0.74771  1.0000
  C   C36       1.0  0.65901  0.40943  0.25229  1.0000
  C   C37       1.0  0.43331  0.48177  0.78961  1.0000
  C   C38       1.0  0.56669  0.51823  0.21039  1.0000
  C   C39       1.0  0.43240  0.44731  0.90033  1.0000
  C   C40       1.0  0.56760  0.55269  0.09967  1.0000
  C   C41       1.0  0.33926  0.51622  0.97084  1.0000
  C   C42       1.0  0.66074  0.48378  0.02916  1.0000
  C   C43       1.0  0.24144  0.62014  0.93057  1.0000
  C   C44       1.0  0.75856  0.37986  0.06943  1.0000
  C   C45       1.0  0.24154  0.65564  0.82044  1.0000
  C   C46       1.0  0.75846  0.34436  0.17956  1.0000
  C   C47       1.0  0.03435  0.96568  0.72802  1.0000
  C   C48       1.0  0.96565  0.03431  0.27198  1.0000
  C   C49       1.0  0.14615  0.86801  0.74937  1.0000
  C   C50       1.0  0.85385  0.13199  0.25063  1.0000
  C   C51       1.0  0.99681  0.74421  0.79791  1.0000
  C   C52       1.0  0.00319  0.25578  0.20209  1.0000
  C   C53       1.0  0.88153  0.83905  0.77825  1.0000
  C   C54       1.0  0.11847  0.16095  0.22175  1.0000
  C   C55       1.0  0.89424  0.95624  0.74274  1.0000
  C   C56       1.0  0.10576  0.04376  0.25726  1.0000
  N   N1        1.0  0.80633  0.81219  0.13498  1.0000
  N   N2        1.0  0.19367  0.18781  0.86502  1.0000
  N   N3        1.0  0.12837  0.75803  0.78519  1.0000
  N   N4        1.0  0.87163  0.24197  0.21481  1.0000
  O   O1        1.0  0.73984  0.87175  0.36564  1.0000
  O   O2        1.0  0.26016  0.12825  0.63436  1.0000
  O   O3        1.0  0.54626  0.82795  0.36571  1.0000
  O   O4        1.0  0.45374  0.17205  0.63429  1.0000
  O   O5        1.0  0.49094  0.09567  0.38772  1.0000
  O   O6        1.0  0.50906  0.90433  0.61228  1.0000
  O   O7        1.0  0.38592  0.25151  0.27088  1.0000
  O   O8        1.0  0.61408  0.74849  0.72912  1.0000
  O   O9        1.0  0.09120  0.48473  0.19074  1.0000
  O   O10       1.0  0.90880  0.51527  0.80926  1.0000
  O   O11       1.0  0.05707  0.85919  0.49150  1.0000
  O   O12       1.0  0.94294  0.14082  0.50850  1.0000
  O   O13       1.0  0.84291  0.82489  0.55575  1.0000
  O   O14       1.0  0.15709  0.17511  0.44425  1.0000
  O   O15       1.0  0.15028  0.67576  0.39486  1.0000
  O   O16       1.0  0.84972  0.32424  0.60514  1.0000
  O   O17       1.0  0.93706  0.64022  0.46112  1.0000
  O   O18       1.0  0.06295  0.35978  0.53887  1.0000
  O   O19       1.0  0.44174  0.69231  0.57594  1.0000
  O   O20       1.0  0.55826  0.30769  0.42406  1.0000
  O   O21       1.0  0.24468  0.64717  0.58858  1.0000
  O   O22       1.0  0.75532  0.35283  0.41142  1.0000
  O   O23       1.0  0.58919  0.29240  0.76768  1.0000
  O   O24       1.0  0.41081  0.70760  0.23232  1.0000
  O   O25       1.0  0.51978  0.42061  0.62099  1.0000
  O   O26       1.0  0.48022  0.57939  0.37901  1.0000
  O   O27       1.0  0.78615  0.04636  0.72592  1.0000
  O   O28       1.0  0.21385  0.95364  0.27408  1.0000
  O   O29       1.0  0.71194  0.57927  0.43307  1.0000
  O   O30       1.0  0.28806  0.42073  0.56693  1.0000
  O   O31       1.0  0.75471  0.53164  0.67065  1.0000
  O   O32       1.0  0.24529  0.46836  0.32935  1.0000
  O   O33       1.0  0.28680  0.94046  0.49817  1.0000
  O   O34       1.0  0.71319  0.05955  0.50183  1.0000
