data_image0
_chemical_formula_structural       H20Pb4C32N4O20
_chemical_formula_sum              "H20 Pb4 C32 N4 O20"
_cell_length_a       7.37373
_cell_length_b       10.644
_cell_length_c       11.2907
_cell_angle_alpha    89.9996
_cell_angle_beta     90.0006
_cell_angle_gamma    98.2267

_space_group_name_H-M_alt    "P 1"
_space_group_IT_number       1

loop_
  _space_group_symop_operation_xyz
  'x, y, z'

loop_
  _atom_site_type_symbol
  _atom_site_label
  _atom_site_symmetry_multiplicity
  _atom_site_fract_x
  _atom_site_fract_y
  _atom_site_fract_z
  _atom_site_occupancy
  H   H1        1.0  0.63389  0.44056  0.05494  1.0000
  H   H2        1.0  0.86612  0.55944  0.55494  1.0000
  H   H3        1.0  0.36611  0.55944  0.94505  1.0000
  H   H4        1.0  0.13389  0.44056  0.44506  1.0000
  H   H5        1.0  0.77453  0.16727  0.28620  1.0000
  H   H6        1.0  0.72547  0.83273  0.78620  1.0000
  H   H7        1.0  0.22547  0.83273  0.71379  1.0000
  H   H8        1.0  0.27454  0.16726  0.21380  1.0000
  H   H9        1.0  0.05101  0.01612  0.13244  1.0000
  H   H10       1.0  0.44898  0.98389  0.63245  1.0000
  H   H11       1.0  0.94896  0.98390  0.86755  1.0000
  H   H12       1.0  0.55102  0.01610  0.36755  1.0000
  H   H13       1.0  0.60189  0.50985  0.43067  1.0000
  H   H14       1.0  0.89811  0.49014  0.93068  1.0000
  H   H15       1.0  0.39812  0.49014  0.56932  1.0000
  H   H16       1.0  0.10189  0.50986  0.06933  1.0000
  H   H17       1.0  0.70343  0.29458  0.46445  1.0000
  H   H18       1.0  0.79656  0.70540  0.96445  1.0000
  H   H19       1.0  0.29658  0.70541  0.53554  1.0000
  H   H20       1.0  0.20342  0.29459  0.03555  1.0000
  Pb  Pb1       1.0  0.37349  0.83745  0.11992  1.0000
  Pb  Pb2       1.0  0.12650  0.16254  0.61993  1.0000
  Pb  Pb3       1.0  0.62651  0.16254  0.88007  1.0000
  Pb  Pb4       1.0  0.87348  0.83745  0.38008  1.0000
  C   C1        1.0  0.65101  0.41561  0.14711  1.0000
  C   C2        1.0  0.84900  0.58439  0.64711  1.0000
  C   C3        1.0  0.34899  0.58440  0.85290  1.0000
  C   C4        1.0  0.15102  0.41560  0.35289  1.0000
  C   C5        1.0  0.76773  0.94963  0.07751  1.0000
  C   C6        1.0  0.73227  0.05038  0.57751  1.0000
  C   C7        1.0  0.23226  0.05039  0.92248  1.0000
  C   C8        1.0  0.26774  0.94961  0.42249  1.0000
  C   C9        1.0  0.61150  0.49095  0.24155  1.0000
  C   C10       1.0  0.88850  0.50906  0.74154  1.0000
  C   C11       1.0  0.38850  0.50905  0.75845  1.0000
  C   C12       1.0  0.11150  0.49095  0.25846  1.0000
  C   C13       1.0  0.54673  0.61619  0.21652  1.0000
  C   C14       1.0  0.95328  0.38381  0.71653  1.0000
  C   C15       1.0  0.45327  0.38381  0.78348  1.0000
  C   C16       1.0  0.04672  0.61619  0.28348  1.0000
  C   C17       1.0  0.72678  0.25900  0.27976  1.0000
  C   C18       1.0  0.77323  0.74100  0.77976  1.0000
  C   C19       1.0  0.27322  0.74100  0.72024  1.0000
  C   C20       1.0  0.22678  0.25900  0.22024  1.0000
  C   C21       1.0  0.96459  0.99385  0.05476  1.0000
  C   C22       1.0  0.53540  0.00616  0.55475  1.0000
  C   C23       1.0  0.03538  0.00617  0.94524  1.0000
  C   C24       1.0  0.46461  0.99383  0.44526  1.0000
  C   C25       1.0  0.63110  0.44930  0.35754  1.0000
  C   C26       1.0  0.86890  0.55069  0.85754  1.0000
  C   C27       1.0  0.36891  0.55069  0.64247  1.0000
  C   C28       1.0  0.13110  0.44930  0.14246  1.0000
  C   C29       1.0  0.68698  0.33115  0.37577  1.0000
  C   C30       1.0  0.81301  0.66885  0.87577  1.0000
  C   C31       1.0  0.31302  0.66885  0.62422  1.0000
  C   C32       1.0  0.18699  0.33114  0.12423  1.0000
  N   N1        1.0  0.71115  0.30245  0.16674  1.0000
  N   N2        1.0  0.78886  0.69755  0.66674  1.0000
  N   N3        1.0  0.28886  0.69755  0.83326  1.0000
  N   N4        1.0  0.21115  0.30244  0.33326  1.0000
  O   O1        1.0  0.65820  0.92420  0.98984  1.0000
  O   O2        1.0  0.84179  0.07580  0.48984  1.0000
  O   O3        1.0  0.34178  0.07580  0.01016  1.0000
  O   O4        1.0  0.15821  0.92419  0.51016  1.0000
  O   O5        1.0  0.51248  0.63975  0.10813  1.0000
  O   O6        1.0  0.98753  0.36026  0.60813  1.0000
  O   O7        1.0  0.48753  0.36025  0.89187  1.0000
  O   O8        1.0  0.01247  0.63975  0.39187  1.0000
  O   O9        1.0  0.76246  0.23555  0.07797  1.0000
  O   O10       1.0  0.73755  0.76445  0.57798  1.0000
  O   O11       1.0  0.23754  0.76445  0.92201  1.0000
  O   O12       1.0  0.26247  0.23555  0.42202  1.0000
  O   O13       1.0  0.71388  0.93791  0.18508  1.0000
  O   O14       1.0  0.78612  0.06211  0.68508  1.0000
  O   O15       1.0  0.28610  0.06210  0.81491  1.0000
  O   O16       1.0  0.21389  0.93790  0.31492  1.0000
  O   O17       1.0  0.52721  0.68986  0.30224  1.0000
  O   O18       1.0  0.97281  0.31013  0.80224  1.0000
  O   O19       1.0  0.47279  0.31013  0.69776  1.0000
  O   O20       1.0  0.02719  0.68986  0.19776  1.0000
