data_image0
_chemical_formula_structural       Sn4H52C36N4O16
_chemical_formula_sum              "Sn4 H52 C36 N4 O16"
_cell_length_a       6.53793
_cell_length_b       10.0132
_cell_length_c       19.688
_cell_angle_alpha    90
_cell_angle_beta     93.3338
_cell_angle_gamma    90

_space_group_name_H-M_alt    "P 1"
_space_group_IT_number       1

loop_
  _space_group_symop_operation_xyz
  'x, y, z'

loop_
  _atom_site_type_symbol
  _atom_site_label
  _atom_site_symmetry_multiplicity
  _atom_site_fract_x
  _atom_site_fract_y
  _atom_site_fract_z
  _atom_site_occupancy
  Sn  Sn1       1.0  0.43300  0.44077  0.72095  1.0000
  Sn  Sn2       1.0  0.43300  0.05923  0.22095  1.0000
  Sn  Sn3       1.0  0.56700  0.55922  0.27905  1.0000
  Sn  Sn4       1.0  0.56700  0.94077  0.77905  1.0000
  H   H1        1.0  0.37358  0.63120  0.62317  1.0000
  H   H2        1.0  0.37357  0.86880  0.12317  1.0000
  H   H3        1.0  0.62642  0.36880  0.37683  1.0000
  H   H4        1.0  0.62642  0.13120  0.87683  1.0000
  H   H5        1.0  0.18895  0.65187  0.68611  1.0000
  H   H6        1.0  0.18895  0.84813  0.18611  1.0000
  H   H7        1.0  0.81105  0.34813  0.31389  1.0000
  H   H8        1.0  0.81106  0.15187  0.81389  1.0000
  H   H9        1.0  0.15644  0.52227  0.62277  1.0000
  H   H10       1.0  0.15643  0.97773  0.12277  1.0000
  H   H11       1.0  0.84356  0.47772  0.37723  1.0000
  H   H12       1.0  0.84357  0.02227  0.87723  1.0000
  H   H13       1.0  0.83816  0.42062  0.76237  1.0000
  H   H14       1.0  0.83817  0.07938  0.26236  1.0000
  H   H15       1.0  0.16184  0.57938  0.23763  1.0000
  H   H16       1.0  0.16184  0.92063  0.73764  1.0000
  H   H17       1.0  0.81078  0.51398  0.68538  1.0000
  H   H18       1.0  0.81078  0.98602  0.18537  1.0000
  H   H19       1.0  0.18923  0.48601  0.31462  1.0000
  H   H20       1.0  0.18924  0.01399  0.81462  1.0000
  H   H21       1.0  0.79214  0.33489  0.68321  1.0000
  H   H22       1.0  0.79214  0.16511  0.18320  1.0000
  H   H23       1.0  0.20786  0.66511  0.31679  1.0000
  H   H24       1.0  0.20787  0.83490  0.81680  1.0000
  H   H25       1.0  0.38999  0.29487  0.83541  1.0000
  H   H26       1.0  0.38999  0.20513  0.33541  1.0000
  H   H27       1.0  0.61002  0.70513  0.16459  1.0000
  H   H28       1.0  0.61002  0.79487  0.66459  1.0000
  H   H29       1.0  0.17716  0.26496  0.77605  1.0000
  H   H30       1.0  0.17716  0.23504  0.27605  1.0000
  H   H31       1.0  0.82285  0.73504  0.22394  1.0000
  H   H32       1.0  0.82285  0.76496  0.72395  1.0000
  H   H33       1.0  0.18819  0.41565  0.82624  1.0000
  H   H34       1.0  0.18820  0.08435  0.32624  1.0000
  H   H35       1.0  0.81181  0.58435  0.17376  1.0000
  H   H36       1.0  0.81181  0.91565  0.67376  1.0000
  H   H37       1.0  0.48935  0.02839  0.57690  1.0000
  H   H38       1.0  0.48936  0.47160  0.07690  1.0000
  H   H39       1.0  0.51064  0.97161  0.42310  1.0000
  H   H40       1.0  0.51064  0.52840  0.92310  1.0000
  H   H41       1.0  0.28237  0.97210  0.62377  1.0000
  H   H42       1.0  0.28237  0.52790  0.12376  1.0000
  H   H43       1.0  0.71763  0.02790  0.37623  1.0000
  H   H44       1.0  0.71763  0.47211  0.87624  1.0000
  H   H45       1.0  0.06732  0.29870  0.41218  1.0000
  H   H46       1.0  0.06731  0.20131  0.91218  1.0000
  H   H47       1.0  0.93268  0.70130  0.58782  1.0000
  H   H48       1.0  0.93267  0.79870  0.08782  1.0000
  H   H49       1.0  0.75180  0.23399  0.49046  1.0000
  H   H50       1.0  0.75180  0.26600  0.99046  1.0000
  H   H51       1.0  0.24819  0.76600  0.50954  1.0000
  H   H52       1.0  0.24818  0.73401  0.00954  1.0000
  C   C1        1.0  0.26720  0.57907  0.65515  1.0000
  C   C2        1.0  0.26719  0.92093  0.15515  1.0000
  C   C3        1.0  0.73281  0.42093  0.34484  1.0000
  C   C4        1.0  0.73281  0.07907  0.84485  1.0000
  C   C5        1.0  0.75829  0.42520  0.71192  1.0000
  C   C6        1.0  0.75829  0.07480  0.21191  1.0000
  C   C7        1.0  0.24172  0.57480  0.28808  1.0000
  C   C8        1.0  0.24172  0.92521  0.78809  1.0000
  C   C9        1.0  0.27741  0.34178  0.79959  1.0000
  C   C10       1.0  0.27742  0.15822  0.29959  1.0000
  C   C11       1.0  0.72259  0.65822  0.20041  1.0000
  C   C12       1.0  0.72259  0.84178  0.70041  1.0000
  C   C13       1.0  0.40690  0.16433  0.65472  1.0000
  C   C14       1.0  0.40690  0.33567  0.15472  1.0000
  C   C15       1.0  0.59310  0.83567  0.34528  1.0000
  C   C16       1.0  0.59310  0.66433  0.84528  1.0000
  C   C17       1.0  0.34890  0.06009  0.60027  1.0000
  C   C18       1.0  0.34890  0.43991  0.10026  1.0000
  C   C19       1.0  0.65110  0.93991  0.39973  1.0000
  C   C20       1.0  0.65110  0.56009  0.89974  1.0000
  C   C21       1.0  0.26210  0.18351  0.49115  1.0000
  C   C22       1.0  0.26212  0.31648  0.99115  1.0000
  C   C23       1.0  0.73788  0.81648  0.50885  1.0000
  C   C24       1.0  0.73787  0.68352  0.00885  1.0000
  C   C25       1.0  0.06974  0.24199  0.45922  1.0000
  C   C26       1.0  0.06974  0.25801  0.95922  1.0000
  C   C27       1.0  0.93025  0.75801  0.54078  1.0000
  C   C28       1.0  0.93024  0.74200  0.04078  1.0000
  C   C29       1.0  0.91403  0.21093  0.49771  1.0000
  C   C30       1.0  0.91403  0.28906  0.99771  1.0000
  C   C31       1.0  0.08596  0.78906  0.50229  1.0000
  C   C32       1.0  0.08596  0.71094  0.00229  1.0000
  C   C33       1.0  0.99708  0.13020  0.55696  1.0000
  C   C34       1.0  0.99709  0.36979  0.05695  1.0000
  C   C35       1.0  0.00292  0.86980  0.44304  1.0000
  C   C36       1.0  0.00290  0.63022  0.94305  1.0000
  N   N1        1.0  0.20613  0.11115  0.54792  1.0000
  N   N2        1.0  0.20614  0.38884  0.04792  1.0000
  N   N3        1.0  0.79386  0.88885  0.45208  1.0000
  N   N4        1.0  0.79385  0.61116  0.95209  1.0000
  O   O1        1.0  0.35726  0.28490  0.64049  1.0000
  O   O2        1.0  0.35726  0.21509  0.14049  1.0000
  O   O3        1.0  0.64274  0.71510  0.35951  1.0000
  O   O4        1.0  0.64275  0.78491  0.85951  1.0000
  O   O5        1.0  0.50180  0.12903  0.70939  1.0000
  O   O6        1.0  0.50180  0.37097  0.20938  1.0000
  O   O7        1.0  0.49820  0.87097  0.29061  1.0000
  O   O8        1.0  0.49820  0.62903  0.79061  1.0000
  O   O9        1.0  0.43723  0.19454  0.47263  1.0000
  O   O10       1.0  0.43723  0.30545  0.97263  1.0000
  O   O11       1.0  0.56277  0.80546  0.52737  1.0000
  O   O12       1.0  0.56276  0.69455  0.02737  1.0000
  O   O13       1.0  0.90597  0.08750  0.60512  1.0000
  O   O14       1.0  0.90597  0.41250  0.10513  1.0000
  O   O15       1.0  0.09403  0.91249  0.39488  1.0000
  O   O16       1.0  0.09404  0.58750  0.89488  1.0000
