data_image0
_chemical_formula_structural       Er4H40C56N4O34
_chemical_formula_sum              "Er4 H40 C56 N4 O34"
_cell_length_a       10.2256
_cell_length_b       12.0233
_cell_length_c       12.9701
_cell_angle_alpha    74.7149
_cell_angle_beta     76.2736
_cell_angle_gamma    71.3115

_space_group_name_H-M_alt    "P 1"
_space_group_IT_number       1

loop_
  _space_group_symop_operation_xyz
  'x, y, z'

loop_
  _atom_site_type_symbol
  _atom_site_label
  _atom_site_symmetry_multiplicity
  _atom_site_fract_x
  _atom_site_fract_y
  _atom_site_fract_z
  _atom_site_occupancy
  Er  Er1       1.0  0.80343  0.28001  0.94867  1.0000
  Er  Er2       1.0  0.19657  0.71999  0.05133  1.0000
  Er  Er3       1.0  0.20816  0.21937  0.10655  1.0000
  Er  Er4       1.0  0.79184  0.78063  0.89345  1.0000
  H   H1        1.0  0.68277  0.45956  0.77054  1.0000
  H   H2        1.0  0.31723  0.54044  0.22946  1.0000
  H   H3        1.0  0.68889  0.53238  0.85796  1.0000
  H   H4        1.0  0.31111  0.46762  0.14204  1.0000
  H   H5        1.0  0.89024  0.42081  0.07059  1.0000
  H   H6        1.0  0.10976  0.57919  0.92941  1.0000
  H   H7        1.0  0.73974  0.49446  0.04905  1.0000
  H   H8        1.0  0.26026  0.50554  0.95095  1.0000
  H   H9        1.0  0.12524  0.03828  0.03982  1.0000
  H   H10       1.0  0.87476  0.96173  0.96018  1.0000
  H   H11       1.0  0.28482  0.99197  0.03168  1.0000
  H   H12       1.0  0.71518  0.00802  0.96833  1.0000
  H   H13       1.0  0.02588  0.74627  0.41137  1.0000
  H   H14       1.0  0.97412  0.25373  0.58863  1.0000
  H   H15       1.0  0.85735  0.81850  0.57335  1.0000
  H   H16       1.0  0.14265  0.18150  0.42665  1.0000
  H   H17       1.0  0.69770  0.02646  0.54471  1.0000
  H   H18       1.0  0.30229  0.97354  0.45529  1.0000
  H   H19       1.0  0.35981  0.32128  0.31242  1.0000
  H   H20       1.0  0.64019  0.67872  0.68758  1.0000
  H   H21       1.0  0.53369  0.12129  0.34100  1.0000
  H   H22       1.0  0.46631  0.87871  0.65899  1.0000
  H   H23       1.0  0.83355  0.26382  0.38350  1.0000
  H   H24       1.0  0.16645  0.73618  0.61650  1.0000
  H   H25       1.0  0.67061  0.47047  0.36208  1.0000
  H   H26       1.0  0.32939  0.52953  0.63792  1.0000
  H   H27       1.0  0.99085  0.63334  0.56864  1.0000
  H   H28       1.0  0.00915  0.36666  0.43136  1.0000
  H   H29       1.0  0.17418  0.51425  0.44190  1.0000
  H   H30       1.0  0.82582  0.48574  0.55810  1.0000
  H   H31       1.0  0.34105  0.32552  0.52087  1.0000
  H   H32       1.0  0.65895  0.67448  0.47913  1.0000
  H   H33       1.0  0.40073  0.93934  0.82513  1.0000
  H   H34       1.0  0.59927  0.06066  0.17487  1.0000
  H   H35       1.0  0.21567  0.12720  0.78882  1.0000
  H   H36       1.0  0.78433  0.87280  0.21118  1.0000
  H   H37       1.0  0.50628  0.32855  0.67272  1.0000
  H   H38       1.0  0.49372  0.67145  0.32728  1.0000
  H   H39       1.0  0.70443  0.14733  0.70413  1.0000
  H   H40       1.0  0.29557  0.85267  0.29587  1.0000
  C   C1        1.0  0.90165  0.12390  0.18291  1.0000
  C   C2        1.0  0.09835  0.87610  0.81708  1.0000
  C   C3        1.0  0.05933  0.85735  0.20907  1.0000
  C   C4        1.0  0.94067  0.14265  0.79093  1.0000
  C   C5        1.0  0.88331  0.03243  0.28707  1.0000
  C   C6        1.0  0.11669  0.96757  0.71293  1.0000
  C   C7        1.0  0.96803  0.91298  0.30176  1.0000
  C   C8        1.0  0.03198  0.08702  0.69824  1.0000
  C   C9        1.0  0.95787  0.83761  0.40455  1.0000
  C   C10       1.0  0.04213  0.16239  0.59546  1.0000
  C   C11       1.0  0.86348  0.87691  0.49310  1.0000
  C   C12       1.0  0.13652  0.12309  0.50690  1.0000
  C   C13       1.0  0.77430  0.99304  0.47776  1.0000
  C   C14       1.0  0.22570  0.00696  0.52224  1.0000
  C   C15       1.0  0.78468  0.06849  0.37584  1.0000
  C   C16       1.0  0.21532  0.93151  0.62416  1.0000
  C   C17       1.0  0.46288  0.31331  0.32827  1.0000
  C   C18       1.0  0.53712  0.68669  0.67173  1.0000
  C   C19       1.0  0.55686  0.20268  0.34348  1.0000
  C   C20       1.0  0.44314  0.79732  0.65652  1.0000
  C   C21       1.0  0.72735  0.28356  0.36842  1.0000
  C   C22       1.0  0.27265  0.71644  0.63158  1.0000
  C   C23       1.0  0.63713  0.39590  0.35572  1.0000
  C   C24       1.0  0.36287  0.60410  0.64428  1.0000
  C   C25       1.0  0.49955  0.41853  0.33163  1.0000
  C   C26       1.0  0.50045  0.58147  0.66837  1.0000
  C   C27       1.0  0.52361  0.19913  0.99480  1.0000
  C   C28       1.0  0.47639  0.80088  0.00520  1.0000
  C   C29       1.0  0.48278  0.31052  0.04537  1.0000
  C   C30       1.0  0.51722  0.68948  0.95463  1.0000
  C   C31       1.0  0.12446  0.34538  0.87611  1.0000
  C   C32       1.0  0.87553  0.65462  0.12389  1.0000
  C   C33       1.0  0.95470  0.59879  0.77972  1.0000
  C   C34       1.0  0.04530  0.40121  0.22028  1.0000
  C   C35       1.0  0.14127  0.40152  0.75697  1.0000
  C   C36       1.0  0.85873  0.59848  0.24303  1.0000
  C   C37       1.0  0.05163  0.51137  0.71230  1.0000
  C   C38       1.0  0.94837  0.48863  0.28770  1.0000
  C   C39       1.0  0.06313  0.54904  0.59961  1.0000
  C   C40       1.0  0.93687  0.45096  0.40039  1.0000
  C   C41       1.0  0.16440  0.48295  0.52951  1.0000
  C   C42       1.0  0.83560  0.51705  0.47049  1.0000
  C   C43       1.0  0.25801  0.37790  0.57315  1.0000
  C   C44       1.0  0.74199  0.62210  0.42685  1.0000
  C   C45       1.0  0.24692  0.33875  0.68540  1.0000
  C   C46       1.0  0.75308  0.66125  0.31460  1.0000
  C   C47       1.0  0.43054  0.02194  0.78841  1.0000
  C   C48       1.0  0.56946  0.97806  0.21159  1.0000
  C   C49       1.0  0.32557  0.12559  0.76899  1.0000
  C   C50       1.0  0.67443  0.87441  0.23101  1.0000
  C   C51       1.0  0.49001  0.23919  0.70151  1.0000
  C   C52       1.0  0.50999  0.76081  0.29849  1.0000
  C   C53       1.0  0.59861  0.13811  0.71969  1.0000
  C   C54       1.0  0.40139  0.86189  0.28031  1.0000
  C   C55       1.0  0.57451  0.02242  0.76189  1.0000
  C   C56       1.0  0.42549  0.97758  0.23811  1.0000
  N   N1        1.0  0.68860  0.18707  0.36198  1.0000
  N   N2        1.0  0.31140  0.81293  0.63801  1.0000
  N   N3        1.0  0.35419  0.23301  0.72349  1.0000
  N   N4        1.0  0.64580  0.76699  0.27651  1.0000
  O   O1        1.0  0.81706  0.15082  0.11749  1.0000
  O   O2        1.0  0.18294  0.84918  0.88251  1.0000
  O   O3        1.0  0.00013  0.17050  0.17303  1.0000
  O   O4        1.0  0.99987  0.82950  0.82697  1.0000
  O   O5        1.0  0.04546  0.90971  0.11098  1.0000
  O   O6        1.0  0.95455  0.09029  0.88902  1.0000
  O   O7        1.0  0.14291  0.75328  0.23107  1.0000
  O   O8        1.0  0.85709  0.24672  0.76893  1.0000
  O   O9        1.0  0.41671  0.52399  0.31553  1.0000
  O   O10       1.0  0.58329  0.47602  0.68447  1.0000
  O   O11       1.0  0.65072  0.16799  0.94846  1.0000
  O   O12       1.0  0.34927  0.83201  0.05154  1.0000
  O   O13       1.0  0.43206  0.14628  0.00576  1.0000
  O   O14       1.0  0.56794  0.85372  0.99424  1.0000
  O   O15       1.0  0.57613  0.36023  0.03809  1.0000
  O   O16       1.0  0.42387  0.63977  0.96190  1.0000
  O   O17       1.0  0.35612  0.34130  0.09330  1.0000
  O   O18       1.0  0.64388  0.65870  0.90670  1.0000
  O   O19       1.0  0.21720  0.33758  0.92894  1.0000
  O   O20       1.0  0.78280  0.66242  0.07106  1.0000
  O   O21       1.0  0.02286  0.29951  0.91432  1.0000
  O   O22       1.0  0.97714  0.70049  0.08568  1.0000
  O   O23       1.0  0.96349  0.58380  0.87958  1.0000
  O   O24       1.0  0.03651  0.41620  0.12042  1.0000
  O   O25       1.0  0.86959  0.69197  0.73460  1.0000
  O   O26       1.0  0.13040  0.30803  0.26540  1.0000
  O   O27       1.0  0.67640  0.92617  0.77380  1.0000
  O   O28       1.0  0.32360  0.07383  0.22620  1.0000
  O   O29       1.0  0.73115  0.45563  0.83174  1.0000
  O   O30       1.0  0.26885  0.54437  0.16826  1.0000
  O   O31       1.0  0.80347  0.41386  0.05436  1.0000
  O   O32       1.0  0.19652  0.58614  0.94564  1.0000
  O   O33       1.0  0.20860  0.06794  0.02433  1.0000
  O   O34       1.0  0.79141  0.93206  0.97567  1.0000
