data_image0
_chemical_formula_structural       H18Pb4C30N2O20
_chemical_formula_sum              "H18 Pb4 C30 N2 O20"
_cell_length_a       8.14542
_cell_length_b       10.1854
_cell_length_c       10.3372
_cell_angle_alpha    92.4431
_cell_angle_beta     106.991
_cell_angle_gamma    97.7472

_space_group_name_H-M_alt    "P 1"
_space_group_IT_number       1

loop_
  _space_group_symop_operation_xyz
  'x, y, z'

loop_
  _atom_site_type_symbol
  _atom_site_label
  _atom_site_symmetry_multiplicity
  _atom_site_fract_x
  _atom_site_fract_y
  _atom_site_fract_z
  _atom_site_occupancy
  H   H1        1.0  0.08951  0.75754  0.41416  1.0000
  H   H2        1.0  0.91051  0.24243  0.58585  1.0000
  H   H3        1.0  0.13937  0.34500  0.36275  1.0000
  H   H4        1.0  0.86065  0.65497  0.63723  1.0000
  H   H5        1.0  0.80680  0.84621  0.75837  1.0000
  H   H6        1.0  0.19320  0.15378  0.24161  1.0000
  H   H7        1.0  0.17003  0.13756  0.64405  1.0000
  H   H8        1.0  0.82995  0.86248  0.35596  1.0000
  H   H9        1.0  0.86972  0.99978  0.58706  1.0000
  H   H10       1.0  0.13027  0.00025  0.41295  1.0000
  H   H11       1.0  0.48511  0.59243  0.70649  1.0000
  H   H12       1.0  0.51489  0.40752  0.29351  1.0000
  H   H13       1.0  0.34337  0.96128  0.00161  1.0000
  H   H14       1.0  0.65660  0.03876  0.99840  1.0000
  H   H15       1.0  0.53864  0.73251  0.03756  1.0000
  H   H16       1.0  0.46137  0.26750  0.96245  1.0000
  H   H17       1.0  0.46917  0.71729  0.87942  1.0000
  H   H18       1.0  0.53084  0.28272  0.12059  1.0000
  Pb  Pb1       1.0  0.74180  0.51326  0.95628  1.0000
  Pb  Pb2       1.0  0.25823  0.48675  0.04372  1.0000
  Pb  Pb3       1.0  0.58809  0.11813  0.69390  1.0000
  Pb  Pb4       1.0  0.41190  0.88187  0.30610  1.0000
  C   C1        1.0  0.29544  0.68998  0.56982  1.0000
  C   C2        1.0  0.70457  0.30999  0.43018  1.0000
  C   C3        1.0  0.15437  0.67366  0.45090  1.0000
  C   C4        1.0  0.84565  0.32631  0.54910  1.0000
  C   C5        1.0  0.31582  0.45542  0.54384  1.0000
  C   C6        1.0  0.68419  0.54455  0.45615  1.0000
  C   C7        1.0  0.37673  0.82465  0.64010  1.0000
  C   C8        1.0  0.62326  0.17533  0.35990  1.0000
  C   C9        1.0  0.18070  0.44107  0.42197  1.0000
  C   C10       1.0  0.81932  0.55890  0.57802  1.0000
  C   C11       1.0  0.40551  0.34119  0.59601  1.0000
  C   C12       1.0  0.59450  0.65878  0.40398  1.0000
  C   C13       1.0  0.09935  0.55016  0.37569  1.0000
  C   C14       1.0  0.90067  0.44981  0.62430  1.0000
  C   C15       1.0  0.93463  0.90474  0.77551  1.0000
  C   C16       1.0  0.06536  0.09528  0.22448  1.0000
  C   C17       1.0  0.06783  0.89218  0.89350  1.0000
  C   C18       1.0  0.93215  0.10785  0.10650  1.0000
  C   C19       1.0  0.96317  0.53802  0.24074  1.0000
  C   C20       1.0  0.03685  0.46198  0.75927  1.0000
  C   C21       1.0  0.13128  0.06690  0.70968  1.0000
  C   C22       1.0  0.86870  0.93314  0.29033  1.0000
  C   C23       1.0  0.96883  0.99080  0.68208  1.0000
  C   C24       1.0  0.03116  0.00923  0.31792  1.0000
  C   C25       1.0  0.37358  0.58027  0.61591  1.0000
  C   C26       1.0  0.62642  0.41970  0.38409  1.0000
  C   C27       1.0  0.23043  0.96731  0.91561  1.0000
  C   C28       1.0  0.76954  0.03273  0.08440  1.0000
  C   C29       1.0  0.03651  0.79347  0.99244  1.0000
  C   C30       1.0  0.96348  0.20655  0.00756  1.0000
  N   N1        1.0  0.25773  0.05419  0.82570  1.0000
  N   N2        1.0  0.74225  0.94585  0.17431  1.0000
  O   O1        1.0  0.41438  0.12776  0.85220  1.0000
  O   O2        1.0  0.58561  0.87227  0.14780  1.0000
  O   O3        1.0  0.98707  0.46178  0.14631  1.0000
  O   O4        1.0  0.01295  0.53822  0.85368  1.0000
  O   O5        1.0  0.35362  0.92420  0.56686  1.0000
  O   O6        1.0  0.64635  0.07577  0.43315  1.0000
  O   O7        1.0  0.46905  0.83665  0.76306  1.0000
  O   O8        1.0  0.53093  0.16334  0.23695  1.0000
  O   O9        1.0  0.53853  0.36239  0.70130  1.0000
  O   O10       1.0  0.46149  0.63759  0.29868  1.0000
  O   O11       1.0  0.87798  0.74919  0.97638  1.0000
  O   O12       1.0  0.12201  0.25082  0.02361  1.0000
  O   O13       1.0  0.83588  0.60028  0.22069  1.0000
  O   O14       1.0  0.16414  0.39972  0.77933  1.0000
  O   O15       1.0  0.16747  0.76198  0.08011  1.0000
  O   O16       1.0  0.83252  0.23805  0.91989  1.0000
  O   O17       1.0  0.34844  0.22539  0.53319  1.0000
  O   O18       1.0  0.65155  0.77458  0.46681  1.0000
  O   O19       1.0  0.48995  0.66294  0.95964  1.0000
  O   O20       1.0  0.51006  0.33707  0.04037  1.0000
