data_image0
_chemical_formula_structural       CuH32C32N4Cl2O2
_chemical_formula_sum              "Cu1 H32 C32 N4 Cl2 O2"
_cell_length_a       8.93913
_cell_length_b       8.93777
_cell_length_c       11.3273
_cell_angle_alpha    91.3327
_cell_angle_beta     112.644
_cell_angle_gamma    118.871

_space_group_name_H-M_alt    "P 1"
_space_group_IT_number       1

loop_
  _space_group_symop_operation_xyz
  'x, y, z'

loop_
  _atom_site_type_symbol
  _atom_site_label
  _atom_site_symmetry_multiplicity
  _atom_site_fract_x
  _atom_site_fract_y
  _atom_site_fract_z
  _atom_site_occupancy
  Cu  Cu1       1.0  0.10067  0.60082  0.49993  1.0000
  H   H1        1.0  0.10029  0.81145  0.71055  1.0000
  H   H2        1.0  0.10091  0.38987  0.28933  1.0000
  H   H3        1.0  0.71591  0.50911  0.32490  1.0000
  H   H4        1.0  0.18433  0.39145  0.67498  1.0000
  H   H5        1.0  0.45849  0.53709  0.33525  1.0000
  H   H6        1.0  0.20191  0.12355  0.66471  1.0000
  H   H7        1.0  0.53496  0.73074  0.54353  1.0000
  H   H8        1.0  0.18713  0.99154  0.45647  1.0000
  H   H9        1.0  0.96079  0.05484  0.75357  1.0000
  H   H10       1.0  0.30145  0.20723  0.24657  1.0000
  H   H11       1.0  0.75057  0.90016  0.76351  1.0000
  H   H12       1.0  0.13671  0.98702  0.23659  1.0000
  H   H13       1.0  0.00815  0.80725  0.05450  1.0000
  H   H14       1.0  0.75292  0.95371  0.94554  1.0000
  H   H15       1.0  0.62809  0.64375  0.80339  1.0000
  H   H16       1.0  0.84037  0.82464  0.19656  1.0000
  H   H17       1.0  0.77796  0.55854  0.85733  1.0000
  H   H18       1.0  0.70140  0.92078  0.14268  1.0000
  H   H19       1.0  0.50361  0.41144  0.91417  1.0000
  H   H20       1.0  0.49710  0.58958  0.08560  1.0000
  H   H21       1.0  0.72577  0.52345  0.05800  1.0000
  H   H22       1.0  0.46557  0.66803  0.94185  1.0000
  H   H23       1.0  0.52472  0.27858  0.11596  1.0000
  H   H24       1.0  0.16266  0.40871  0.88401  1.0000
  H   H25       1.0  0.75175  0.27611  0.32913  1.0000
  H   H26       1.0  0.94675  0.42235  0.67083  1.0000
  H   H27       1.0  0.67813  0.99201  0.39128  1.0000
  H   H28       1.0  0.60056  0.28652  0.60879  1.0000
  H   H29       1.0  0.38450  0.70806  0.23122  1.0000
  H   H30       1.0  0.47699  0.15319  0.76901  1.0000
  H   H31       1.0  0.16597  0.71079  0.02111  1.0000
  H   H32       1.0  0.69006  0.14498  0.97912  1.0000
  C   C1        1.0  0.95693  0.75726  0.63022  1.0000
  C   C2        1.0  0.12707  0.32690  0.36968  1.0000
  C   C3        1.0  0.74011  0.58348  0.41455  1.0000
  C   C4        1.0  0.16910  0.32596  0.58538  1.0000
  C   C5        1.0  0.59890  0.60401  0.42102  1.0000
  C   C6        1.0  0.18306  0.17819  0.57894  1.0000
  C   C7        1.0  0.64230  0.71041  0.53575  1.0000
  C   C8        1.0  0.17461  0.10670  0.46422  1.0000
  C   C9        1.0  0.82563  0.79147  0.64222  1.0000
  C   C10       1.0  0.14924  0.18353  0.35773  1.0000
  C   C11       1.0  0.88099  0.91968  0.76264  1.0000
  C   C12       1.0  0.15717  0.11837  0.23741  1.0000
  C   C13       1.0  0.90521  0.82092  0.97113  1.0000
  C   C14       1.0  0.84992  0.93411  0.02891  1.0000
  C   C15       1.0  0.73045  0.63540  0.89202  1.0000
  C   C16       1.0  0.74345  0.83849  0.10796  1.0000
  C   C17       1.0  0.62859  0.54350  0.97394  1.0000
  C   C18       1.0  0.56953  0.65479  0.02593  1.0000
  C   C19       1.0  0.19418  0.00704  0.93220  1.0000
  C   C20       1.0  0.07512  0.26203  0.06784  1.0000
  C   C21       1.0  0.32520  0.99675  0.05813  1.0000
  C   C22       1.0  0.93882  0.26712  0.94196  1.0000
  C   C23       1.0  0.49442  0.15497  0.14393  1.0000
  C   C24       1.0  0.01111  0.35044  0.85609  1.0000
  C   C25       1.0  0.62032  0.15288  0.26329  1.0000
  C   C26       1.0  0.88951  0.35684  0.73674  1.0000
  C   C27       1.0  0.57990  0.99326  0.29759  1.0000
  C   C28       1.0  0.69563  0.28209  0.70249  1.0000
  C   C29       1.0  0.41633  0.83487  0.20964  1.0000
  C   C30       1.0  0.62534  0.20658  0.79052  1.0000
  C   C31       1.0  0.29041  0.83621  0.08999  1.0000
  C   C32       1.0  0.74647  0.20047  0.91018  1.0000
  N   N1        1.0  0.91558  0.65668  0.51834  1.0000
  N   N2        1.0  0.13839  0.39751  0.48154  1.0000
  N   N3        1.0  0.00012  0.90851  0.88976  1.0000
  N   N4        1.0  0.01895  0.11038  0.11026  1.0000
  Cl  Cl1       1.0  0.33920  0.74250  0.70497  1.0000
  Cl  Cl2       1.0  0.03727  0.63433  0.29491  1.0000
  O   O1        1.0  0.26333  0.10350  0.86588  1.0000
  O   O2        1.0  0.23791  0.39745  0.13416  1.0000
