data_image0
_chemical_formula_structural       Zn4H52C56N8O20F8
_chemical_formula_sum              "Zn4 H52 C56 N8 O20 F8"
_cell_length_a       8.01188
_cell_length_b       14.1342
_cell_length_c       14.243
_cell_angle_alpha    96.4532
_cell_angle_beta     106.681
_cell_angle_gamma    89.9595

_space_group_name_H-M_alt    "P 1"
_space_group_IT_number       1

loop_
  _space_group_symop_operation_xyz
  'x, y, z'

loop_
  _atom_site_type_symbol
  _atom_site_label
  _atom_site_symmetry_multiplicity
  _atom_site_fract_x
  _atom_site_fract_y
  _atom_site_fract_z
  _atom_site_occupancy
  Zn  Zn1       1.0  0.45650  0.65690  0.90681  1.0000
  Zn  Zn2       1.0  0.54922  0.84301  0.09214  1.0000
  Zn  Zn3       1.0  0.54349  0.34310  0.09319  1.0000
  Zn  Zn4       1.0  0.45078  0.15699  0.90787  1.0000
  H   H1        1.0  0.61377  0.46634  0.91809  1.0000
  H   H2        1.0  0.69599  0.03323  0.08187  1.0000
  H   H3        1.0  0.38623  0.53366  0.08191  1.0000
  H   H4        1.0  0.30402  0.96677  0.91813  1.0000
  H   H5        1.0  0.67295  0.33447  0.80426  1.0000
  H   H6        1.0  0.86895  0.16538  0.19630  1.0000
  H   H7        1.0  0.32705  0.66553  0.19574  1.0000
  H   H8        1.0  0.13106  0.83462  0.80370  1.0000
  H   H9        1.0  0.43275  0.49747  0.56318  1.0000
  H   H10       1.0  0.86946  0.00280  0.43686  1.0000
  H   H11       1.0  0.56725  0.50253  0.43682  1.0000
  H   H12       1.0  0.13054  0.99720  0.56314  1.0000
  H   H13       1.0  0.37025  0.62026  0.68724  1.0000
  H   H14       1.0  0.68309  0.87967  0.31202  1.0000
  H   H15       1.0  0.62975  0.37974  0.31276  1.0000
  H   H16       1.0  0.31691  0.12033  0.68799  1.0000
  H   H17       1.0  0.85025  0.15956  0.60123  1.0000
  H   H18       1.0  0.24876  0.34089  0.39968  1.0000
  H   H19       1.0  0.14975  0.84043  0.39876  1.0000
  H   H20       1.0  0.75124  0.65911  0.60032  1.0000
  H   H21       1.0  0.71847  0.20980  0.49712  1.0000
  H   H22       1.0  0.22285  0.29058  0.50367  1.0000
  H   H23       1.0  0.28153  0.79020  0.50288  1.0000
  H   H24       1.0  0.77715  0.70942  0.49633  1.0000
  H   H25       1.0  0.91778  0.70239  0.93686  1.0000
  H   H26       1.0  0.97988  0.79761  0.06282  1.0000
  H   H27       1.0  0.08222  0.29761  0.06314  1.0000
  H   H28       1.0  0.02012  0.20239  0.93718  1.0000
  H   H29       1.0  0.92077  0.57769  0.91496  1.0000
  H   H30       1.0  0.00525  0.92228  0.08481  1.0000
  H   H31       1.0  0.07922  0.42231  0.08504  1.0000
  H   H32       1.0  0.99474  0.07772  0.91519  1.0000
  H   H33       1.0  0.84327  0.64605  0.81320  1.0000
  H   H34       1.0  0.03082  0.85395  0.18647  1.0000
  H   H35       1.0  0.15673  0.35395  0.18680  1.0000
  H   H36       1.0  0.96918  0.14605  0.81353  1.0000
  H   H37       1.0  0.62804  0.94866  0.80263  1.0000
  H   H38       1.0  0.82619  0.55149  0.19751  1.0000
  H   H39       1.0  0.37196  0.05134  0.19737  1.0000
  H   H40       1.0  0.17381  0.44851  0.80249  1.0000
  H   H41       1.0  0.73812  0.84511  0.77489  1.0000
  H   H42       1.0  0.96485  0.65486  0.22600  1.0000
  H   H43       1.0  0.26188  0.15489  0.22511  1.0000
  H   H44       1.0  0.03515  0.34514  0.77400  1.0000
  H   H45       1.0  0.83472  0.92770  0.88324  1.0000
  H   H46       1.0  0.95243  0.57226  0.11781  1.0000
  H   H47       1.0  0.16528  0.07230  0.11676  1.0000
  H   H48       1.0  0.04757  0.42774  0.88219  1.0000
  H   H49       1.0  0.64915  0.22834  0.69280  1.0000
  H   H50       1.0  0.95611  0.27151  0.30734  1.0000
  H   H51       1.0  0.35085  0.77166  0.30720  1.0000
  H   H52       1.0  0.04389  0.72849  0.69266  1.0000
  C   C1        1.0  0.57125  0.46920  0.83865  1.0000
  C   C2        1.0  0.73294  0.03052  0.16129  1.0000
  C   C3        1.0  0.42875  0.53079  0.16135  1.0000
  C   C4        1.0  0.26706  0.96948  0.83871  1.0000
  C   C5        1.0  0.60597  0.39603  0.77391  1.0000
  C   C6        1.0  0.83226  0.10387  0.22640  1.0000
  C   C7        1.0  0.39404  0.60397  0.22609  1.0000
  C   C8        1.0  0.16775  0.89613  0.77360  1.0000
  C   C9        1.0  0.55623  0.40436  0.67273  1.0000
  C   C10       1.0  0.88352  0.09574  0.32761  1.0000
  C   C11       1.0  0.44378  0.59564  0.32727  1.0000
  C   C12       1.0  0.11648  0.90426  0.67239  1.0000
  C   C13       1.0  0.46964  0.48607  0.64064  1.0000
  C   C14       1.0  0.82900  0.01406  0.35935  1.0000
  C   C15       1.0  0.53036  0.51393  0.35936  1.0000
  C   C16       1.0  0.17100  0.98594  0.64065  1.0000
  C   C17       1.0  0.43649  0.55552  0.70945  1.0000
  C   C18       1.0  0.72721  0.94439  0.29015  1.0000
  C   C19       1.0  0.56351  0.44448  0.29055  1.0000
  C   C20       1.0  0.27279  0.05561  0.70986  1.0000
  C   C21       1.0  0.60344  0.33412  0.59728  1.0000
  C   C22       1.0  0.00640  0.16618  0.40339  1.0000
  C   C23       1.0  0.39656  0.66588  0.40273  1.0000
  C   C24       1.0  0.99361  0.83382  0.59661  1.0000
  C   C25       1.0  0.71606  0.17681  0.56284  1.0000
  C   C26       1.0  0.15358  0.32350  0.43786  1.0000
  C   C27       1.0  0.28394  0.82319  0.43716  1.0000
  C   C28       1.0  0.84642  0.67650  0.56214  1.0000
  C   C29       1.0  0.60390  0.08640  0.53233  1.0000
  C   C30       1.0  0.07170  0.41377  0.46804  1.0000
  C   C31       1.0  0.39610  0.91360  0.46767  1.0000
  C   C32       1.0  0.92830  0.58623  0.53196  1.0000
  C   C33       1.0  0.45690  0.07842  0.45027  1.0000
  C   C34       1.0  0.00716  0.42149  0.54964  1.0000
  C   C35       1.0  0.54309  0.92158  0.54973  1.0000
  C   C36       1.0  0.99284  0.57851  0.45036  1.0000
  C   C37       1.0  0.64344  0.00574  0.58178  1.0000
  C   C38       1.0  0.06130  0.49442  0.41866  1.0000
  C   C39       1.0  0.35656  0.99426  0.41822  1.0000
  C   C40       1.0  0.93869  0.50558  0.58134  1.0000
  C   C41       1.0  0.12271  0.65257  0.87822  1.0000
  C   C42       1.0  0.24469  0.84729  0.12199  1.0000
  C   C43       1.0  0.87728  0.34743  0.12178  1.0000
  C   C44       1.0  0.75531  0.15271  0.87801  1.0000
  C   C45       1.0  0.93962  0.64364  0.88491  1.0000
  C   C46       1.0  0.05455  0.85630  0.11488  1.0000
  C   C47       1.0  0.06038  0.35636  0.11509  1.0000
  C   C48       1.0  0.94545  0.14370  0.88512  1.0000
  C   C49       1.0  0.62390  0.84004  0.89423  1.0000
  C   C50       1.0  0.73041  0.66012  0.10557  1.0000
  C   C51       1.0  0.37610  0.15996  0.10577  1.0000
  C   C52       1.0  0.26959  0.33988  0.89443  1.0000
  C   C53       1.0  0.71359  0.89273  0.83509  1.0000
  C   C54       1.0  0.87954  0.60734  0.16546  1.0000
  C   C55       1.0  0.28641  0.10727  0.16491  1.0000
  C   C56       1.0  0.12046  0.39266  0.83454  1.0000
  N   N1        1.0  0.48767  0.54759  0.80703  1.0000
  N   N2        1.0  0.68095  0.95215  0.19254  1.0000
  N   N3        1.0  0.51233  0.45240  0.19297  1.0000
  N   N4        1.0  0.31906  0.04785  0.80746  1.0000
  N   N5        1.0  0.65172  0.24743  0.62533  1.0000
  N   N6        1.0  0.02617  0.25277  0.37521  1.0000
  N   N7        1.0  0.34828  0.75257  0.37467  1.0000
  N   N8        1.0  0.97384  0.74723  0.62479  1.0000
  O   O1        1.0  0.24885  0.63808  0.95489  1.0000
  O   O2        1.0  0.29279  0.86155  0.04529  1.0000
  O   O3        1.0  0.75115  0.36192  0.04511  1.0000
  O   O4        1.0  0.70721  0.13845  0.95471  1.0000
  O   O5        1.0  0.15332  0.67423  0.80080  1.0000
  O   O6        1.0  0.35386  0.82584  0.19963  1.0000
  O   O7        1.0  0.84668  0.32577  0.19920  1.0000
  O   O8        1.0  0.64614  0.17416  0.80037  1.0000
  O   O9        1.0  0.53680  0.76398  0.85137  1.0000
  O   O10       1.0  0.68551  0.73598  0.14809  1.0000
  O   O11       1.0  0.46320  0.23602  0.14863  1.0000
  O   O12       1.0  0.31449  0.26402  0.85191  1.0000
  O   O13       1.0  0.64044  0.87605  0.98258  1.0000
  O   O14       1.0  0.65910  0.62436  0.01688  1.0000
  O   O15       1.0  0.35956  0.12395  0.01742  1.0000
  O   O16       1.0  0.34090  0.37565  0.98312  1.0000
  O   O17       1.0  0.60044  0.35852  0.51549  1.0000
  O   O18       1.0  0.08588  0.14203  0.48546  1.0000
  O   O19       1.0  0.39957  0.64149  0.48451  1.0000
  O   O20       1.0  0.91412  0.85797  0.51454  1.0000
  F   F1        1.0  0.78370  0.00858  0.66287  1.0000
  F   F2        1.0  0.11992  0.49157  0.33794  1.0000
  F   F3        1.0  0.21630  0.99142  0.33713  1.0000
  F   F4        1.0  0.88008  0.50843  0.66206  1.0000
  F   F5        1.0  0.41203  0.15465  0.39945  1.0000
  F   F6        1.0  0.01381  0.34516  0.60026  1.0000
  F   F7        1.0  0.58796  0.84535  0.60055  1.0000
  F   F8        1.0  0.98619  0.65484  0.39974  1.0000
