data_image0
_chemical_formula_structural       Ca2H16C20N8O20
_chemical_formula_sum              "Ca2 H16 C20 N8 O20"
_cell_length_a       7.58192
_cell_length_b       8.18053
_cell_length_c       10.8197
_cell_angle_alpha    91.3605
_cell_angle_beta     102.817
_cell_angle_gamma    93.1631

_space_group_name_H-M_alt    "P 1"
_space_group_IT_number       1

loop_
  _space_group_symop_operation_xyz
  'x, y, z'

loop_
  _atom_site_type_symbol
  _atom_site_label
  _atom_site_symmetry_multiplicity
  _atom_site_fract_x
  _atom_site_fract_y
  _atom_site_fract_z
  _atom_site_occupancy
  Ca  Ca1       1.0  0.22744  0.36161  0.83631  1.0000
  Ca  Ca2       1.0  0.77256  0.63839  0.16369  1.0000
  H   H1        1.0  0.31774  0.99111  0.88872  1.0000
  H   H2        1.0  0.68226  0.00889  0.11128  1.0000
  H   H3        1.0  0.21360  0.17665  0.13194  1.0000
  H   H4        1.0  0.78640  0.82335  0.86806  1.0000
  H   H5        1.0  0.00471  0.14398  0.62884  1.0000
  H   H6        1.0  0.99529  0.85602  0.37116  1.0000
  H   H7        1.0  0.11055  0.28406  0.56364  1.0000
  H   H8        1.0  0.88945  0.71594  0.43636  1.0000
  H   H9        1.0  0.89686  0.14773  0.85789  1.0000
  H   H10       1.0  0.10314  0.85227  0.14212  1.0000
  H   H11       1.0  0.90437  0.29864  0.95225  1.0000
  H   H12       1.0  0.09563  0.70137  0.04775  1.0000
  H   H13       1.0  0.40891  0.86057  0.49490  1.0000
  H   H14       1.0  0.59109  0.13943  0.50510  1.0000
  H   H15       1.0  0.40314  0.67538  0.33227  1.0000
  H   H16       1.0  0.59686  0.32462  0.66773  1.0000
  C   C1        1.0  0.23502  0.75875  0.87123  1.0000
  C   C2        1.0  0.76498  0.24124  0.12877  1.0000
  C   C3        1.0  0.27839  0.53093  0.45791  1.0000
  C   C4        1.0  0.72161  0.46907  0.54209  1.0000
  C   C5        1.0  0.27856  0.75413  0.74507  1.0000
  C   C6        1.0  0.72144  0.24587  0.25493  1.0000
  C   C7        1.0  0.30284  0.42913  0.27212  1.0000
  C   C8        1.0  0.69716  0.57087  0.72788  1.0000
  C   C9        1.0  0.35222  0.87672  0.67980  1.0000
  C   C10       1.0  0.64778  0.12328  0.32020  1.0000
  C   C11       1.0  0.15812  0.13938  0.30135  1.0000
  C   C12       1.0  0.84188  0.86062  0.69865  1.0000
  C   C13       1.0  0.21982  0.31185  0.33665  1.0000
  C   C14       1.0  0.78018  0.68815  0.66335  1.0000
  C   C15       1.0  0.29229  0.64532  0.56399  1.0000
  C   C16       1.0  0.70771  0.35468  0.43601  1.0000
  C   C17       1.0  0.41447  0.04967  0.71365  1.0000
  C   C18       1.0  0.58553  0.95033  0.28635  1.0000
  C   C19       1.0  0.36096  0.42676  0.15014  1.0000
  C   C20       1.0  0.63904  0.57324  0.84986  1.0000
  N   N1        1.0  0.33926  0.56516  0.35131  1.0000
  N   N2        1.0  0.66074  0.43484  0.64869  1.0000
  N   N3        1.0  0.20717  0.37719  0.45181  1.0000
  N   N4        1.0  0.79283  0.62281  0.54819  1.0000
  N   N5        1.0  0.35893  0.80430  0.56599  1.0000
  N   N6        1.0  0.64107  0.19570  0.43401  1.0000
  N   N7        1.0  0.24409  0.61110  0.67275  1.0000
  N   N8        1.0  0.75591  0.38889  0.32725  1.0000
  O   O1        1.0  0.16586  0.63251  0.91013  1.0000
  O   O2        1.0  0.83414  0.36750  0.08987  1.0000
  O   O3        1.0  0.26546  0.89514  0.93937  1.0000
  O   O4        1.0  0.73454  0.10486  0.06063  1.0000
  O   O5        1.0  0.10212  0.05085  0.37724  1.0000
  O   O6        1.0  0.89788  0.94915  0.62276  1.0000
  O   O7        1.0  0.16526  0.08438  0.18594  1.0000
  O   O8        1.0  0.83473  0.91561  0.81406  1.0000
  O   O9        1.0  0.38020  0.10983  0.81629  1.0000
  O   O10       1.0  0.61980  0.89017  0.18371  1.0000
  O   O11       1.0  0.49517  0.12793  0.64164  1.0000
  O   O12       1.0  0.50483  0.87207  0.35836  1.0000
  O   O13       1.0  0.29529  0.30738  0.06980  1.0000
  O   O14       1.0  0.70471  0.69262  0.93020  1.0000
  O   O15       1.0  0.46955  0.54062  0.13352  1.0000
  O   O16       1.0  0.53045  0.45938  0.86648  1.0000
  O   O17       1.0  0.06453  0.25545  0.64097  1.0000
  O   O18       1.0  0.93547  0.74455  0.35903  1.0000
  O   O19       1.0  0.94748  0.26092  0.87708  1.0000
  O   O20       1.0  0.05252  0.73908  0.12292  1.0000
