data_image0
_chemical_formula_structural       Sr2H28C12O16
_chemical_formula_sum              "Sr2 H28 C12 O16"
_cell_length_a       6.83365
_cell_length_b       7.0896
_cell_length_c       12.3507
_cell_angle_alpha    88.2248
_cell_angle_beta     83.8079
_cell_angle_gamma    73.2684

_space_group_name_H-M_alt    "P 1"
_space_group_IT_number       1

loop_
  _space_group_symop_operation_xyz
  'x, y, z'

loop_
  _atom_site_type_symbol
  _atom_site_label
  _atom_site_symmetry_multiplicity
  _atom_site_fract_x
  _atom_site_fract_y
  _atom_site_fract_z
  _atom_site_occupancy
  Sr  Sr1       1.0  0.93787  0.27354  0.92005  1.0000
  Sr  Sr2       1.0  0.06213  0.72646  0.07995  1.0000
  H   H1        1.0  0.37949  0.57418  0.59113  1.0000
  H   H2        1.0  0.62051  0.42582  0.40887  1.0000
  H   H3        1.0  0.36441  0.74745  0.69632  1.0000
  H   H4        1.0  0.63559  0.25255  0.30368  1.0000
  H   H5        1.0  0.26694  0.54315  0.72679  1.0000
  H   H6        1.0  0.73306  0.45685  0.27321  1.0000
  H   H7        1.0  0.29652  0.13834  0.26291  1.0000
  H   H8        1.0  0.70348  0.86166  0.73709  1.0000
  H   H9        1.0  0.06501  0.08864  0.31045  1.0000
  H   H10       1.0  0.93499  0.91136  0.68955  1.0000
  H   H11       1.0  0.08073  0.33808  0.31032  1.0000
  H   H12       1.0  0.91927  0.66193  0.68969  1.0000
  H   H13       1.0  0.05601  0.15388  0.51199  1.0000
  H   H14       1.0  0.94399  0.84612  0.48801  1.0000
  H   H15       1.0  0.32754  0.03736  0.48720  1.0000
  H   H16       1.0  0.67246  0.96264  0.51280  1.0000
  H   H17       1.0  0.23066  0.29764  0.49365  1.0000
  H   H18       1.0  0.76934  0.70236  0.50635  1.0000
  H   H19       1.0  0.87533  0.31681  0.66649  1.0000
  H   H20       1.0  0.12467  0.68319  0.33351  1.0000
  H   H21       1.0  0.38015  0.12523  0.81543  1.0000
  H   H22       1.0  0.61985  0.87477  0.18457  1.0000
  H   H23       1.0  0.43126  0.18789  0.93406  1.0000
  H   H24       1.0  0.56874  0.81211  0.06594  1.0000
  H   H25       1.0  0.61525  0.11440  0.06468  1.0000
  H   H26       1.0  0.38475  0.88560  0.93532  1.0000
  H   H27       1.0  0.52120  0.34627  0.08979  1.0000
  H   H28       1.0  0.47880  0.65373  0.91021  1.0000
  C   C1        1.0  0.59123  0.47502  0.71286  1.0000
  C   C2        1.0  0.40878  0.52499  0.28714  1.0000
  C   C3        1.0  0.38796  0.59108  0.67814  1.0000
  C   C4        1.0  0.61204  0.40892  0.32186  1.0000
  C   C5        1.0  0.06454  0.22199  0.15282  1.0000
  C   C6        1.0  0.93546  0.77801  0.84718  1.0000
  C   C7        1.0  0.12863  0.19794  0.26646  1.0000
  C   C8        1.0  0.87136  0.80207  0.73354  1.0000
  C   C9        1.0  0.22601  0.16059  0.64912  1.0000
  C   C10       1.0  0.77399  0.83941  0.35088  1.0000
  C   C11       1.0  0.20874  0.15936  0.52842  1.0000
  C   C12       1.0  0.79126  0.84064  0.47158  1.0000
  O   O1        1.0  0.73058  0.38951  0.63444  1.0000
  O   O2        1.0  0.26942  0.61048  0.36556  1.0000
  O   O3        1.0  0.62438  0.46427  0.81122  1.0000
  O   O4        1.0  0.37562  0.53573  0.18878  1.0000
  O   O5        1.0  0.01539  0.39229  0.10847  1.0000
  O   O6        1.0  0.98461  0.60771  0.89153  1.0000
  O   O7        1.0  0.06062  0.07006  0.10211  1.0000
  O   O8        1.0  0.93938  0.92994  0.89789  1.0000
  O   O9        1.0  0.05842  0.23354  0.71253  1.0000
  O   O10       1.0  0.94158  0.76646  0.28747  1.0000
  O   O11       1.0  0.39919  0.09616  0.68433  1.0000
  O   O12       1.0  0.60081  0.90384  0.31567  1.0000
  O   O13       1.0  0.59068  0.24933  0.03161  1.0000
  O   O14       1.0  0.40932  0.75067  0.96839  1.0000
  O   O15       1.0  0.34232  0.12743  0.89717  1.0000
  O   O16       1.0  0.65768  0.87257  0.10283  1.0000
