data_image0
_chemical_formula_structural       Sn4H68C52O8F4
_chemical_formula_sum              "Sn4 H68 C52 O8 F4"
_cell_length_a       9.8431
_cell_length_b       11.2373
_cell_length_c       13.9493
_cell_angle_alpha    100.245
_cell_angle_beta     110.079
_cell_angle_gamma    101.771

_space_group_name_H-M_alt    "P 1"
_space_group_IT_number       1

loop_
  _space_group_symop_operation_xyz
  'x, y, z'

loop_
  _atom_site_type_symbol
  _atom_site_label
  _atom_site_symmetry_multiplicity
  _atom_site_fract_x
  _atom_site_fract_y
  _atom_site_fract_z
  _atom_site_occupancy
  Sn  Sn1       1.0  0.32460  0.04893  0.72064  1.0000
  Sn  Sn2       1.0  0.67540  0.95107  0.27936  1.0000
  Sn  Sn3       1.0  0.83225  0.96437  0.78172  1.0000
  Sn  Sn4       1.0  0.16775  0.03563  0.21828  1.0000
  H   H1        1.0  0.90119  0.30761  0.62740  1.0000
  H   H2        1.0  0.09881  0.69239  0.37260  1.0000
  H   H3        1.0  0.86417  0.17029  0.67170  1.0000
  H   H4        1.0  0.13583  0.82971  0.32830  1.0000
  H   H5        1.0  0.93104  0.32099  0.76210  1.0000
  H   H6        1.0  0.06897  0.67902  0.23790  1.0000
  H   H7        1.0  0.50265  0.31466  0.57093  1.0000
  H   H8        1.0  0.49735  0.68535  0.42907  1.0000
  H   H9        1.0  0.60831  0.51624  0.31703  1.0000
  H   H10       1.0  0.39169  0.48376  0.68297  1.0000
  H   H11       1.0  0.86828  0.66421  0.42001  1.0000
  H   H12       1.0  0.13172  0.33579  0.58000  1.0000
  H   H13       1.0  0.01224  0.66236  0.60526  1.0000
  H   H14       1.0  0.98775  0.33763  0.39474  1.0000
  H   H15       1.0  0.90055  0.51250  0.68613  1.0000
  H   H16       1.0  0.09944  0.48751  0.31387  1.0000
  H   H17       1.0  0.10487  0.11551  0.57943  1.0000
  H   H18       1.0  0.89512  0.88449  0.42057  1.0000
  H   H19       1.0  0.19914  0.24021  0.69942  1.0000
  H   H20       1.0  0.80086  0.75979  0.30058  1.0000
  H   H21       1.0  0.06146  0.10411  0.69285  1.0000
  H   H22       1.0  0.93854  0.89589  0.30716  1.0000
  H   H23       1.0  0.38477  0.08242  0.93152  1.0000
  H   H24       1.0  0.61523  0.91758  0.06848  1.0000
  H   H25       1.0  0.50227  0.21204  0.91111  1.0000
  H   H26       1.0  0.49774  0.78797  0.08889  1.0000
  H   H27       1.0  0.55001  0.06768  0.90847  1.0000
  H   H28       1.0  0.44999  0.93232  0.09153  1.0000
  H   H29       1.0  0.39296  0.83661  0.64345  1.0000
  H   H30       1.0  0.60704  0.16339  0.35655  1.0000
  H   H31       1.0  0.33494  0.91659  0.54380  1.0000
  H   H32       1.0  0.66506  0.08341  0.45620  1.0000
  H   H33       1.0  0.19681  0.82121  0.57647  1.0000
  H   H34       1.0  0.80319  0.17878  0.42352  1.0000
  H   H35       1.0  0.38086  0.70358  0.87866  1.0000
  H   H36       1.0  0.61914  0.29642  0.12133  1.0000
  H   H37       1.0  0.37347  0.84869  0.84692  1.0000
  H   H38       1.0  0.62653  0.15131  0.15308  1.0000
  H   H39       1.0  0.28441  0.70537  0.74554  1.0000
  H   H40       1.0  0.71559  0.29463  0.25445  1.0000
  H   H41       1.0  0.02032  0.68495  0.91937  1.0000
  H   H42       1.0  0.97968  0.31504  0.08062  1.0000
  H   H43       1.0  0.34064  0.34151  0.90112  1.0000
  H   H44       1.0  0.65937  0.65849  0.09888  1.0000
  H   H45       1.0  0.38090  0.35018  0.08957  1.0000
  H   H46       1.0  0.61911  0.64983  0.91043  1.0000
  H   H47       1.0  0.29073  0.50369  0.18815  1.0000
  H   H48       1.0  0.70927  0.49632  0.81185  1.0000
  H   H49       1.0  0.16824  0.64931  0.09915  1.0000
  H   H50       1.0  0.83176  0.35069  0.90084  1.0000
  H   H51       1.0  0.56341  0.87620  0.79575  1.0000
  H   H52       1.0  0.43659  0.12380  0.20425  1.0000
  H   H53       1.0  0.70997  0.93120  0.92602  1.0000
  H   H54       1.0  0.29003  0.06880  0.07397  1.0000
  H   H55       1.0  0.68650  0.78254  0.84103  1.0000
  H   H56       1.0  0.31349  0.21746  0.15896  1.0000
  H   H57       1.0  0.11967  0.10381  0.90425  1.0000
  H   H58       1.0  0.88032  0.89619  0.09575  1.0000
  H   H59       1.0  0.99885  0.13749  0.96986  1.0000
  H   H60       1.0  0.00115  0.86252  0.03015  1.0000
  H   H61       1.0  0.01102  0.20977  0.86756  1.0000
  H   H62       1.0  0.98898  0.79023  0.13244  1.0000
  H   H63       1.0  0.65921  0.91910  0.57246  1.0000
  H   H64       1.0  0.34079  0.08090  0.42754  1.0000
  H   H65       1.0  0.75936  0.80326  0.59276  1.0000
  H   H66       1.0  0.24065  0.19674  0.40724  1.0000
  H   H67       1.0  0.85396  0.95524  0.58995  1.0000
  H   H68       1.0  0.14604  0.04476  0.41005  1.0000
  C   C1        1.0  0.60617  0.17928  0.69466  1.0000
  C   C2        1.0  0.39383  0.82073  0.30534  1.0000
  C   C3        1.0  0.69566  0.26661  0.65427  1.0000
  C   C4        1.0  0.30434  0.73339  0.34573  1.0000
  C   C5        1.0  0.85635  0.26712  0.68003  1.0000
  C   C6        1.0  0.14365  0.73288  0.31997  1.0000
  C   C7        1.0  0.62396  0.33314  0.59194  1.0000
  C   C8        1.0  0.37604  0.66686  0.40806  1.0000
  C   C9        1.0  0.69320  0.42446  0.54759  1.0000
  C   C10       1.0  0.30681  0.57554  0.45241  1.0000
  C   C11       1.0  0.61452  0.43236  0.44483  1.0000
  C   C12       1.0  0.38548  0.56764  0.55517  1.0000
  C   C13       1.0  0.67414  0.51594  0.39762  1.0000
  C   C14       1.0  0.32585  0.48405  0.60237  1.0000
  C   C15       1.0  0.81939  0.59806  0.45573  1.0000
  C   C16       1.0  0.18061  0.40192  0.54427  1.0000
  C   C17       1.0  0.90050  0.59619  0.55923  1.0000
  C   C18       1.0  0.09950  0.40380  0.44077  1.0000
  C   C19       1.0  0.83810  0.51076  0.60435  1.0000
  C   C20       1.0  0.16191  0.48923  0.39566  1.0000
  C   C21       1.0  0.15077  0.13786  0.66626  1.0000
  C   C22       1.0  0.84923  0.86214  0.33375  1.0000
  C   C23       1.0  0.45588  0.10902  0.88874  1.0000
  C   C24       1.0  0.54413  0.89099  0.11126  1.0000
  C   C25       1.0  0.31133  0.88545  0.60806  1.0000
  C   C26       1.0  0.68867  0.11455  0.39194  1.0000
  C   C27       1.0  0.08023  0.83274  0.80779  1.0000
  C   C28       1.0  0.91976  0.16725  0.19221  1.0000
  C   C29       1.0  0.16778  0.74459  0.84823  1.0000
  C   C30       1.0  0.83222  0.25540  0.15177  1.0000
  C   C31       1.0  0.30881  0.74999  0.82881  1.0000
  C   C32       1.0  0.69119  0.25001  0.17118  1.0000
  C   C33       1.0  0.11854  0.67176  0.90390  1.0000
  C   C34       1.0  0.88147  0.32824  0.09610  1.0000
  C   C35       1.0  0.18817  0.58188  0.95176  1.0000
  C   C36       1.0  0.81183  0.41812  0.04824  1.0000
  C   C37       1.0  0.23738  0.49194  0.89943  1.0000
  C   C38       1.0  0.76262  0.50805  0.10057  1.0000
  C   C39       1.0  0.30633  0.40948  0.94690  1.0000
  C   C40       1.0  0.69367  0.59051  0.05311  1.0000
  C   C41       1.0  0.32720  0.41475  0.05178  1.0000
  C   C42       1.0  0.67279  0.58525  0.94822  1.0000
  C   C43       1.0  0.27627  0.50022  0.10653  1.0000
  C   C44       1.0  0.72373  0.49978  0.89346  1.0000
  C   C45       1.0  0.20673  0.58142  0.05659  1.0000
  C   C46       1.0  0.79327  0.41858  0.94341  1.0000
  C   C47       1.0  0.67841  0.87861  0.84371  1.0000
  C   C48       1.0  0.32158  0.12138  0.15629  1.0000
  C   C49       1.0  0.01218  0.12409  0.89408  1.0000
  C   C50       1.0  0.98782  0.87591  0.10592  1.0000
  C   C51       1.0  0.76867  0.90422  0.61332  1.0000
  C   C52       1.0  0.23133  0.09578  0.38668  1.0000
  O   O1        1.0  0.46984  0.18472  0.67763  1.0000
  O   O2        1.0  0.53015  0.81528  0.32237  1.0000
  O   O3        1.0  0.66280  0.10510  0.74341  1.0000
  O   O4        1.0  0.33720  0.89490  0.25659  1.0000
  O   O5        1.0  0.95830  0.82839  0.82487  1.0000
  O   O6        1.0  0.04169  0.17161  0.17513  1.0000
  O   O7        1.0  0.12560  0.90626  0.75927  1.0000
  O   O8        1.0  0.87439  0.09373  0.24074  1.0000
  F   F1        1.0  0.47273  0.35098  0.38690  1.0000
  F   F2        1.0  0.52727  0.64902  0.61311  1.0000
  F   F3        1.0  0.21178  0.48029  0.79470  1.0000
  F   F4        1.0  0.78822  0.51971  0.20530  1.0000
