data_image0
_chemical_formula_structural       Cd2H24C20S4N12
_chemical_formula_sum              "Cd2 H24 C20 S4 N12"
_cell_length_a       6.88958
_cell_length_b       10.0374
_cell_length_c       10.0374
_cell_angle_alpha    92.7691
_cell_angle_beta     89.9996
_cell_angle_gamma    90.0004

_space_group_name_H-M_alt    "P 1"
_space_group_IT_number       1

loop_
  _space_group_symop_operation_xyz
  'x, y, z'

loop_
  _atom_site_type_symbol
  _atom_site_label
  _atom_site_symmetry_multiplicity
  _atom_site_fract_x
  _atom_site_fract_y
  _atom_site_fract_z
  _atom_site_occupancy
  Cd  Cd1       1.0  0.43904  0.15157  0.84843  1.0000
  Cd  Cd2       1.0  0.93903  0.84843  0.15157  1.0000
  H   H1        1.0  0.80512  0.52925  0.17234  1.0000
  H   H2        1.0  0.30511  0.47076  0.82765  1.0000
  H   H3        1.0  0.30511  0.17235  0.52925  1.0000
  H   H4        1.0  0.80512  0.82766  0.47075  1.0000
  H   H5        1.0  0.81495  0.36465  0.94009  1.0000
  H   H6        1.0  0.31495  0.63536  0.05990  1.0000
  H   H7        1.0  0.31495  0.94010  0.36465  1.0000
  H   H8        1.0  0.81495  0.05991  0.63536  1.0000
  H   H9        1.0  0.12391  0.31918  0.07186  1.0000
  H   H10       1.0  0.62390  0.68082  0.92815  1.0000
  H   H11       1.0  0.62390  0.07185  0.31918  1.0000
  H   H12       1.0  0.12391  0.92814  0.68082  1.0000
  H   H13       1.0  0.18177  0.33885  0.24466  1.0000
  H   H14       1.0  0.68176  0.66115  0.75534  1.0000
  H   H15       1.0  0.68176  0.24466  0.33885  1.0000
  H   H16       1.0  0.18177  0.75534  0.66115  1.0000
  H   H17       1.0  0.22883  0.18449  0.15439  1.0000
  H   H18       1.0  0.72883  0.81551  0.84561  1.0000
  H   H19       1.0  0.72883  0.15439  0.18449  1.0000
  H   H20       1.0  0.22883  0.84561  0.81551  1.0000
  H   H21       1.0  0.47237  0.47996  0.27687  1.0000
  H   H22       1.0  0.97236  0.52004  0.72312  1.0000
  H   H23       1.0  0.97236  0.27688  0.47996  1.0000
  H   H24       1.0  0.47237  0.72313  0.52004  1.0000
  C   C1        1.0  0.47514  0.91462  0.08537  1.0000
  C   C2        1.0  0.97513  0.08537  0.91463  1.0000
  C   C3        1.0  0.61949  0.37174  0.62825  1.0000
  C   C4        1.0  0.11949  0.62825  0.37174  1.0000
  C   C5        1.0  0.42501  0.34203  0.11495  1.0000
  C   C6        1.0  0.92500  0.65797  0.88505  1.0000
  C   C7        1.0  0.92500  0.11495  0.34203  1.0000
  C   C8        1.0  0.42501  0.88505  0.65797  1.0000
  C   C9        1.0  0.70021  0.45921  0.12910  1.0000
  C   C10       1.0  0.20022  0.54079  0.87089  1.0000
  C   C11       1.0  0.20021  0.12911  0.45921  1.0000
  C   C12       1.0  0.70022  0.87090  0.54079  1.0000
  C   C13       1.0  0.70300  0.37736  0.01552  1.0000
  C   C14       1.0  0.20300  0.62264  0.98448  1.0000
  C   C15       1.0  0.20300  0.01553  0.37736  1.0000
  C   C16       1.0  0.70300  0.98448  0.62264  1.0000
  C   C17       1.0  0.22893  0.29342  0.14871  1.0000
  C   C18       1.0  0.72893  0.70658  0.85129  1.0000
  C   C19       1.0  0.72893  0.14871  0.29342  1.0000
  C   C20       1.0  0.22894  0.85129  0.70658  1.0000
  S   S1        1.0  0.56090  0.80947  0.19053  1.0000
  S   S2        1.0  0.06090  0.19052  0.80948  1.0000
  S   S3        1.0  0.77360  0.45683  0.54317  1.0000
  S   S4        1.0  0.27361  0.54317  0.45683  1.0000
  N   N1        1.0  0.40912  0.98964  0.01036  1.0000
  N   N2        1.0  0.90911  0.01036  0.98964  1.0000
  N   N3        1.0  0.50379  0.31124  0.68876  1.0000
  N   N4        1.0  0.00380  0.68876  0.31124  1.0000
  N   N5        1.0  0.53200  0.30455  0.00798  1.0000
  N   N6        1.0  0.03199  0.69545  0.99202  1.0000
  N   N7        1.0  0.03200  0.00798  0.30455  1.0000
  N   N8        1.0  0.53200  0.99202  0.69545  1.0000
  N   N9        1.0  0.52433  0.43558  0.18932  1.0000
  N   N10       1.0  0.02432  0.56442  0.81068  1.0000
  N   N11       1.0  0.02432  0.18932  0.43558  1.0000
  N   N12       1.0  0.52433  0.81068  0.56442  1.0000
