data_image0
_chemical_formula_structural       CdH16C10S4N2O4
_chemical_formula_sum              "Cd1 H16 C10 S4 N2 O4"
_cell_length_a       5.8569
_cell_length_b       8.43389
_cell_length_c       9.53559
_cell_angle_alpha    117.254
_cell_angle_beta     94.3917
_cell_angle_gamma    96.5091

_space_group_name_H-M_alt    "P 1"
_space_group_IT_number       1

loop_
  _space_group_symop_operation_xyz
  'x, y, z'

loop_
  _atom_site_type_symbol
  _atom_site_label
  _atom_site_symmetry_multiplicity
  _atom_site_fract_x
  _atom_site_fract_y
  _atom_site_fract_z
  _atom_site_occupancy
  Cd  Cd1       1.0  0.49999  0.00000  0.50000  1.0000
  H   H1        1.0  0.89188  0.12105  0.18284  1.0000
  H   H2        1.0  0.10813  0.87895  0.81716  1.0000
  H   H3        1.0  0.00341  0.20347  0.38943  1.0000
  H   H4        1.0  0.99659  0.79653  0.61057  1.0000
  H   H5        1.0  0.17350  0.50062  0.40896  1.0000
  H   H6        1.0  0.82651  0.49938  0.59104  1.0000
  H   H7        1.0  0.89215  0.45174  0.30160  1.0000
  H   H8        1.0  0.10786  0.54826  0.69840  1.0000
  H   H9        1.0  0.04725  0.31107  0.04338  1.0000
  H   H10       1.0  0.95276  0.68893  0.95662  1.0000
  H   H11       1.0  0.22481  0.52594  0.16334  1.0000
  H   H12       1.0  0.77519  0.47405  0.83665  1.0000
  H   H13       1.0  0.53206  0.39471  0.23274  1.0000
  H   H14       1.0  0.46795  0.60528  0.76725  1.0000
  H   H15       1.0  0.43361  0.22360  0.03076  1.0000
  H   H16       1.0  0.56639  0.77640  0.96923  1.0000
  C   C1        1.0  0.02875  0.21387  0.28114  1.0000
  C   C2        1.0  0.97126  0.78613  0.71885  1.0000
  C   C3        1.0  0.05939  0.40428  0.29782  1.0000
  C   C4        1.0  0.94062  0.59572  0.70218  1.0000
  C   C5        1.0  0.17113  0.39190  0.15319  1.0000
  C   C6        1.0  0.82888  0.60809  0.84681  1.0000
  C   C7        1.0  0.38211  0.29936  0.14860  1.0000
  C   C8        1.0  0.61789  0.70064  0.85139  1.0000
  C   C9        1.0  0.05350  0.19262  0.67254  1.0000
  C   C10       1.0  0.94648  0.80739  0.32747  1.0000
  S   S1        1.0  0.29909  0.13980  0.22049  1.0000
  S   S2        1.0  0.70091  0.86020  0.77951  1.0000
  S   S3        1.0  0.32604  0.24708  0.74974  1.0000
  S   S4        1.0  0.67392  0.75292  0.25026  1.0000
  N   N1        1.0  0.85533  0.15716  0.61730  1.0000
  N   N2        1.0  0.14466  0.84285  0.38272  1.0000
  O   O1        1.0  0.26133  0.95375  0.09325  1.0000
  O   O2        1.0  0.73868  0.04625  0.90675  1.0000
  O   O3        1.0  0.46590  0.18577  0.36299  1.0000
  O   O4        1.0  0.53411  0.81424  0.63702  1.0000
