data_image0
_chemical_formula_structural       Zn2H48C52S4N8O24
_chemical_formula_sum              "Zn2 H48 C52 S4 N8 O24"
_cell_length_a       11.4518
_cell_length_b       11.3
_cell_length_c       14.0229
_cell_angle_alpha    78.1295
_cell_angle_beta     66.0494
_cell_angle_gamma    59.5547

_space_group_name_H-M_alt    "P 1"
_space_group_IT_number       1

loop_
  _space_group_symop_operation_xyz
  'x, y, z'

loop_
  _atom_site_type_symbol
  _atom_site_label
  _atom_site_symmetry_multiplicity
  _atom_site_fract_x
  _atom_site_fract_y
  _atom_site_fract_z
  _atom_site_occupancy
  Zn  Zn1       1.0  0.52092  0.00002  0.00008  1.0000
  Zn  Zn2       1.0  0.27102  0.50006  0.49996  1.0000
  H   H1        1.0  0.31575  0.12762  0.56183  1.0000
  H   H2        1.0  0.00436  0.87325  0.43865  1.0000
  H   H3        1.0  0.62761  0.62698  0.93832  1.0000
  H   H4        1.0  0.19319  0.37244  0.06182  1.0000
  H   H5        1.0  0.12039  0.28073  0.70935  1.0000
  H   H6        1.0  0.10977  0.71991  0.29102  1.0000
  H   H7        1.0  0.57969  0.78021  0.79065  1.0000
  H   H8        1.0  0.15076  0.21947  0.20943  1.0000
  H   H9        1.0  0.82846  0.14943  0.70163  1.0000
  H   H10       1.0  0.67931  0.84993  0.29815  1.0000
  H   H11       1.0  0.27928  0.65023  0.79782  1.0000
  H   H12       1.0  0.72764  0.35047  0.20146  1.0000
  H   H13       1.0  0.02631  0.00027  0.54652  1.0000
  H   H14       1.0  0.57296  0.99925  0.45350  1.0000
  H   H15       1.0  0.32211  0.50102  0.95321  1.0000
  H   H16       1.0  0.77665  0.49943  0.04612  1.0000
  H   H17       1.0  0.20990  0.13012  0.34486  1.0000
  H   H18       1.0  0.68533  0.86967  0.65493  1.0000
  H   H19       1.0  0.30500  0.63054  0.15479  1.0000
  H   H20       1.0  0.09055  0.36966  0.84466  1.0000
  H   H21       1.0  0.35610  0.13146  0.36271  1.0000
  H   H22       1.0  0.85021  0.86877  0.63777  1.0000
  H   H23       1.0  0.46898  0.63133  0.13772  1.0000
  H   H24       1.0  0.23786  0.36867  0.86260  1.0000
  H   H25       1.0  0.36053  0.07628  0.84929  1.0000
  H   H26       1.0  0.28694  0.92336  0.15059  1.0000
  H   H27       1.0  0.96052  0.57634  0.65071  1.0000
  H   H28       1.0  0.18666  0.42381  0.34931  1.0000
  H   H29       1.0  0.14657  0.07659  0.84170  1.0000
  H   H30       1.0  0.06570  0.92329  0.15814  1.0000
  H   H31       1.0  0.73920  0.57630  0.65844  1.0000
  H   H32       1.0  0.97299  0.42344  0.34190  1.0000
  H   H33       1.0  0.80970  0.11451  0.14503  1.0000
  H   H34       1.0  0.06843  0.88535  0.85503  1.0000
  H   H35       1.0  0.70412  0.61435  0.35516  1.0000
  H   H36       1.0  0.67413  0.38531  0.64528  1.0000
  H   H37       1.0  0.59700  0.11564  0.13571  1.0000
  H   H38       1.0  0.84761  0.88426  0.86445  1.0000
  H   H39       1.0  0.48205  0.61566  0.36453  1.0000
  H   H40       1.0  0.46251  0.38444  0.63585  1.0000
  H   H41       1.0  0.45102  0.26324  0.99099  1.0000
  H   H42       1.0  0.70577  0.73683  0.00903  1.0000
  H   H43       1.0  0.19249  0.76314  0.50901  1.0000
  H   H44       1.0  0.46438  0.23693  0.49103  1.0000
  H   H45       1.0  0.52119  0.19532  0.87653  1.0000
  H   H46       1.0  0.59354  0.80446  0.12354  1.0000
  H   H47       1.0  0.14780  0.69551  0.62351  1.0000
  H   H48       1.0  0.46660  0.30460  0.37650  1.0000
  C   C1        1.0  0.18033  0.05551  0.54673  1.0000
  C   C2        1.0  0.78218  0.94469  0.45336  1.0000
  C   C3        1.0  0.47688  0.55545  0.95305  1.0000
  C   C4        1.0  0.98573  0.44441  0.04665  1.0000
  C   C5        1.0  0.20956  0.13250  0.59158  1.0000
  C   C6        1.0  0.93303  0.86800  0.40870  1.0000
  C   C7        1.0  0.55105  0.63213  0.90838  1.0000
  C   C8        1.0  0.09189  0.36749  0.09156  1.0000
  C   C9        1.0  0.10050  0.21676  0.67610  1.0000
  C   C10       1.0  0.99278  0.78369  0.32412  1.0000
  C   C11       1.0  0.52646  0.71648  0.82383  1.0000
  C   C12       1.0  0.06694  0.28336  0.17614  1.0000
  C   C13       1.0  0.96574  0.21941  0.71452  1.0000
  C   C14       1.0  0.89920  0.78065  0.28554  1.0000
  C   C15       1.0  0.42985  0.71955  0.78525  1.0000
  C   C16       1.0  0.93482  0.28072  0.21449  1.0000
  C   C17       1.0  0.93514  0.14423  0.66937  1.0000
  C   C18       1.0  0.74844  0.85554  0.33051  1.0000
  C   C19       1.0  0.35394  0.64470  0.83021  1.0000
  C   C20       1.0  0.82913  0.35575  0.16920  1.0000
  C   C21       1.0  0.04462  0.06132  0.58413  1.0000
  C   C22       1.0  0.68978  0.93852  0.41583  1.0000
  C   C23       1.0  0.37829  0.56167  0.91550  1.0000
  C   C24       1.0  0.85584  0.43854  0.08392  1.0000
  C   C25       1.0  0.32150  0.06722  0.34339  1.0000
  C   C26       1.0  0.73218  0.93274  0.65679  1.0000
  C   C27       1.0  0.41491  0.56739  0.15666  1.0000
  C   C28       1.0  0.13899  0.43276  0.84327  1.0000
  C   C29       1.0  0.42573  0.99587  0.23829  1.0000
  C   C30       1.0  0.65975  0.00405  0.76199  1.0000
  C   C31       1.0  0.41376  0.49599  0.26182  1.0000
  C   C32       1.0  0.17168  0.50418  0.73818  1.0000
  C   C33       1.0  0.29285  0.04212  0.91585  1.0000
  C   C34       1.0  0.25130  0.95768  0.08404  1.0000
  C   C35       1.0  0.95913  0.54207  0.58417  1.0000
  C   C36       1.0  0.08491  0.45787  0.41594  1.0000
  C   C37       1.0  0.17346  0.04197  0.91203  1.0000
  C   C38       1.0  0.12785  0.95807  0.08787  1.0000
  C   C39       1.0  0.83603  0.54166  0.58810  1.0000
  C   C40       1.0  0.96534  0.45802  0.41221  1.0000
  C   C41       1.0  0.08721  0.00010  0.99994  1.0000
  C   C42       1.0  0.83733  0.49973  0.50019  1.0000
  C   C43       1.0  0.95820  0.00011  0.99996  1.0000
  C   C44       1.0  0.70839  0.49967  0.50015  1.0000
  C   C45       1.0  0.82359  0.06262  0.08074  1.0000
  C   C46       1.0  0.96648  0.93746  0.91924  1.0000
  C   C47       1.0  0.65417  0.56232  0.41936  1.0000
  C   C48       1.0  0.63624  0.43723  0.58095  1.0000
  C   C49       1.0  0.70431  0.06227  0.07680  1.0000
  C   C50       1.0  0.84293  0.93773  0.92329  1.0000
  C   C51       1.0  0.53085  0.56216  0.42338  1.0000
  C   C52       1.0  0.51660  0.43769  0.57694  1.0000
  S   S1        1.0  0.32401  0.93597  0.44384  1.0000
  S   S2        1.0  0.70359  0.06413  0.55637  1.0000
  S   S3        1.0  0.51765  0.43608  0.05615  1.0000
  S   S4        1.0  0.00998  0.56390  0.94382  1.0000
  N   N1        1.0  0.85192  0.30204  0.80658  1.0000
  N   N2        1.0  0.96014  0.69791  0.19347  1.0000
  N   N3        1.0  0.40819  0.80206  0.69306  1.0000
  N   N4        1.0  0.90363  0.19814  0.30655  1.0000
  N   N5        1.0  0.33228  0.99981  0.99996  1.0000
  N   N6        1.0  0.08218  0.50004  0.50004  1.0000
  N   N7        1.0  0.71327  1.00000  0.00003  1.0000
  N   N8        1.0  0.46334  0.50000  0.50015  1.0000
  O   O1        1.0  0.26064  0.86114  0.42044  1.0000
  O   O2        1.0  0.54217  0.13892  0.57950  1.0000
  O   O3        1.0  0.43094  0.36137  0.07928  1.0000
  O   O4        1.0  0.87184  0.63859  0.92033  1.0000
  O   O5        1.0  0.52584  0.87477  0.23848  1.0000
  O   O6        1.0  0.63951  0.12492  0.76199  1.0000
  O   O7        1.0  0.51417  0.37499  0.26178  1.0000
  O   O8        1.0  0.15030  0.62540  0.73845  1.0000
  O   O9        1.0  0.40046  0.06731  0.15913  1.0000
  O   O10       1.0  0.62604  0.93295  0.84097  1.0000
  O   O11       1.0  0.30913  0.56721  0.34083  1.0000
  O   O12       1.0  0.21795  0.43277  0.65899  1.0000
  O   O13       1.0  0.88326  0.35550  0.85545  1.0000
  O   O14       1.0  0.09363  0.64442  0.14502  1.0000
  O   O15       1.0  0.48811  0.85563  0.64457  1.0000
  O   O16       1.0  0.98854  0.14462  0.35533  1.0000
  O   O17       1.0  0.72893  0.31403  0.83202  1.0000
  O   O18       1.0  0.87487  0.68582  0.16756  1.0000
  O   O19       1.0  0.31103  0.81382  0.66708  1.0000
  O   O20       1.0  0.79262  0.18615  0.33208  1.0000
  O   O21       1.0  0.44254  0.21067  0.94742  1.0000
  O   O22       1.0  0.60130  0.78912  0.05247  1.0000
  O   O23       1.0  0.14039  0.71074  0.55238  1.0000
  O   O24       1.0  0.40333  0.28932  0.44742  1.0000
