data_image0
_chemical_formula_structural       Zn2H32C36N16O8
_chemical_formula_sum              "Zn2 H32 C36 N16 O8"
_cell_length_a       8.56946
_cell_length_b       8.56925
_cell_length_c       16.0671
_cell_angle_alpha    103.893
_cell_angle_beta     103.894
_cell_angle_gamma    95.4333

_space_group_name_H-M_alt    "P 1"
_space_group_IT_number       1

loop_
  _space_group_symop_operation_xyz
  'x, y, z'

loop_
  _atom_site_type_symbol
  _atom_site_label
  _atom_site_symmetry_multiplicity
  _atom_site_fract_x
  _atom_site_fract_y
  _atom_site_fract_z
  _atom_site_occupancy
  Zn  Zn1       1.0  0.29227  0.79213  0.50001  1.0000
  Zn  Zn2       1.0  0.04212  0.04225  0.00000  1.0000
  H   H1        1.0  0.45557  0.77309  0.66876  1.0000
  H   H2        1.0  0.10465  0.78691  0.33121  1.0000
  H   H3        1.0  0.02308  0.20557  0.16876  1.0000
  H   H4        1.0  0.03689  0.85464  0.83121  1.0000
  H   H5        1.0  0.73081  0.40007  0.37533  1.0000
  H   H6        1.0  0.02444  0.35496  0.62530  1.0000
  H   H7        1.0  0.65007  0.48079  0.87534  1.0000
  H   H8        1.0  0.60496  0.77444  0.12530  1.0000
  H   H9        1.0  0.52868  0.33623  0.43917  1.0000
  H   H10       1.0  0.89716  0.08877  0.56090  1.0000
  H   H11       1.0  0.58623  0.27866  0.93918  1.0000
  H   H12       1.0  0.33877  0.64715  0.06090  1.0000
  H   H13       1.0  0.94788  0.61781  0.38212  1.0000
  H   H14       1.0  0.23532  0.56554  0.61862  1.0000
  H   H15       1.0  0.86780  0.69786  0.88211  1.0000
  H   H16       1.0  0.81553  0.98532  0.11861  1.0000
  H   H17       1.0  0.31931  0.11304  0.44113  1.0000
  H   H18       1.0  0.67191  0.87701  0.55853  1.0000
  H   H19       1.0  0.36303  0.06929  0.94114  1.0000
  H   H20       1.0  0.12701  0.42192  0.05852  1.0000
  H   H21       1.0  0.45707  0.80428  0.81219  1.0000
  H   H22       1.0  0.99221  0.64390  0.18791  1.0000
  H   H23       1.0  0.05428  0.20707  0.31218  1.0000
  H   H24       1.0  0.89389  0.74222  0.68791  1.0000
  H   H25       1.0  0.59840  0.97576  0.88992  1.0000
  H   H26       1.0  0.08556  0.70724  0.10970  1.0000
  H   H27       1.0  0.22575  0.34841  0.38992  1.0000
  H   H28       1.0  0.95724  0.83557  0.60970  1.0000
  H   H29       1.0  0.63998  0.87952  0.78801  1.0000
  H   H30       1.0  0.09094  0.85086  0.21139  1.0000
  H   H31       1.0  0.12950  0.38999  0.28801  1.0000
  H   H32       1.0  0.10086  0.84094  0.71139  1.0000
  C   C1        1.0  0.73046  0.23011  0.50012  1.0000
  C   C2        1.0  0.48012  0.48045  0.00012  1.0000
  C   C3        1.0  0.85824  0.35807  0.50030  1.0000
  C   C4        1.0  0.60808  0.60822  0.00030  1.0000
  C   C5        1.0  0.83914  0.43475  0.43141  1.0000
  C   C6        1.0  0.00332  0.40756  0.56925  1.0000
  C   C7        1.0  0.68475  0.58911  0.93141  1.0000
  C   C8        1.0  0.65757  0.75331  0.06924  1.0000
  C   C9        1.0  0.56534  0.23570  0.46556  1.0000
  C   C10       1.0  0.77040  0.09911  0.53444  1.0000
  C   C11       1.0  0.48570  0.31532  0.96556  1.0000
  C   C12       1.0  0.34911  0.52039  0.03443  1.0000
  C   C13       1.0  0.96195  0.55569  0.43458  1.0000
  C   C14       1.0  0.12106  0.52737  0.56613  1.0000
  C   C15       1.0  0.80568  0.71193  0.93457  1.0000
  C   C16       1.0  0.77737  0.87105  0.06612  1.0000
  C   C17       1.0  0.38860  0.98664  0.69323  1.0000
  C   C18       1.0  0.29357  0.69521  0.30656  1.0000
  C   C19       1.0  0.23664  0.13861  0.19323  1.0000
  C   C20       1.0  0.94521  0.04358  0.80656  1.0000
  C   C21       1.0  0.44914  0.11263  0.46690  1.0000
  C   C22       1.0  0.64596  0.98134  0.53287  1.0000
  C   C23       1.0  0.36262  0.19912  0.96690  1.0000
  C   C24       1.0  0.23134  0.39595  0.03287  1.0000
  C   C25       1.0  0.30098  0.11284  0.66572  1.0000
  C   C26       1.0  0.44722  0.63509  0.33405  1.0000
  C   C27       1.0  0.36283  0.05099  0.16571  1.0000
  C   C28       1.0  0.88510  0.19725  0.83406  1.0000
  C   C29       1.0  0.32814  0.27151  0.72587  1.0000
  C   C30       1.0  0.54587  0.60200  0.27383  1.0000
  C   C31       1.0  0.52149  0.07816  0.22586  1.0000
  C   C32       1.0  0.85204  0.29590  0.77384  1.0000
  C   C33       1.0  0.54297  0.91377  0.81943  1.0000
  C   C34       1.0  0.09413  0.72250  0.18028  1.0000
  C   C35       1.0  0.16376  0.29298  0.31943  1.0000
  C   C36       1.0  0.97250  0.84413  0.68028  1.0000
  N   N1        1.0  0.10192  0.60194  0.50035  1.0000
  N   N2        1.0  0.85194  0.85190  0.00035  1.0000
  N   N3        1.0  0.48756  0.98697  0.49984  1.0000
  N   N4        1.0  0.23697  0.23755  0.99984  1.0000
  N   N5        1.0  0.39097  0.84880  0.63906  1.0000
  N   N6        1.0  0.21009  0.75212  0.36088  1.0000
  N   N7        1.0  0.09878  0.14097  0.13905  1.0000
  N   N8        1.0  0.00211  0.96008  0.86088  1.0000
  N   N9        1.0  0.18482  0.10067  0.59065  1.0000
  N   N10       1.0  0.50994  0.59390  0.40920  1.0000
  N   N11       1.0  0.35066  0.93482  0.09065  1.0000
  N   N12       1.0  0.84392  0.25995  0.90920  1.0000
  N   N13       1.0  0.34498  0.40524  0.77025  1.0000
  N   N14       1.0  0.63536  0.57416  0.22945  1.0000
  N   N15       1.0  0.65523  0.09501  0.27024  1.0000
  N   N16       1.0  0.82422  0.38542  0.72946  1.0000
  O   O1        1.0  0.46044  0.03069  0.78223  1.0000
  O   O2        1.0  0.24841  0.67754  0.21747  1.0000
  O   O3        1.0  0.28068  0.21046  0.28223  1.0000
  O   O4        1.0  0.92755  0.99842  0.71747  1.0000
  O   O5        1.0  0.14335  0.96832  0.52600  1.0000
  O   O6        1.0  0.44205  0.61697  0.47391  1.0000
  O   O7        1.0  0.21830  0.89333  0.02600  1.0000
  O   O8        1.0  0.86697  0.19205  0.97391  1.0000
