data_image0
_chemical_formula_structural       Ag6H16C36N6O6
_chemical_formula_sum              "Ag6 H16 C36 N6 O6"
_cell_length_a       6.85279
_cell_length_b       11.8341
_cell_length_c       11.834
_cell_angle_alpha    69.9417
_cell_angle_beta     80.0029
_cell_angle_gamma    80.0019

_space_group_name_H-M_alt    "P 1"
_space_group_IT_number       1

loop_
  _space_group_symop_operation_xyz
  'x, y, z'

loop_
  _atom_site_type_symbol
  _atom_site_label
  _atom_site_symmetry_multiplicity
  _atom_site_fract_x
  _atom_site_fract_y
  _atom_site_fract_z
  _atom_site_occupancy
  Ag  Ag1       1.0  0.51970  0.52187  0.66702  1.0000
  Ag  Ag2       1.0  0.98031  0.33299  0.47813  1.0000
  Ag  Ag3       1.0  0.48030  0.47813  0.33299  1.0000
  Ag  Ag4       1.0  0.01969  0.66700  0.52187  1.0000
  Ag  Ag5       1.0  0.25001  0.41841  0.58159  1.0000
  Ag  Ag6       1.0  0.74999  0.58159  0.41841  1.0000
  H   H1        1.0  0.31325  0.70910  0.84490  1.0000
  H   H2        1.0  0.18674  0.15510  0.29090  1.0000
  H   H3        1.0  0.68676  0.29090  0.15510  1.0000
  H   H4        1.0  0.81325  0.84490  0.70910  1.0000
  H   H5        1.0  0.18166  0.80499  0.00454  1.0000
  H   H6        1.0  0.31833  0.99545  0.19502  1.0000
  H   H7        1.0  0.81834  0.19502  0.99545  1.0000
  H   H8        1.0  0.68166  0.00454  0.80499  1.0000
  H   H9        1.0  0.83662  0.78348  0.10898  1.0000
  H   H10       1.0  0.66338  0.89102  0.21651  1.0000
  H   H11       1.0  0.16339  0.21652  0.89102  1.0000
  H   H12       1.0  0.33662  0.10898  0.78348  1.0000
  H   H13       1.0  0.61821  0.66945  0.05255  1.0000
  H   H14       1.0  0.88178  0.94746  0.33055  1.0000
  H   H15       1.0  0.38179  0.33055  0.94746  1.0000
  H   H16       1.0  0.11821  0.05254  0.66945  1.0000
  C   C1        1.0  0.17649  0.52955  0.68780  1.0000
  C   C2        1.0  0.32351  0.31219  0.47046  1.0000
  C   C3        1.0  0.82351  0.47046  0.31219  1.0000
  C   C4        1.0  0.67649  0.68779  0.52956  1.0000
  C   C5        1.0  0.11450  0.58023  0.76587  1.0000
  C   C6        1.0  0.38549  0.23413  0.41976  1.0000
  C   C7        1.0  0.88548  0.41977  0.23414  1.0000
  C   C8        1.0  0.61452  0.76586  0.58024  1.0000
  C   C9        1.0  0.04151  0.63605  0.85573  1.0000
  C   C10       1.0  0.45848  0.14427  0.36395  1.0000
  C   C11       1.0  0.95848  0.36395  0.14427  1.0000
  C   C12       1.0  0.54152  0.85573  0.63605  1.0000
  C   C13       1.0  0.16073  0.70207  0.88914  1.0000
  C   C14       1.0  0.33927  0.11086  0.29793  1.0000
  C   C15       1.0  0.83927  0.29794  0.11086  1.0000
  C   C16       1.0  0.66074  0.88914  0.70206  1.0000
  C   C17       1.0  0.08626  0.75552  0.97868  1.0000
  C   C18       1.0  0.41375  0.02133  0.24448  1.0000
  C   C19       1.0  0.91376  0.24448  0.02132  1.0000
  C   C20       1.0  0.58625  0.97869  0.75553  1.0000
  C   C21       1.0  0.89180  0.74371  0.03736  1.0000
  C   C22       1.0  0.60820  0.96265  0.25628  1.0000
  C   C23       1.0  0.10821  0.25629  0.96265  1.0000
  C   C24       1.0  0.39179  0.03735  0.74370  1.0000
  C   C25       1.0  0.76928  0.67940  0.00633  1.0000
  C   C26       1.0  0.73073  0.99367  0.32061  1.0000
  C   C27       1.0  0.23073  0.32061  0.99367  1.0000
  C   C28       1.0  0.26928  0.00634  0.67940  1.0000
  C   C29       1.0  0.84281  0.62603  0.91587  1.0000
  C   C30       1.0  0.65718  0.08413  0.37397  1.0000
  C   C31       1.0  0.15718  0.37397  0.08413  1.0000
  C   C32       1.0  0.34283  0.91587  0.62602  1.0000
  C   C33       1.0  0.71876  0.56310  0.88075  1.0000
  C   C34       1.0  0.78123  0.11924  0.43691  1.0000
  C   C35       1.0  0.28123  0.43691  0.11925  1.0000
  C   C36       1.0  0.21876  0.88075  0.56309  1.0000
  N   N1        1.0  0.61737  0.51322  0.84852  1.0000
  N   N2        1.0  0.88263  0.15148  0.48678  1.0000
  N   N3        1.0  0.38262  0.48678  0.15148  1.0000
  N   N4        1.0  0.11737  0.84852  0.51322  1.0000
  N   N5        1.0  0.75000  0.25265  0.74735  1.0000
  N   N6        1.0  0.25000  0.74735  0.25265  1.0000
  O   O1        1.0  0.75000  0.34933  0.65068  1.0000
  O   O2        1.0  0.25000  0.65067  0.34933  1.0000
  O   O3        1.0  0.59637  0.24005  0.82289  1.0000
  O   O4        1.0  0.90364  0.17711  0.75995  1.0000
  O   O5        1.0  0.40363  0.75994  0.17711  1.0000
  O   O6        1.0  0.09637  0.82289  0.24005  1.0000
