data_image0
_chemical_formula_structural       Cu2H20C14O20
_chemical_formula_sum              "Cu2 H20 C14 O20"
_cell_length_a       4.88717
_cell_length_b       9.90064
_cell_length_c       10.6002
_cell_angle_alpha    93.9612
_cell_angle_beta     94.0949
_cell_angle_gamma    97.8193

_space_group_name_H-M_alt    "P 1"
_space_group_IT_number       1

loop_
  _space_group_symop_operation_xyz
  'x, y, z'

loop_
  _atom_site_type_symbol
  _atom_site_label
  _atom_site_symmetry_multiplicity
  _atom_site_fract_x
  _atom_site_fract_y
  _atom_site_fract_z
  _atom_site_occupancy
  Cu  Cu1       1.0  1.00000  1.00000  0.49999  1.0000
  Cu  Cu2       1.0  0.50000  1.00000  1.00000  1.0000
  H   H1        1.0  0.44815  0.92088  0.59794  1.0000
  H   H2        1.0  0.55185  0.07912  0.40206  1.0000
  H   H3        1.0  0.22583  0.91606  0.69947  1.0000
  H   H4        1.0  0.77419  0.08394  0.30053  1.0000
  H   H5        1.0  0.94273  0.79213  0.30075  1.0000
  H   H6        1.0  0.05725  0.20787  0.69924  1.0000
  H   H7        1.0  0.26841  0.78870  0.31526  1.0000
  H   H8        1.0  0.73159  0.21130  0.68474  1.0000
  H   H9        1.0  0.25446  0.22704  0.99975  1.0000
  H   H10       1.0  0.74556  0.77297  0.00026  1.0000
  H   H11       1.0  0.43027  0.21869  0.87781  1.0000
  H   H12       1.0  0.56972  0.78131  0.12220  1.0000
  H   H13       1.0  0.09394  0.05570  0.12368  1.0000
  H   H14       1.0  0.90607  0.94431  0.87633  1.0000
  H   H15       1.0  0.19001  0.92346  0.18491  1.0000
  H   H16       1.0  0.80997  0.07654  0.81509  1.0000
  H   H17       1.0  0.23235  0.54526  0.40477  1.0000
  H   H18       1.0  0.76762  0.45474  0.59522  1.0000
  H   H19       1.0  0.84354  0.54929  0.12100  1.0000
  H   H20       1.0  0.15645  0.45072  0.87898  1.0000
  C   C1        1.0  0.38334  0.36122  0.35141  1.0000
  C   C2        1.0  0.61666  0.63879  0.64860  1.0000
  C   C3        1.0  0.20748  0.27182  0.43391  1.0000
  C   C4        1.0  0.79249  0.72817  0.56608  1.0000
  C   C5        1.0  0.37116  0.49716  0.34553  1.0000
  C   C6        1.0  0.62881  0.50284  0.65446  1.0000
  C   C7        1.0  0.54075  0.57526  0.26334  1.0000
  C   C8        1.0  0.45924  0.42474  0.73665  1.0000
  C   C9        1.0  0.71101  0.49995  0.18800  1.0000
  C   C10       1.0  0.28899  0.50005  0.81199  1.0000
  C   C11       1.0  0.71231  0.36436  0.20141  1.0000
  C   C12       1.0  0.28770  0.63564  0.79860  1.0000
  C   C13       1.0  0.89747  0.27601  0.13663  1.0000
  C   C14       1.0  0.10259  0.72400  0.86339  1.0000
  O   O1        1.0  0.29625  0.96942  0.62858  1.0000
  O   O2        1.0  0.70375  0.03057  0.37141  1.0000
  O   O3        1.0  0.12391  0.85001  0.30803  1.0000
  O   O4        1.0  0.87608  0.14998  0.69196  1.0000
  O   O5        1.0  0.41283  0.18471  0.96379  1.0000
  O   O6        1.0  0.58717  0.81529  0.03621  1.0000
  O   O7        1.0  0.20133  0.97716  0.10683  1.0000
  O   O8        1.0  0.79865  0.02285  0.89317  1.0000
  O   O9        1.0  0.55090  0.29503  0.28093  1.0000
  O   O10       1.0  0.44911  0.70497  0.71907  1.0000
  O   O11       1.0  0.26337  0.14776  0.43800  1.0000
  O   O12       1.0  0.73664  0.85224  0.56200  1.0000
  O   O13       1.0  0.02625  0.32407  0.48793  1.0000
  O   O14       1.0  0.97376  0.67593  0.51208  1.0000
  O   O15       1.0  0.54178  0.70418  0.25982  1.0000
  O   O16       1.0  0.45821  0.29582  0.74018  1.0000
  O   O17       1.0  0.89160  0.15551  0.17339  1.0000
  O   O18       1.0  0.10840  0.84450  0.82662  1.0000
  O   O19       1.0  0.04731  0.32795  0.05614  1.0000
  O   O20       1.0  0.95274  0.67205  0.94387  1.0000
