data_image0
_chemical_formula_structural       Zn2H32C34N4O8
_chemical_formula_sum              "Zn2 H32 C34 N4 O8"
_cell_length_a       7.79145
_cell_length_b       10.291
_cell_length_c       10.4287
_cell_angle_alpha    92.5188
_cell_angle_beta     107.409
_cell_angle_gamma    106.598

_space_group_name_H-M_alt    "P 1"
_space_group_IT_number       1

loop_
  _space_group_symop_operation_xyz
  'x, y, z'

loop_
  _atom_site_type_symbol
  _atom_site_label
  _atom_site_symmetry_multiplicity
  _atom_site_fract_x
  _atom_site_fract_y
  _atom_site_fract_z
  _atom_site_occupancy
  Zn  Zn1       1.0  0.89567  0.85663  0.47397  1.0000
  Zn  Zn2       1.0  0.10433  0.14338  0.52603  1.0000
  H   H1        1.0  0.88937  0.97533  0.91183  1.0000
  H   H2        1.0  0.11063  0.02466  0.08817  1.0000
  H   H3        1.0  0.81211  0.83032  0.08411  1.0000
  H   H4        1.0  0.18788  0.16968  0.91589  1.0000
  H   H5        1.0  0.47416  0.73092  0.07297  1.0000
  H   H6        1.0  0.52584  0.26908  0.92703  1.0000
  H   H7        1.0  0.22134  0.77872  0.88898  1.0000
  H   H8        1.0  0.77865  0.22128  0.11102  1.0000
  H   H9        1.0  0.72972  0.17236  0.77670  1.0000
  H   H10       1.0  0.27028  0.82764  0.22330  1.0000
  H   H11       1.0  0.53908  0.07328  0.63628  1.0000
  H   H12       1.0  0.46092  0.92672  0.36372  1.0000
  H   H13       1.0  0.48308  0.72483  0.36509  1.0000
  H   H14       1.0  0.51692  0.27517  0.63492  1.0000
  H   H15       1.0  0.37917  0.28914  0.29215  1.0000
  H   H16       1.0  0.62084  0.71086  0.70785  1.0000
  H   H17       1.0  0.73179  0.33726  0.36230  1.0000
  H   H18       1.0  0.26821  0.66274  0.63770  1.0000
  H   H19       1.0  0.94229  0.58135  0.43478  1.0000
  H   H20       1.0  0.05771  0.41865  0.56522  1.0000
  H   H21       1.0  0.11101  0.38416  0.28186  1.0000
  H   H22       1.0  0.88899  0.61584  0.71814  1.0000
  H   H23       1.0  0.16984  0.56127  0.34136  1.0000
  H   H24       1.0  0.83016  0.43873  0.65864  1.0000
  H   H25       1.0  0.02587  0.31662  0.03988  1.0000
  H   H26       1.0  0.97413  0.68337  0.96011  1.0000
  H   H27       1.0  0.26368  0.40783  0.05442  1.0000
  H   H28       1.0  0.73632  0.59216  0.94558  1.0000
  H   H29       1.0  0.95941  0.63045  0.18266  1.0000
  H   H30       1.0  0.04060  0.36955  0.81734  1.0000
  H   H31       1.0  0.83650  0.45366  0.11874  1.0000
  H   H32       1.0  0.16350  0.54634  0.88126  1.0000
  C   C1        1.0  0.41256  0.90927  0.80271  1.0000
  C   C2        1.0  0.58744  0.09073  0.19729  1.0000
  C   C3        1.0  0.60257  0.96807  0.80966  1.0000
  C   C4        1.0  0.39743  0.03193  0.19034  1.0000
  C   C5        1.0  0.74277  0.93401  0.90930  1.0000
  C   C6        1.0  0.25723  0.06599  0.09070  1.0000
  C   C7        1.0  0.69947  0.85039  0.00408  1.0000
  C   C8        1.0  0.30053  0.14961  0.99592  1.0000
  C   C9        1.0  0.51083  0.79443  0.99811  1.0000
  C   C10       1.0  0.48917  0.20557  0.00189  1.0000
  C   C11       1.0  0.36935  0.82224  0.89625  1.0000
  C   C12       1.0  0.63065  0.17776  0.10375  1.0000
  C   C13       1.0  0.66319  0.06872  0.71873  1.0000
  C   C14       1.0  0.33681  0.93128  0.28127  1.0000
  C   C15       1.0  0.79679  0.03872  0.64953  1.0000
  C   C16       1.0  0.20321  0.96128  0.35047  1.0000
  C   C17       1.0  0.25071  0.93468  0.69731  1.0000
  C   C18       1.0  0.74929  0.06532  0.30269  1.0000
  C   C19       1.0  0.53163  0.63585  0.36210  1.0000
  C   C20       1.0  0.46837  0.36415  0.63790  1.0000
  C   C21       1.0  0.40226  0.50428  0.31872  1.0000
  C   C22       1.0  0.59774  0.49572  0.68128  1.0000
  C   C23       1.0  0.47430  0.39434  0.32063  1.0000
  C   C24       1.0  0.52570  0.60567  0.67937  1.0000
  C   C25       1.0  0.67054  0.42024  0.36159  1.0000
  C   C26       1.0  0.32946  0.57976  0.63841  1.0000
  C   C27       1.0  0.78843  0.55471  0.40191  1.0000
  C   C28       1.0  0.21157  0.44529  0.59810  1.0000
  C   C29       1.0  0.19395  0.48887  0.27316  1.0000
  C   C30       1.0  0.80605  0.51113  0.72684  1.0000
  C   C31       1.0  0.12168  0.41813  0.03401  1.0000
  C   C32       1.0  0.87832  0.58187  0.96599  1.0000
  C   C33       1.0  0.94489  0.54565  0.10804  1.0000
  C   C34       1.0  0.05511  0.45435  0.89196  1.0000
  N   N1        1.0  0.71998  0.66087  0.40381  1.0000
  N   N2        1.0  0.28002  0.33913  0.59619  1.0000
  N   N3        1.0  0.12953  0.52370  0.13599  1.0000
  N   N4        1.0  0.87047  0.47630  0.86401  1.0000
  O   O1        1.0  0.76472  0.91483  0.60224  1.0000
  O   O2        1.0  0.23528  0.08518  0.39776  1.0000
  O   O3        1.0  0.92576  0.14207  0.63840  1.0000
  O   O4        1.0  0.07423  0.85794  0.36160  1.0000
  O   O5        1.0  0.26799  0.05698  0.67319  1.0000
  O   O6        1.0  0.73201  0.94303  0.32681  1.0000
  O   O7        1.0  0.10594  0.83038  0.63894  1.0000
  O   O8        1.0  0.89406  0.16962  0.36106  1.0000
