data_image0
_chemical_formula_structural       Cu2H28C32N4O8
_chemical_formula_sum              "Cu2 H28 C32 N4 O8"
_cell_length_a       10.1278
_cell_length_b       10.8205
_cell_length_c       11.048
_cell_angle_alpha    86.2055
_cell_angle_beta     81.3937
_cell_angle_gamma    62.374

_space_group_name_H-M_alt    "P 1"
_space_group_IT_number       1

loop_
  _space_group_symop_operation_xyz
  'x, y, z'

loop_
  _atom_site_type_symbol
  _atom_site_label
  _atom_site_symmetry_multiplicity
  _atom_site_fract_x
  _atom_site_fract_y
  _atom_site_fract_z
  _atom_site_occupancy
  Cu  Cu1       1.0  0.44460  0.41958  0.12317  1.0000
  Cu  Cu2       1.0  0.55539  0.58042  0.87683  1.0000
  H   H1        1.0  0.72841  0.37880  0.18781  1.0000
  H   H2        1.0  0.27159  0.62119  0.81219  1.0000
  H   H3        1.0  0.81865  0.47332  0.34105  1.0000
  H   H4        1.0  0.18135  0.52668  0.65895  1.0000
  H   H5        1.0  0.62734  0.65930  0.48733  1.0000
  H   H6        1.0  0.37266  0.34070  0.51267  1.0000
  H   H7        1.0  0.35288  0.74961  0.46851  1.0000
  H   H8        1.0  0.64712  0.25039  0.53149  1.0000
  H   H9        1.0  0.28239  0.64302  0.30836  1.0000
  H   H10       1.0  0.71761  0.35698  0.69164  1.0000
  H   H11       1.0  0.58746  0.19758  0.93822  1.0000
  H   H12       1.0  0.41254  0.80242  0.06179  1.0000
  H   H13       1.0  0.50393  0.07522  0.80464  1.0000
  H   H14       1.0  0.49606  0.92478  0.19536  1.0000
  H   H15       1.0  0.22680  0.14703  0.82121  1.0000
  H   H16       1.0  0.77320  0.85298  0.17879  1.0000
  H   H17       1.0  0.04847  0.33170  0.97021  1.0000
  H   H18       1.0  0.95153  0.66830  0.02979  1.0000
  H   H19       1.0  0.15238  0.44502  0.09840  1.0000
  H   H20       1.0  0.84762  0.55498  0.90160  1.0000
  H   H21       1.0  0.66500  0.02450  0.33976  1.0000
  H   H22       1.0  0.33500  0.97550  0.66024  1.0000
  H   H23       1.0  0.34680  0.13094  0.48294  1.0000
  H   H24       1.0  0.65320  0.86906  0.51706  1.0000
  H   H25       1.0  0.23215  0.82534  0.91844  1.0000
  H   H26       1.0  0.76785  0.17466  0.08156  1.0000
  H   H27       1.0  0.95392  0.93000  0.11596  1.0000
  H   H28       1.0  0.04608  0.07000  0.88404  1.0000
  C   C1        1.0  0.65015  0.46124  0.25188  1.0000
  C   C2        1.0  0.34985  0.53876  0.74812  1.0000
  C   C3        1.0  0.69870  0.51422  0.33725  1.0000
  C   C4        1.0  0.30130  0.48578  0.66275  1.0000
  C   C5        1.0  0.59189  0.61893  0.41738  1.0000
  C   C6        1.0  0.40811  0.38107  0.58262  1.0000
  C   C7        1.0  0.43991  0.66788  0.40777  1.0000
  C   C8        1.0  0.56009  0.33212  0.59223  1.0000
  C   C9        1.0  0.39925  0.61009  0.31994  1.0000
  C   C10       1.0  0.60075  0.38991  0.68006  1.0000
  C   C11       1.0  0.46935  0.22388  0.94152  1.0000
  C   C12       1.0  0.53065  0.77612  0.05848  1.0000
  C   C13       1.0  0.42196  0.15648  0.86828  1.0000
  C   C14       1.0  0.57804  0.84352  0.13173  1.0000
  C   C15       1.0  0.26875  0.19598  0.87795  1.0000
  C   C16       1.0  0.73125  0.80402  0.12205  1.0000
  C   C17       1.0  0.16836  0.29994  0.96144  1.0000
  C   C18       1.0  0.83164  0.70006  0.03856  1.0000
  C   C19       1.0  0.22400  0.36293  0.03144  1.0000
  C   C20       1.0  0.77600  0.63707  0.96856  1.0000
  C   C21       1.0  0.47131  0.22022  0.29233  1.0000
  C   C22       1.0  0.52869  0.77978  0.70767  1.0000
  C   C23       1.0  0.54476  0.09153  0.36527  1.0000
  C   C24       1.0  0.45524  0.90847  0.63473  1.0000
  C   C25       1.0  0.46705  0.06001  0.46193  1.0000
  C   C26       1.0  0.53295  0.93999  0.53807  1.0000
  C   C27       1.0  0.20885  0.69024  0.07095  1.0000
  C   C28       1.0  0.79115  0.30976  0.92904  1.0000
  C   C29       1.0  0.15721  0.82183  0.99928  1.0000
  C   C30       1.0  0.84279  0.17817  0.00072  1.0000
  C   C31       1.0  0.02539  0.93547  0.03334  1.0000
  C   C32       1.0  0.97462  0.06453  0.96666  1.0000
  N   N1        1.0  0.50330  0.50835  0.24373  1.0000
  N   N2        1.0  0.49670  0.49165  0.75627  1.0000
  N   N3        1.0  0.37183  0.32591  0.02018  1.0000
  N   N4        1.0  0.62817  0.67409  0.97982  1.0000
  O   O1        1.0  0.56072  0.23526  0.20116  1.0000
  O   O2        1.0  0.43928  0.76474  0.79884  1.0000
  O   O3        1.0  0.33604  0.30601  0.32032  1.0000
  O   O4        1.0  0.66396  0.69399  0.67968  1.0000
  O   O5        1.0  0.34786  0.59901  0.03380  1.0000
  O   O6        1.0  0.65215  0.40099  0.96620  1.0000
  O   O7        1.0  0.12572  0.67141  0.15787  1.0000
  O   O8        1.0  0.87428  0.32859  0.84213  1.0000
