data_image0
_chemical_formula_structural       Cd2H48C40N12O20
_chemical_formula_sum              "Cd2 H48 C40 N12 O20"
_cell_length_a       7.12448
_cell_length_b       12.8405
_cell_length_c       13.4064
_cell_angle_alpha    73.428
_cell_angle_beta     82.2414
_cell_angle_gamma    81.3241

_space_group_name_H-M_alt    "P 1"
_space_group_IT_number       1

loop_
  _space_group_symop_operation_xyz
  'x, y, z'

loop_
  _atom_site_type_symbol
  _atom_site_label
  _atom_site_symmetry_multiplicity
  _atom_site_fract_x
  _atom_site_fract_y
  _atom_site_fract_z
  _atom_site_occupancy
  Cd  Cd1       1.0  1.00000  0.00000  1.00000  1.0000
  Cd  Cd2       1.0  0.00000  0.00000  0.50000  1.0000
  H   H1        1.0  0.23965  0.18328  0.02738  1.0000
  H   H2        1.0  0.76035  0.81672  0.97262  1.0000
  H   H3        1.0  0.02431  0.21214  0.10552  1.0000
  H   H4        1.0  0.97569  0.78786  0.89448  1.0000
  H   H5        1.0  0.03103  0.20999  0.28105  1.0000
  H   H6        1.0  0.96898  0.79001  0.71894  1.0000
  H   H7        1.0  0.25329  0.18125  0.33837  1.0000
  H   H8        1.0  0.74671  0.81875  0.66163  1.0000
  H   H9        1.0  0.41994  0.99634  0.37344  1.0000
  H   H10       1.0  0.58006  0.00366  0.62656  1.0000
  H   H11       1.0  0.32010  0.89127  0.34176  1.0000
  H   H12       1.0  0.67990  0.10873  0.65824  1.0000
  H   H13       1.0  0.31493  0.89417  0.16468  1.0000
  H   H14       1.0  0.68507  0.10583  0.83532  1.0000
  H   H15       1.0  0.40499  0.00300  0.06179  1.0000
  H   H16       1.0  0.59501  0.99700  0.93821  1.0000
  H   H17       1.0  0.54403  0.14490  0.10460  1.0000
  H   H18       1.0  0.45598  0.85510  0.89540  1.0000
  H   H19       1.0  0.54079  0.14181  0.23892  1.0000
  H   H20       1.0  0.45921  0.85819  0.76108  1.0000
  H   H21       1.0  0.89714  0.06726  0.24232  1.0000
  H   H22       1.0  0.10286  0.93274  0.75768  1.0000
  H   H23       1.0  0.01885  0.93127  0.26884  1.0000
  H   H24       1.0  0.98115  0.06873  0.73116  1.0000
  H   H25       1.0  0.11531  0.52233  0.13937  1.0000
  H   H26       1.0  0.88468  0.47767  0.86063  1.0000
  H   H27       1.0  0.38139  0.36950  0.15525  1.0000
  H   H28       1.0  0.61861  0.63050  0.84476  1.0000
  H   H29       1.0  0.78830  0.60471  0.09065  1.0000
  H   H30       1.0  0.21170  0.39530  0.90935  1.0000
  H   H31       1.0  0.51932  0.75604  0.07227  1.0000
  H   H32       1.0  0.48068  0.24396  0.92773  1.0000
  H   H33       1.0  0.08603  0.62822  0.62622  1.0000
  H   H34       1.0  0.91397  0.37179  0.37378  1.0000
  H   H35       1.0  0.17916  0.42349  0.67715  1.0000
  H   H36       1.0  0.82084  0.57651  0.32285  1.0000
  H   H37       1.0  0.77036  0.47455  0.60682  1.0000
  H   H38       1.0  0.22964  0.52545  0.39317  1.0000
  H   H39       1.0  0.67776  0.67868  0.56110  1.0000
  H   H40       1.0  0.32224  0.32132  0.43890  1.0000
  H   H41       1.0  0.66884  0.93126  0.16975  1.0000
  H   H42       1.0  0.33116  0.06874  0.83025  1.0000
  H   H43       1.0  0.82809  0.83299  0.14015  1.0000
  H   H44       1.0  0.17192  0.16701  0.85985  1.0000
  H   H45       1.0  0.34169  0.97276  0.56342  1.0000
  H   H46       1.0  0.65831  0.02724  0.43658  1.0000
  H   H47       1.0  0.34563  0.10050  0.51429  1.0000
  H   H48       1.0  0.65437  0.89950  0.48571  1.0000
  C   C1        1.0  0.16529  0.16430  0.10621  1.0000
  C   C2        1.0  0.83471  0.83570  0.89379  1.0000
  C   C3        1.0  0.17253  0.16261  0.28270  1.0000
  C   C4        1.0  0.82747  0.83739  0.71730  1.0000
  C   C5        1.0  0.33874  0.97836  0.31805  1.0000
  C   C6        1.0  0.66126  0.02163  0.68195  1.0000
  C   C7        1.0  0.33110  0.98163  0.14081  1.0000
  C   C8        1.0  0.66889  0.01837  0.85919  1.0000
  C   C9        1.0  0.46277  0.12392  0.18186  1.0000
  C   C10       1.0  0.53724  0.87608  0.81814  1.0000
  C   C11       1.0  0.03754  0.01849  0.24383  1.0000
  C   C12       1.0  0.96246  0.98151  0.75617  1.0000
  C   C13       1.0  0.14096  0.74087  0.09343  1.0000
  C   C14       1.0  0.85903  0.25913  0.90657  1.0000
  C   C15       1.0  0.30142  0.64831  0.10427  1.0000
  C   C16       1.0  0.69858  0.35169  0.89573  1.0000
  C   C17       1.0  0.26259  0.53963  0.12897  1.0000
  C   C18       1.0  0.73740  0.46037  0.87103  1.0000
  C   C19       1.0  0.41057  0.45417  0.13849  1.0000
  C   C20       1.0  0.58942  0.54583  0.86151  1.0000
  C   C21       1.0  0.59774  0.47992  0.12422  1.0000
  C   C22       1.0  0.40226  0.52008  0.87578  1.0000
  C   C23       1.0  0.64106  0.58757  0.09954  1.0000
  C   C24       1.0  0.35894  0.41243  0.90047  1.0000
  C   C25       1.0  0.49116  0.67138  0.08951  1.0000
  C   C26       1.0  0.50884  0.32862  0.91049  1.0000
  C   C27       1.0  0.31935  0.78691  0.56446  1.0000
  C   C28       1.0  0.68065  0.21309  0.43554  1.0000
  C   C29       1.0  0.37640  0.66506  0.59078  1.0000
  C   C30       1.0  0.62359  0.33495  0.40922  1.0000
  C   C31       1.0  0.23520  0.59356  0.62199  1.0000
  C   C32       1.0  0.76480  0.40643  0.37801  1.0000
  C   C33       1.0  0.28519  0.48085  0.64891  1.0000
  C   C34       1.0  0.71482  0.51915  0.35109  1.0000
  C   C35       1.0  0.47889  0.44114  0.64164  1.0000
  C   C36       1.0  0.52111  0.55886  0.35836  1.0000
  C   C37       1.0  0.62195  0.51006  0.61083  1.0000
  C   C38       1.0  0.37804  0.48994  0.38917  1.0000
  C   C39       1.0  0.56942  0.62261  0.58584  1.0000
  C   C40       1.0  0.43057  0.37739  0.41416  1.0000
  N   N1        1.0  0.13898  0.04547  0.13737  1.0000
  N   N2        1.0  0.86103  0.95453  0.86263  1.0000
  N   N3        1.0  0.27535  0.19009  0.17872  1.0000
  N   N4        1.0  0.72465  0.80991  0.82128  1.0000
  N   N5        1.0  0.14648  0.04332  0.31979  1.0000
  N   N6        1.0  0.85352  0.95668  0.68021  1.0000
  N   N7        1.0  0.44350  0.00548  0.21382  1.0000
  N   N8        1.0  0.55651  0.99452  0.78618  1.0000
  N   N9        1.0  0.75451  0.39131  0.13766  1.0000
  N   N10       1.0  0.24548  0.60869  0.86234  1.0000
  N   N11       1.0  0.53426  0.32272  0.66677  1.0000
  N   N12       1.0  0.46573  0.67728  0.33323  1.0000
  O   O1        1.0  0.18493  0.83328  0.03414  1.0000
  O   O2        1.0  0.81507  0.16672  0.96586  1.0000
  O   O3        1.0  0.98027  0.72067  0.14232  1.0000
  O   O4        1.0  0.01973  0.27933  0.85768  1.0000
  O   O5        1.0  0.71539  0.29557  0.17406  1.0000
  O   O6        1.0  0.28461  0.70443  0.82594  1.0000
  O   O7        1.0  0.92066  0.41489  0.11341  1.0000
  O   O8        1.0  0.07934  0.58511  0.88660  1.0000
  O   O9        1.0  0.14858  0.82027  0.54321  1.0000
  O   O10       1.0  0.85142  0.17973  0.45679  1.0000
  O   O11       1.0  0.44460  0.84746  0.56696  1.0000
  O   O12       1.0  0.55540  0.15255  0.43304  1.0000
  O   O13       1.0  0.70684  0.28868  0.67146  1.0000
  O   O14       1.0  0.29315  0.71132  0.32854  1.0000
  O   O15       1.0  0.40649  0.26252  0.68138  1.0000
  O   O16       1.0  0.59350  0.73748  0.31863  1.0000
  O   O17       1.0  0.76133  0.90916  0.11448  1.0000
  O   O18       1.0  0.23867  0.09084  0.88552  1.0000
  O   O19       1.0  0.26342  0.04613  0.55851  1.0000
  O   O20       1.0  0.73658  0.95387  0.44149  1.0000
