data_image0
_chemical_formula_structural       Hg2H32C44I4N12Cl4O4
_chemical_formula_sum              "Hg2 H32 C44 I4 N12 Cl4 O4"
_cell_length_a       4.02195
_cell_length_b       15.0429
_cell_length_c       22.0519
_cell_angle_alpha    104.966
_cell_angle_beta     95.4326
_cell_angle_gamma    89.948

_space_group_name_H-M_alt    "P 1"
_space_group_IT_number       1

loop_
  _space_group_symop_operation_xyz
  'x, y, z'

loop_
  _atom_site_type_symbol
  _atom_site_label
  _atom_site_symmetry_multiplicity
  _atom_site_fract_x
  _atom_site_fract_y
  _atom_site_fract_z
  _atom_site_occupancy
  Hg  Hg1       1.0  0.00000  0.00000  0.00000  1.0000
  Hg  Hg2       1.0  0.00000  0.50000  0.00000  1.0000
  H   H1        1.0  0.08187  0.37040  0.13708  1.0000
  H   H2        1.0  0.94692  0.12950  0.86243  1.0000
  H   H3        1.0  0.91812  0.62960  0.86292  1.0000
  H   H4        1.0  0.05305  0.87050  0.13756  1.0000
  H   H5        1.0  0.87918  0.22895  0.05111  1.0000
  H   H6        1.0  0.83046  0.27091  0.94819  1.0000
  H   H7        1.0  0.12081  0.77105  0.94889  1.0000
  H   H8        1.0  0.16952  0.72909  0.05180  1.0000
  H   H9        1.0  0.38480  0.06194  0.15121  1.0000
  H   H10       1.0  0.23459  0.43798  0.84853  1.0000
  H   H11       1.0  0.61521  0.93806  0.84879  1.0000
  H   H12       1.0  0.76541  0.56203  0.15147  1.0000
  H   H13       1.0  0.22662  0.49594  0.46398  1.0000
  H   H14       1.0  0.76201  0.00420  0.53616  1.0000
  H   H15       1.0  0.77338  0.50406  0.53602  1.0000
  H   H16       1.0  0.23797  0.99580  0.46384  1.0000
  H   H17       1.0  0.47059  0.37524  0.51219  1.0000
  H   H18       1.0  0.95560  0.12497  0.48808  1.0000
  H   H19       1.0  0.52939  0.62475  0.48781  1.0000
  H   H20       1.0  0.04438  0.87503  0.51192  1.0000
  H   H21       1.0  0.39482  0.20980  0.45331  1.0000
  H   H22       1.0  0.93873  0.29035  0.54689  1.0000
  H   H23       1.0  0.60518  0.79019  0.54669  1.0000
  H   H24       1.0  0.06127  0.70965  0.45311  1.0000
  H   H25       1.0  0.05016  0.16595  0.35020  1.0000
  H   H26       1.0  0.69851  0.33417  0.64981  1.0000
  H   H27       1.0  0.94985  0.83404  0.64979  1.0000
  H   H28       1.0  0.30150  0.66583  0.35019  1.0000
  H   H29       1.0  0.63715  0.33782  0.27679  1.0000
  H   H30       1.0  0.36056  0.16213  0.72292  1.0000
  H   H31       1.0  0.36288  0.66218  0.72321  1.0000
  H   H32       1.0  0.63943  0.83787  0.27708  1.0000
  C   C1        1.0  0.15047  0.30159  0.14051  1.0000
  C   C2        1.0  0.01207  0.19831  0.85905  1.0000
  C   C3        1.0  0.84953  0.69841  0.85949  1.0000
  C   C4        1.0  0.98790  0.80169  0.14095  1.0000
  C   C5        1.0  0.03816  0.22362  0.09287  1.0000
  C   C6        1.0  0.94745  0.27628  0.90659  1.0000
  C   C7        1.0  0.96184  0.77638  0.90713  1.0000
  C   C8        1.0  0.05253  0.72372  0.09341  1.0000
  C   C9        1.0  0.31477  0.13076  0.14809  1.0000
  C   C10       1.0  0.16821  0.36914  0.85162  1.0000
  C   C11       1.0  0.68524  0.86924  0.85191  1.0000
  C   C12       1.0  0.83179  0.63086  0.14838  1.0000
  C   C13       1.0  0.42746  0.20918  0.19525  1.0000
  C   C14       1.0  0.23373  0.29073  0.80454  1.0000
  C   C15       1.0  0.57255  0.79082  0.80475  1.0000
  C   C16       1.0  0.76627  0.70928  0.19546  1.0000
  C   C17       1.0  0.65256  0.20008  0.25172  1.0000
  C   C18       1.0  0.40164  0.29984  0.74821  1.0000
  C   C19       1.0  0.34746  0.79992  0.74828  1.0000
  C   C20       1.0  0.59838  0.70016  0.25179  1.0000
  C   C21       1.0  0.94082  0.30549  0.34887  1.0000
  C   C22       1.0  0.59162  0.19461  0.65114  1.0000
  C   C23       1.0  0.05920  0.69451  0.65113  1.0000
  C   C24       1.0  0.40838  0.80539  0.34886  1.0000
  C   C25       1.0  0.99841  0.39924  0.38104  1.0000
  C   C26       1.0  0.61740  0.10086  0.61900  1.0000
  C   C27       1.0  0.00160  0.60076  0.61897  1.0000
  C   C28       1.0  0.38260  0.89914  0.38100  1.0000
  C   C29       1.0  0.18734  0.42352  0.43946  1.0000
  C   C30       1.0  0.74718  0.07660  0.56070  1.0000
  C   C31       1.0  0.81266  0.57647  0.56054  1.0000
  C   C32       1.0  0.25281  0.92340  0.43930  1.0000
  C   C33       1.0  0.32551  0.35559  0.46624  1.0000
  C   C34       1.0  0.85751  0.14456  0.53398  1.0000
  C   C35       1.0  0.67448  0.64440  0.53376  1.0000
  C   C36       1.0  0.14248  0.85544  0.46602  1.0000
  C   C37       1.0  0.27945  0.26308  0.43364  1.0000
  C   C38       1.0  0.84389  0.23706  0.56655  1.0000
  C   C39       1.0  0.72055  0.73691  0.56636  1.0000
  C   C40       1.0  0.15611  0.76294  0.43345  1.0000
  C   C41       1.0  0.08765  0.23787  0.37570  1.0000
  C   C42       1.0  0.71077  0.26224  0.62438  1.0000
  C   C43       1.0  0.91236  0.76213  0.62430  1.0000
  C   C44       1.0  0.28924  0.73776  0.37562  1.0000
  I   I1        1.0  0.80518  0.50306  0.34036  1.0000
  I   I2        1.0  0.46527  0.99705  0.65954  1.0000
  I   I3        1.0  0.19483  0.49693  0.65965  1.0000
  I   I4        1.0  0.53472  0.00296  0.34046  1.0000
  N   N1        1.0  0.34506  0.29421  0.19139  1.0000
  N   N2        1.0  0.15536  0.20569  0.80832  1.0000
  N   N3        1.0  0.65495  0.70579  0.80860  1.0000
  N   N4        1.0  0.84462  0.79432  0.19168  1.0000
  N   N5        1.0  0.12105  0.13896  0.09707  1.0000
  N   N6        1.0  0.02579  0.36096  0.90248  1.0000
  N   N7        1.0  0.87895  0.86104  0.90293  1.0000
  N   N8        1.0  0.97419  0.63904  0.09752  1.0000
  N   N9        1.0  0.74028  0.28350  0.29171  1.0000
  N   N10       1.0  0.44861  0.21651  0.70815  1.0000
  N   N11       1.0  0.25974  0.71650  0.70829  1.0000
  N   N12       1.0  0.55139  0.78350  0.29185  1.0000
  Cl  Cl1       1.0  0.56289  0.08734  0.95471  1.0000
  Cl  Cl2       1.0  0.60988  0.41246  0.04485  1.0000
  Cl  Cl3       1.0  0.43712  0.91266  0.04529  1.0000
  Cl  Cl4       1.0  0.39012  0.58754  0.95516  1.0000
  O   O1        1.0  0.74318  0.12359  0.25758  1.0000
  O   O2        1.0  0.48658  0.37636  0.74250  1.0000
  O   O3        1.0  0.25682  0.87641  0.74242  1.0000
  O   O4        1.0  0.51347  0.62365  0.25751  1.0000
