data_image0
_chemical_formula_structural       Hg2H16C22I2Br4N6O2
_chemical_formula_sum              "Hg2 H16 C22 I2 Br4 N6 O2"
_cell_length_a       7.84631
_cell_length_b       7.85564
_cell_length_c       13.6599
_cell_angle_alpha    100.197
_cell_angle_beta     93.3843
_cell_angle_gamma    114.148

_space_group_name_H-M_alt    "P 1"
_space_group_IT_number       1

loop_
  _space_group_symop_operation_xyz
  'x, y, z'

loop_
  _atom_site_type_symbol
  _atom_site_label
  _atom_site_symmetry_multiplicity
  _atom_site_fract_x
  _atom_site_fract_y
  _atom_site_fract_z
  _atom_site_occupancy
  Hg  Hg1       1.0  0.73637  0.98240  0.48400  1.0000
  Hg  Hg2       1.0  0.26363  0.01761  0.51600  1.0000
  H   H1        1.0  0.36495  0.26468  0.23487  1.0000
  H   H2        1.0  0.63506  0.73533  0.76514  1.0000
  H   H3        1.0  0.42883  0.52691  0.38767  1.0000
  H   H4        1.0  0.57119  0.47311  0.61234  1.0000
  H   H5        1.0  0.82491  0.91643  0.25191  1.0000
  H   H6        1.0  0.17511  0.08357  0.74809  1.0000
  H   H7        1.0  0.81681  0.17637  0.71130  1.0000
  H   H8        1.0  0.18319  0.82363  0.28870  1.0000
  H   H9        1.0  0.03509  0.47024  0.66001  1.0000
  H   H10       1.0  0.96490  0.52975  0.33999  1.0000
  H   H11       1.0  0.13110  0.78923  0.77491  1.0000
  H   H12       1.0  0.86890  0.21076  0.22510  1.0000
  H   H13       1.0  0.99844  0.81685  0.93358  1.0000
  H   H14       1.0  0.00155  0.18315  0.06642  1.0000
  H   H15       1.0  0.66943  0.39370  0.01900  1.0000
  H   H16       1.0  0.33057  0.60629  0.98100  1.0000
  C   C1        1.0  0.46763  0.41077  0.23805  1.0000
  C   C2        1.0  0.53237  0.58924  0.76196  1.0000
  C   C3        1.0  0.50323  0.55521  0.32322  1.0000
  C   C4        1.0  0.49678  0.44479  0.67678  1.0000
  C   C5        1.0  0.71969  0.77177  0.24838  1.0000
  C   C6        1.0  0.28032  0.22823  0.75163  1.0000
  C   C7        1.0  0.68208  0.62619  0.16349  1.0000
  C   C8        1.0  0.31792  0.37381  0.83651  1.0000
  C   C9        1.0  0.78632  0.67759  0.07637  1.0000
  C   C10       1.0  0.21367  0.32240  0.92363  1.0000
  C   C11       1.0  0.83417  0.51245  0.91419  1.0000
  C   C12       1.0  0.16582  0.48755  0.08581  1.0000
  C   C13       1.0  0.78488  0.33223  0.84977  1.0000
  C   C14       1.0  0.21512  0.66777  0.15023  1.0000
  C   C15       1.0  0.85645  0.31732  0.75917  1.0000
  C   C16       1.0  0.14354  0.68267  0.24082  1.0000
  C   C17       1.0  0.98014  0.48178  0.73118  1.0000
  C   C18       1.0  0.01986  0.51821  0.26881  1.0000
  C   C19       1.0  0.03198  0.66018  0.79502  1.0000
  C   C20       1.0  0.96801  0.33981  0.20498  1.0000
  C   C21       1.0  0.95971  0.67706  0.88515  1.0000
  C   C22       1.0  0.04029  0.32293  0.11485  1.0000
  I   I1        1.0  0.60345  0.07855  0.88965  1.0000
  I   I2        1.0  0.39655  0.92145  0.11034  1.0000
  Br  Br1       1.0  0.87990  0.83029  0.59388  1.0000
  Br  Br2       1.0  0.12011  0.16974  0.40613  1.0000
  Br  Br3       1.0  0.64929  0.24316  0.44544  1.0000
  Br  Br4       1.0  0.35070  0.75684  0.55456  1.0000
  N   N1        1.0  0.55861  0.44518  0.15881  1.0000
  N   N2        1.0  0.44138  0.55482  0.84119  1.0000
  N   N3        1.0  0.63171  0.73436  0.32814  1.0000
  N   N4        1.0  0.36830  0.26564  0.67186  1.0000
  N   N5        1.0  0.75773  0.52129  0.00357  1.0000
  N   N6        1.0  0.24226  0.47871  0.99642  1.0000
  O   O1        1.0  0.88565  0.84668  0.07603  1.0000
  O   O2        1.0  0.11433  0.15332  0.92396  1.0000
