data_image0
_chemical_formula_structural       Hg2H32C44N12Cl8O4
_chemical_formula_sum              "Hg2 H32 C44 N12 Cl8 O4"
_cell_length_a       3.80937
_cell_length_b       14.8468
_cell_length_c       20.955
_cell_angle_alpha    90.7028
_cell_angle_beta     90
_cell_angle_gamma    90

_space_group_name_H-M_alt    "P 1"
_space_group_IT_number       1

loop_
  _space_group_symop_operation_xyz
  'x, y, z'

loop_
  _atom_site_type_symbol
  _atom_site_label
  _atom_site_symmetry_multiplicity
  _atom_site_fract_x
  _atom_site_fract_y
  _atom_site_fract_z
  _atom_site_occupancy
  Hg  Hg1       1.0  0.00000  0.00000  0.00000  1.0000
  Hg  Hg2       1.0  0.49999  0.50000  0.50001  1.0000
  H   H1        1.0  0.37655  0.17508  0.76945  1.0000
  H   H2        1.0  0.87655  0.32492  0.73055  1.0000
  H   H3        1.0  0.62345  0.82492  0.23055  1.0000
  H   H4        1.0  0.12345  0.67508  0.26945  1.0000
  H   H5        1.0  0.28141  0.04697  0.84746  1.0000
  H   H6        1.0  0.78142  0.45303  0.65254  1.0000
  H   H7        1.0  0.71859  0.95303  0.15254  1.0000
  H   H8        1.0  0.21859  0.54697  0.34746  1.0000
  H   H9        1.0  0.81313  0.22538  0.97571  1.0000
  H   H10       1.0  0.31313  0.27462  0.52429  1.0000
  H   H11       1.0  0.18687  0.77462  0.02429  1.0000
  H   H12       1.0  0.68688  0.72538  0.47571  1.0000
  H   H13       1.0  0.10594  0.71441  0.76897  1.0000
  H   H14       1.0  0.60594  0.78559  0.73103  1.0000
  H   H15       1.0  0.89406  0.28560  0.23103  1.0000
  H   H16       1.0  0.39405  0.21440  0.26897  1.0000
  H   H17       1.0  0.83001  0.79565  0.86122  1.0000
  H   H18       1.0  0.33000  0.70435  0.63878  1.0000
  H   H19       1.0  0.16999  0.20435  0.13878  1.0000
  H   H20       1.0  0.66999  0.29565  0.36122  1.0000
  H   H21       1.0  0.61275  0.70773  0.95420  1.0000
  H   H22       1.0  0.11275  0.79227  0.54580  1.0000
  H   H23       1.0  0.38725  0.29227  0.04580  1.0000
  H   H24       1.0  0.88724  0.20773  0.45420  1.0000
  H   H25       1.0  0.67863  0.54273  0.95597  1.0000
  H   H26       1.0  0.17863  0.95727  0.54403  1.0000
  H   H27       1.0  0.32137  0.45727  0.04403  1.0000
  H   H28       1.0  0.82136  0.04273  0.45597  1.0000
  H   H29       1.0  0.12195  0.41576  0.82510  1.0000
  H   H30       1.0  0.62195  0.08424  0.67490  1.0000
  H   H31       1.0  0.87806  0.58424  0.17490  1.0000
  H   H32       1.0  0.37805  0.91576  0.32510  1.0000
  C   C1        1.0  0.24820  0.18619  0.81553  1.0000
  C   C2        1.0  0.74820  0.31381  0.68447  1.0000
  C   C3        1.0  0.75180  0.81381  0.18447  1.0000
  C   C4        1.0  0.25180  0.68619  0.31553  1.0000
  C   C5        1.0  0.19600  0.11573  0.85812  1.0000
  C   C6        1.0  0.69601  0.38427  0.64188  1.0000
  C   C7        1.0  0.80399  0.88427  0.14188  1.0000
  C   C8        1.0  0.30400  0.61573  0.35812  1.0000
  C   C9        1.0  0.93696  0.21398  0.92936  1.0000
  C   C10       1.0  0.43696  0.28603  0.57064  1.0000
  C   C11       1.0  0.06304  0.78602  0.07064  1.0000
  C   C12       1.0  0.56305  0.71397  0.42936  1.0000
  C   C13       1.0  0.98840  0.28433  0.88639  1.0000
  C   C14       1.0  0.48840  0.21567  0.61361  1.0000
  C   C15       1.0  0.01160  0.71567  0.11361  1.0000
  C   C16       1.0  0.51160  0.78433  0.38639  1.0000
  C   C17       1.0  0.86150  0.37743  0.90369  1.0000
  C   C18       1.0  0.36150  0.12257  0.59631  1.0000
  C   C19       1.0  0.13850  0.62257  0.09631  1.0000
  C   C20       1.0  0.63851  0.87743  0.40369  1.0000
  C   C21       1.0  0.92740  0.53411  0.86371  1.0000
  C   C22       1.0  0.42739  0.96589  0.63629  1.0000
  C   C23       1.0  0.07261  0.46589  0.13629  1.0000
  C   C24       1.0  0.57260  0.03411  0.36371  1.0000
  C   C25       1.0  0.04440  0.58455  0.81118  1.0000
  C   C26       1.0  0.54440  0.91546  0.68882  1.0000
  C   C27       1.0  0.95560  0.41545  0.18881  1.0000
  C   C28       1.0  0.45560  0.08454  0.31118  1.0000
  C   C29       1.0  0.01083  0.67771  0.81017  1.0000
  C   C30       1.0  0.51082  0.82229  0.68983  1.0000
  C   C31       1.0  0.98917  0.32229  0.18983  1.0000
  C   C32       1.0  0.48918  0.17771  0.31016  1.0000
  C   C33       1.0  0.85723  0.72266  0.86190  1.0000
  C   C34       1.0  0.35722  0.77734  0.63810  1.0000
  C   C35       1.0  0.14277  0.27734  0.13810  1.0000
  C   C36       1.0  0.64277  0.22266  0.36190  1.0000
  C   C37       1.0  0.73900  0.67370  0.91406  1.0000
  C   C38       1.0  0.23899  0.82631  0.58594  1.0000
  C   C39       1.0  0.26100  0.32630  0.08594  1.0000
  C   C40       1.0  0.76100  0.17370  0.41406  1.0000
  C   C41       1.0  0.77235  0.58042  0.91534  1.0000
  C   C42       1.0  0.27234  0.91959  0.58466  1.0000
  C   C43       1.0  0.22766  0.41958  0.08466  1.0000
  C   C44       1.0  0.72765  0.08042  0.41534  1.0000
  N   N1        1.0  0.14663  0.27042  0.82980  1.0000
  N   N2        1.0  0.64662  0.22958  0.67020  1.0000
  N   N3        1.0  0.85338  0.72958  0.17020  1.0000
  N   N4        1.0  0.35338  0.77042  0.32980  1.0000
  N   N5        1.0  0.04222  0.13036  0.91481  1.0000
  N   N6        1.0  0.54222  0.36964  0.58519  1.0000
  N   N7        1.0  0.95778  0.86964  0.08519  1.0000
  N   N8        1.0  0.45778  0.63036  0.41481  1.0000
  N   N9        1.0  0.97444  0.44090  0.86200  1.0000
  N   N10       1.0  0.47444  0.05910  0.63800  1.0000
  N   N11       1.0  0.02556  0.55910  0.13800  1.0000
  N   N12       1.0  0.52556  0.94090  0.36200  1.0000
  Cl  Cl1       1.0  0.40053  0.91002  0.93540  1.0000
  Cl  Cl2       1.0  0.90053  0.58998  0.56460  1.0000
  Cl  Cl3       1.0  0.59947  0.08998  0.06460  1.0000
  Cl  Cl4       1.0  0.09948  0.41002  0.43540  1.0000
  Cl  Cl5       1.0  0.23241  0.52954  0.74573  1.0000
  Cl  Cl6       1.0  0.73241  0.97047  0.75427  1.0000
  Cl  Cl7       1.0  0.76759  0.47046  0.25427  1.0000
  Cl  Cl8       1.0  0.26759  0.02953  0.24572  1.0000
  O   O1        1.0  0.67053  0.38993  0.95074  1.0000
  O   O2        1.0  0.17052  0.11008  0.54926  1.0000
  O   O3        1.0  0.32948  0.61007  0.04926  1.0000
  O   O4        1.0  0.82948  0.88992  0.45074  1.0000
