data_image0
_chemical_formula_structural       Ag4H24C40S4N8O12
_chemical_formula_sum              "Ag4 H24 C40 S4 N8 O12"
_cell_length_a       8.2688
_cell_length_b       11.1386
_cell_length_c       11.4168
_cell_angle_alpha    89.442
_cell_angle_beta     77.9726
_cell_angle_gamma    79.2239

_space_group_name_H-M_alt    "P 1"
_space_group_IT_number       1

loop_
  _space_group_symop_operation_xyz
  'x, y, z'

loop_
  _atom_site_type_symbol
  _atom_site_label
  _atom_site_symmetry_multiplicity
  _atom_site_fract_x
  _atom_site_fract_y
  _atom_site_fract_z
  _atom_site_occupancy
  Ag  Ag1       1.0  0.44838  0.34032  0.46428  1.0000
  Ag  Ag2       1.0  0.55162  0.65968  0.53572  1.0000
  Ag  Ag3       1.0  0.24007  0.58109  0.45094  1.0000
  Ag  Ag4       1.0  0.75993  0.41891  0.54906  1.0000
  H   H1        1.0  0.56583  0.88655  0.66710  1.0000
  H   H2        1.0  0.43417  0.11345  0.33290  1.0000
  H   H3        1.0  0.50171  0.98016  0.86935  1.0000
  H   H4        1.0  0.49829  0.01984  0.13065  1.0000
  H   H5        1.0  0.38137  0.85783  0.04670  1.0000
  H   H6        1.0  0.61863  0.14216  0.95330  1.0000
  H   H7        1.0  0.33889  0.64933  0.00567  1.0000
  H   H8        1.0  0.66111  0.35066  0.99433  1.0000
  H   H9        1.0  0.21499  0.13204  0.87149  1.0000
  H   H10       1.0  0.78501  0.86796  0.12852  1.0000
  H   H11       1.0  0.11642  0.02602  0.05510  1.0000
  H   H12       1.0  0.88357  0.97398  0.94490  1.0000
  H   H13       1.0  0.05472  0.13281  0.25412  1.0000
  H   H14       1.0  0.94528  0.86719  0.74588  1.0000
  H   H15       1.0  0.18482  0.45787  0.08303  1.0000
  H   H16       1.0  0.81518  0.54213  0.91697  1.0000
  H   H17       1.0  0.96192  0.32699  0.76489  1.0000
  H   H18       1.0  0.03809  0.67301  0.23512  1.0000
  H   H19       1.0  0.02222  0.97646  0.58882  1.0000
  H   H20       1.0  0.97778  0.02354  0.41118  1.0000
  H   H21       1.0  0.32981  0.95979  0.54112  1.0000
  H   H22       1.0  0.67019  0.04021  0.45889  1.0000
  H   H23       1.0  0.45991  0.12621  0.61053  1.0000
  H   H24       1.0  0.54010  0.87379  0.38947  1.0000
  C   C1        1.0  0.50994  0.83777  0.74338  1.0000
  C   C2        1.0  0.49006  0.16223  0.25662  1.0000
  C   C3        1.0  0.47403  0.88974  0.85863  1.0000
  C   C4        1.0  0.52597  0.11026  0.14137  1.0000
  C   C5        1.0  0.40957  0.82254  0.95456  1.0000
  C   C6        1.0  0.59042  0.17746  0.04544  1.0000
  C   C7        1.0  0.38467  0.70527  0.93216  1.0000
  C   C8        1.0  0.61533  0.29473  0.06783  1.0000
  C   C9        1.0  0.42143  0.65946  0.81407  1.0000
  C   C10       1.0  0.57857  0.34054  0.18593  1.0000
  C   C11       1.0  0.39236  0.53586  0.78912  1.0000
  C   C12       1.0  0.60764  0.46414  0.21088  1.0000
  C   C13       1.0  0.29256  0.33382  0.73509  1.0000
  C   C14       1.0  0.70744  0.66618  0.26491  1.0000
  C   C15       1.0  0.26712  0.37318  0.85763  1.0000
  C   C16       1.0  0.73289  0.62681  0.14237  1.0000
  C   C17       1.0  0.20228  0.30481  0.96292  1.0000
  C   C18       1.0  0.79772  0.69519  0.03708  1.0000
  C   C19       1.0  0.18350  0.18196  0.95692  1.0000
  C   C20       1.0  0.81649  0.81804  0.04308  1.0000
  C   C21       1.0  0.12810  0.12159  0.06083  1.0000
  C   C22       1.0  0.87189  0.87841  0.93917  1.0000
  C   C23       1.0  0.09259  0.18097  0.17271  1.0000
  C   C24       1.0  0.90741  0.81903  0.82729  1.0000
  C   C25       1.0  0.11430  0.30201  0.17902  1.0000
  C   C26       1.0  0.88570  0.69799  0.82098  1.0000
  C   C27       1.0  0.16692  0.36414  0.07621  1.0000
  C   C28       1.0  0.83308  0.63586  0.92379  1.0000
  C   C29       1.0  0.21946  0.23653  0.69188  1.0000
  C   C30       1.0  0.78054  0.76347  0.30812  1.0000
  C   C31       1.0  0.04410  0.24661  0.71739  1.0000
  C   C32       1.0  0.95590  0.75339  0.28261  1.0000
  C   C33       1.0  0.97485  0.15376  0.67822  1.0000
  C   C34       1.0  0.02515  0.84624  0.32178  1.0000
  C   C35       1.0  0.07778  0.04970  0.61683  1.0000
  C   C36       1.0  0.92222  0.95031  0.38317  1.0000
  C   C37       1.0  0.25186  0.04087  0.59024  1.0000
  C   C38       1.0  0.74814  0.95913  0.40976  1.0000
  C   C39       1.0  0.32356  0.13451  0.62640  1.0000
  C   C40       1.0  0.67644  0.86549  0.37361  1.0000
  S   S1        1.0  0.07396  0.37794  0.32173  1.0000
  S   S2        1.0  0.92604  0.62206  0.67827  1.0000
  S   S3        1.0  0.75170  0.17450  0.69567  1.0000
  S   S4        1.0  0.24830  0.82551  0.30434  1.0000
  N   N1        1.0  0.48195  0.72613  0.72081  1.0000
  N   N2        1.0  0.51806  0.27387  0.27919  1.0000
  N   N3        1.0  0.45298  0.48503  0.67847  1.0000
  N   N4        1.0  0.54702  0.51497  0.32153  1.0000
  N   N5        1.0  0.39138  0.38871  0.65221  1.0000
  N   N6        1.0  0.60863  0.61129  0.34779  1.0000
  N   N7        1.0  0.30876  0.47967  0.87914  1.0000
  N   N8        1.0  0.69124  0.52033  0.12086  1.0000
  O   O1        1.0  0.13346  0.29075  0.40670  1.0000
  O   O2        1.0  0.86654  0.70925  0.59330  1.0000
  O   O3        1.0  0.16451  0.48130  0.29893  1.0000
  O   O4        1.0  0.83549  0.51870  0.70106  1.0000
  O   O5        1.0  0.88827  0.41974  0.35024  1.0000
  O   O6        1.0  0.11173  0.58026  0.64976  1.0000
  O   O7        1.0  0.67848  0.27328  0.78538  1.0000
  O   O8        1.0  0.32152  0.72672  0.21462  1.0000
  O   O9        1.0  0.70443  0.05656  0.72832  1.0000
  O   O10       1.0  0.29556  0.94344  0.27169  1.0000
  O   O11       1.0  0.72481  0.20944  0.57343  1.0000
  O   O12       1.0  0.27520  0.79056  0.42657  1.0000
