data_image0
_chemical_formula_structural       HgH16C22Br2N6O2F2
_chemical_formula_sum              "Hg1 H16 C22 Br2 N6 O2 F2"
_cell_length_a       4.18831
_cell_length_b       10.798
_cell_length_c       13.1279
_cell_angle_alpha    105.047
_cell_angle_beta     93.6096
_cell_angle_gamma    94.5932

_space_group_name_H-M_alt    "P 1"
_space_group_IT_number       1

loop_
  _space_group_symop_operation_xyz
  'x, y, z'

loop_
  _atom_site_type_symbol
  _atom_site_label
  _atom_site_symmetry_multiplicity
  _atom_site_fract_x
  _atom_site_fract_y
  _atom_site_fract_z
  _atom_site_occupancy
  Hg  Hg1       1.0  0.50000  0.00000  0.50000  1.0000
  H   H1        1.0  0.00556  0.06575  0.10182  1.0000
  H   H2        1.0  0.99444  0.93424  0.89818  1.0000
  H   H3        1.0  0.11197  0.10548  0.30137  1.0000
  H   H4        1.0  0.88804  0.89452  0.69863  1.0000
  H   H5        1.0  0.62003  0.78326  0.25410  1.0000
  H   H6        1.0  0.37997  0.21674  0.74590  1.0000
  H   H7        1.0  0.51190  0.61137  0.57688  1.0000
  H   H8        1.0  0.48810  0.38863  0.42312  1.0000
  H   H9        1.0  0.83823  0.42363  0.57374  1.0000
  H   H10       1.0  0.16177  0.57637  0.42626  1.0000
  H   H11       1.0  0.00189  0.37372  0.74302  1.0000
  H   H12       1.0  0.99810  0.62628  0.25698  1.0000
  H   H13       1.0  0.84841  0.50516  0.91301  1.0000
  H   H14       1.0  0.15158  0.49484  0.08698  1.0000
  H   H15       1.0  0.34469  0.77928  0.92322  1.0000
  H   H16       1.0  0.65531  0.22072  0.07678  1.0000
  C   C1        1.0  0.14513  0.00308  0.13617  1.0000
  C   C2        1.0  0.85488  0.99692  0.86383  1.0000
  C   C3        1.0  0.20150  0.02460  0.24577  1.0000
  C   C4        1.0  0.79850  0.97540  0.75423  1.0000
  C   C5        1.0  0.48395  0.84714  0.22021  1.0000
  C   C6        1.0  0.51605  0.15285  0.77979  1.0000
  C   C7        1.0  0.43180  0.82732  0.11055  1.0000
  C   C8        1.0  0.56820  0.17267  0.88945  1.0000
  C   C9        1.0  0.57861  0.72012  0.03670  1.0000
  C   C10       1.0  0.42139  0.27988  0.96330  1.0000
  C   C11       1.0  0.59166  0.63129  0.84188  1.0000
  C   C12       1.0  0.40834  0.36871  0.15812  1.0000
  C   C13       1.0  0.49988  0.65590  0.74497  1.0000
  C   C14       1.0  0.50012  0.34410  0.25503  1.0000
  C   C15       1.0  0.58488  0.58484  0.64880  1.0000
  C   C16       1.0  0.41512  0.41516  0.35120  1.0000
  C   C17       1.0  0.76613  0.48153  0.64816  1.0000
  C   C18       1.0  0.23386  0.51847  0.35184  1.0000
  C   C19       1.0  0.85754  0.45319  0.74303  1.0000
  C   C20       1.0  0.14245  0.54681  0.25696  1.0000
  C   C21       1.0  0.77365  0.52709  0.83957  1.0000
  C   C22       1.0  0.22634  0.47291  0.16042  1.0000
  Br  Br1       1.0  0.14697  0.18566  0.52348  1.0000
  Br  Br2       1.0  0.85304  0.81435  0.47652  1.0000
  N   N1        1.0  0.26100  0.90515  0.06874  1.0000
  N   N2        1.0  0.73900  0.09484  0.93126  1.0000
  N   N3        1.0  0.37007  0.94632  0.28703  1.0000
  N   N4        1.0  0.62994  0.05368  0.71297  1.0000
  N   N5        1.0  0.49340  0.71213  0.93322  1.0000
  N   N6        1.0  0.50660  0.28786  0.06678  1.0000
  O   O1        1.0  0.76147  0.65255  0.07055  1.0000
  O   O2        1.0  0.23853  0.34745  0.92945  1.0000
  F   F1        1.0  0.31421  0.75635  0.74774  1.0000
  F   F2        1.0  0.68580  0.24366  0.25226  1.0000
