data_image0
_chemical_formula_structural       Hg2H32C44Br8N12O4
_chemical_formula_sum              "Hg2 H32 C44 Br8 N12 O4"
_cell_length_a       3.93929
_cell_length_b       15.105
_cell_length_c       20.829
_cell_angle_alpha    90.9922
_cell_angle_beta     90
_cell_angle_gamma    90

_space_group_name_H-M_alt    "P 1"
_space_group_IT_number       1

loop_
  _space_group_symop_operation_xyz
  'x, y, z'

loop_
  _atom_site_type_symbol
  _atom_site_label
  _atom_site_symmetry_multiplicity
  _atom_site_fract_x
  _atom_site_fract_y
  _atom_site_fract_z
  _atom_site_occupancy
  Hg  Hg1       1.0  0.00000  0.00000  0.00000  1.0000
  Hg  Hg2       1.0  0.50000  0.50000  0.50000  1.0000
  H   H1        1.0  0.59007  0.81454  0.77109  1.0000
  H   H2        1.0  0.09007  0.68546  0.72891  1.0000
  H   H3        1.0  0.40993  0.18546  0.22891  1.0000
  H   H4        1.0  0.90993  0.31454  0.27109  1.0000
  H   H5        1.0  0.68985  0.94329  0.84873  1.0000
  H   H6        1.0  0.18985  0.55670  0.65127  1.0000
  H   H7        1.0  0.31015  0.05670  0.15127  1.0000
  H   H8        1.0  0.81015  0.44330  0.34873  1.0000
  H   H9        1.0  0.17659  0.77471  0.97455  1.0000
  H   H10       1.0  0.67659  0.72529  0.52545  1.0000
  H   H11       1.0  0.82341  0.22529  0.02545  1.0000
  H   H12       1.0  0.32340  0.27471  0.47455  1.0000
  H   H13       1.0  0.88812  0.28205  0.77108  1.0000
  H   H14       1.0  0.38812  0.21795  0.72892  1.0000
  H   H15       1.0  0.11188  0.71795  0.22892  1.0000
  H   H16       1.0  0.61189  0.78205  0.27108  1.0000
  H   H17       1.0  0.17434  0.20932  0.86265  1.0000
  H   H18       1.0  0.67434  0.29068  0.63734  1.0000
  H   H19       1.0  0.82566  0.79068  0.13734  1.0000
  H   H20       1.0  0.32566  0.70932  0.36266  1.0000
  H   H21       1.0  0.39206  0.30233  0.95469  1.0000
  H   H22       1.0  0.89207  0.19766  0.54531  1.0000
  H   H23       1.0  0.60794  0.69766  0.04531  1.0000
  H   H24       1.0  0.10793  0.80234  0.45469  1.0000
  H   H25       1.0  0.31346  0.46417  0.95540  1.0000
  H   H26       1.0  0.81349  0.03583  0.54460  1.0000
  H   H27       1.0  0.68654  0.53583  0.04460  1.0000
  H   H28       1.0  0.18651  0.96417  0.45540  1.0000
  H   H29       1.0  0.85966  0.57988  0.82532  1.0000
  H   H30       1.0  0.35966  0.92013  0.67468  1.0000
  H   H31       1.0  0.14034  0.42012  0.17468  1.0000
  H   H32       1.0  0.64034  0.07988  0.32532  1.0000
  C   C1        1.0  0.72255  0.80536  0.81662  1.0000
  C   C2        1.0  0.22255  0.69463  0.68338  1.0000
  C   C3        1.0  0.27745  0.19464  0.18338  1.0000
  C   C4        1.0  0.77744  0.30537  0.31662  1.0000
  C   C5        1.0  0.77856  0.87653  0.85906  1.0000
  C   C6        1.0  0.27856  0.62347  0.64094  1.0000
  C   C7        1.0  0.22144  0.12347  0.14094  1.0000
  C   C8        1.0  0.72144  0.37653  0.35906  1.0000
  C   C9        1.0  0.04659  0.78372  0.92886  1.0000
  C   C10       1.0  0.54659  0.71628  0.57114  1.0000
  C   C11       1.0  0.95341  0.21628  0.07114  1.0000
  C   C12       1.0  0.45339  0.28372  0.42886  1.0000
  C   C13       1.0  0.99129  0.71251  0.88610  1.0000
  C   C14       1.0  0.49129  0.78748  0.61390  1.0000
  C   C15       1.0  0.00871  0.28749  0.11390  1.0000
  C   C16       1.0  0.50869  0.21252  0.38610  1.0000
  C   C17       1.0  0.12093  0.62216  0.90304  1.0000
  C   C18       1.0  0.62093  0.87784  0.59696  1.0000
  C   C19       1.0  0.87907  0.37784  0.09696  1.0000
  C   C20       1.0  0.37906  0.12216  0.40304  1.0000
  C   C21       1.0  0.05895  0.46606  0.86388  1.0000
  C   C22       1.0  0.55897  0.03394  0.63612  1.0000
  C   C23       1.0  0.94105  0.53394  0.13612  1.0000
  C   C24       1.0  0.44103  0.96607  0.36388  1.0000
  C   C25       1.0  0.94245  0.41271  0.81222  1.0000
  C   C26       1.0  0.44246  0.08729  0.68778  1.0000
  C   C27       1.0  0.05756  0.58729  0.18778  1.0000
  C   C28       1.0  0.55755  0.91271  0.31222  1.0000
  C   C29       1.0  0.98212  0.32136  0.81160  1.0000
  C   C30       1.0  0.48212  0.17864  0.68840  1.0000
  C   C31       1.0  0.01788  0.67864  0.18840  1.0000
  C   C32       1.0  0.51788  0.82136  0.31160  1.0000
  C   C33       1.0  0.14248  0.28100  0.86318  1.0000
  C   C34       1.0  0.64249  0.21900  0.63682  1.0000
  C   C35       1.0  0.85752  0.71900  0.13682  1.0000
  C   C36       1.0  0.35752  0.78100  0.36318  1.0000
  C   C37       1.0  0.26115  0.33263  0.91462  1.0000
  C   C38       1.0  0.76117  0.16737  0.58538  1.0000
  C   C39       1.0  0.73885  0.66737  0.08538  1.0000
  C   C40       1.0  0.23883  0.83263  0.41462  1.0000
  C   C41       1.0  0.22007  0.42414  0.91537  1.0000
  C   C42       1.0  0.72010  0.07585  0.58463  1.0000
  C   C43       1.0  0.77993  0.57586  0.08463  1.0000
  C   C44       1.0  0.27991  0.92414  0.41537  1.0000
  Br  Br1       1.0  0.60057  0.09282  0.93182  1.0000
  Br  Br2       1.0  0.10057  0.40718  0.56818  1.0000
  Br  Br3       1.0  0.39943  0.90718  0.06818  1.0000
  Br  Br4       1.0  0.89943  0.59282  0.43182  1.0000
  Br  Br5       1.0  0.72942  0.46585  0.73992  1.0000
  Br  Br6       1.0  0.22942  0.03415  0.76007  1.0000
  Br  Br7       1.0  0.27058  0.53415  0.26008  1.0000
  Br  Br8       1.0  0.77059  0.96585  0.23992  1.0000
  N   N1        1.0  0.82751  0.72341  0.83017  1.0000
  N   N2        1.0  0.32751  0.77659  0.66983  1.0000
  N   N3        1.0  0.17250  0.27659  0.16983  1.0000
  N   N4        1.0  0.67248  0.22341  0.33017  1.0000
  N   N5        1.0  0.93939  0.86512  0.91494  1.0000
  N   N6        1.0  0.43939  0.63488  0.58506  1.0000
  N   N7        1.0  0.06061  0.13488  0.08506  1.0000
  N   N8        1.0  0.56060  0.36513  0.41494  1.0000
  N   N9        1.0  0.00748  0.55742  0.86204  1.0000
  N   N10       1.0  0.50748  0.94258  0.63796  1.0000
  N   N11       1.0  0.99253  0.44258  0.13797  1.0000
  N   N12       1.0  0.49252  0.05742  0.36204  1.0000
  O   O1        1.0  0.31267  0.61261  0.94950  1.0000
  O   O2        1.0  0.81266  0.88738  0.55050  1.0000
  O   O3        1.0  0.68734  0.38738  0.05050  1.0000
  O   O4        1.0  0.18733  0.11262  0.44950  1.0000
