data_image0
_chemical_formula_structural       Ni2H44C44N8O16
_chemical_formula_sum              "Ni2 H44 C44 N8 O16"
_cell_length_a       7.77555
_cell_length_b       9.85805
_cell_length_c       16.0291
_cell_angle_alpha    104.423
_cell_angle_beta     99.2745
_cell_angle_gamma    105.395

_space_group_name_H-M_alt    "P 1"
_space_group_IT_number       1

loop_
  _space_group_symop_operation_xyz
  'x, y, z'

loop_
  _atom_site_type_symbol
  _atom_site_label
  _atom_site_symmetry_multiplicity
  _atom_site_fract_x
  _atom_site_fract_y
  _atom_site_fract_z
  _atom_site_occupancy
  Ni  Ni1       1.0  0.87169  0.87156  0.74118  1.0000
  Ni  Ni2       1.0  0.12878  0.12840  0.25883  1.0000
  H   H1        1.0  0.58367  0.79231  0.58313  1.0000
  H   H2        1.0  0.00226  0.79224  0.58452  1.0000
  H   H3        1.0  0.41712  0.20766  0.41731  1.0000
  H   H4        1.0  0.99822  0.20732  0.41507  1.0000
  H   H5        1.0  0.58157  0.91262  0.67698  1.0000
  H   H6        1.0  0.09744  0.76534  0.67793  1.0000
  H   H7        1.0  0.41895  0.08754  0.32337  1.0000
  H   H8        1.0  0.90274  0.23444  0.32173  1.0000
  H   H9        1.0  0.05100  0.13985  0.88536  1.0000
  H   H10       1.0  0.83916  0.75107  0.88636  1.0000
  H   H11       1.0  0.94869  0.86028  0.11456  1.0000
  H   H12       1.0  0.16062  0.24916  0.11372  1.0000
  H   H13       1.0  0.12819  0.53687  0.66219  1.0000
  H   H14       1.0  0.53136  0.12548  0.66276  1.0000
  H   H15       1.0  0.87116  0.46270  0.33745  1.0000
  H   H16       1.0  0.46846  0.87453  0.33756  1.0000
  H   H17       1.0  0.16675  0.41429  0.90693  1.0000
  H   H18       1.0  0.74378  0.49897  0.90809  1.0000
  H   H19       1.0  0.83266  0.58582  0.09285  1.0000
  H   H20       1.0  0.25567  0.50137  0.09211  1.0000
  H   H21       1.0  0.16851  0.50100  0.77436  1.0000
  H   H22       1.0  0.60621  0.27669  0.77570  1.0000
  H   H23       1.0  0.83120  0.49889  0.22536  1.0000
  H   H24       1.0  0.39358  0.72349  0.22457  1.0000
  H   H25       1.0  0.95229  0.04255  0.61201  1.0000
  H   H26       1.0  0.66127  0.56871  0.61305  1.0000
  H   H27       1.0  0.04835  0.95719  0.38791  1.0000
  H   H28       1.0  0.33957  0.43112  0.38704  1.0000
  H   H29       1.0  0.15953  0.44402  0.47904  1.0000
  H   H30       1.0  0.31865  0.03313  0.47911  1.0000
  H   H31       1.0  0.84030  0.55554  0.52064  1.0000
  H   H32       1.0  0.68145  0.96674  0.52120  1.0000
  H   H33       1.0  0.18452  0.62402  0.54594  1.0000
  H   H34       1.0  0.36145  0.92023  0.54507  1.0000
  H   H35       1.0  0.81533  0.37554  0.45371  1.0000
  H   H36       1.0  0.63879  0.07976  0.45529  1.0000
  H   H37       1.0  0.18426  0.94444  0.00023  1.0000
  H   H38       1.0  0.81545  0.05585  0.99975  1.0000
  H   H39       1.0  0.45196  0.67016  0.85603  1.0000
  H   H40       1.0  0.40559  0.18821  0.85720  1.0000
  H   H41       1.0  0.54780  0.33012  0.14399  1.0000
  H   H42       1.0  0.59416  0.81222  0.14282  1.0000
  H   H43       1.0  0.63393  0.66848  0.99917  1.0000
  H   H44       1.0  0.36594  0.33193  0.00087  1.0000
  C   C1        1.0  0.05554  0.18392  0.82958  1.0000
  C   C2        1.0  0.77776  0.65009  0.83060  1.0000
  C   C3        1.0  0.94430  0.81614  0.17031  1.0000
  C   C4        1.0  0.22219  0.35007  0.16951  1.0000
  C   C5        1.0  0.11901  0.33458  0.84057  1.0000
  C   C6        1.0  0.72447  0.51078  0.84170  1.0000
  C   C7        1.0  0.88067  0.66545  0.15924  1.0000
  C   C8        1.0  0.27530  0.48945  0.15847  1.0000
  C   C9        1.0  0.12065  0.38262  0.76594  1.0000
  C   C10       1.0  0.64636  0.38642  0.76722  1.0000
  C   C11       1.0  0.87917  0.61729  0.23384  1.0000
  C   C12       1.0  0.35356  0.61371  0.23300  1.0000
  C   C13       1.0  0.06087  0.27699  0.68177  1.0000
  C   C14       1.0  0.62135  0.40600  0.68306  1.0000
  C   C15       1.0  0.93928  0.72281  0.31804  1.0000
  C   C16       1.0  0.37887  0.59402  0.31714  1.0000
  C   C17       1.0  0.99947  0.12743  0.67636  1.0000
  C   C18       1.0  0.67855  0.54987  0.67749  1.0000
  C   C19       1.0  0.00087  0.87239  0.32352  1.0000
  C   C20       1.0  0.32190  0.45010  0.32264  1.0000
  C   C21       1.0  0.05546  0.31374  0.59631  1.0000
  C   C22       1.0  0.54015  0.28246  0.59757  1.0000
  C   C23       1.0  0.94483  0.68591  0.40343  1.0000
  C   C24       1.0  0.46024  0.71749  0.40267  1.0000
  C   C25       1.0  0.09775  0.50803  0.52421  1.0000
  C   C26       1.0  0.42596  0.01525  0.52429  1.0000
  C   C27       1.0  0.90208  0.49155  0.47546  1.0000
  C   C28       1.0  0.57420  0.98470  0.47603  1.0000
  C   C29       1.0  0.19700  0.80660  0.83299  1.0000
  C   C30       1.0  0.63807  0.02891  0.83282  1.0000
  C   C31       1.0  0.80267  0.19334  0.16694  1.0000
  C   C32       1.0  0.36157  0.97120  0.16723  1.0000
  C   C33       1.0  0.30440  0.80445  0.91921  1.0000
  C   C34       1.0  0.61580  0.11631  0.91943  1.0000
  C   C35       1.0  0.69536  0.19584  0.08078  1.0000
  C   C36       1.0  0.38387  0.88400  0.08057  1.0000
  C   C37       1.0  0.28067  0.88210  0.00004  1.0000
  C   C38       1.0  0.71906  0.11820  0.99995  1.0000
  C   C39       1.0  0.43169  0.72709  0.91932  1.0000
  C   C40       1.0  0.48876  0.19394  0.92024  1.0000
  C   C41       1.0  0.56809  0.27322  0.08071  1.0000
  C   C42       1.0  0.51097  0.80644  0.07978  1.0000
  C   C43       1.0  0.53384  0.72773  0.99939  1.0000
  C   C44       1.0  0.46599  0.27266  0.00065  1.0000
  N   N1        1.0  0.99417  0.08225  0.74846  1.0000
  N   N2        1.0  0.75734  0.66876  0.74942  1.0000
  N   N3        1.0  0.00604  0.91769  0.25147  1.0000
  N   N4        1.0  0.24298  0.33129  0.25066  1.0000
  N   N5        1.0  0.09759  0.45786  0.60203  1.0000
  N   N6        1.0  0.50251  0.14387  0.60276  1.0000
  N   N7        1.0  0.90221  0.54175  0.39764  1.0000
  N   N8        1.0  0.49761  0.85612  0.39753  1.0000
  O   O1        1.0  0.65569  0.86383  0.64180  1.0000
  O   O2        1.0  0.98773  0.77791  0.64242  1.0000
  O   O3        1.0  0.34495  0.13630  0.35861  1.0000
  O   O4        1.0  0.01259  0.22189  0.35721  1.0000
  O   O5        1.0  0.01184  0.21163  0.52433  1.0000
  O   O6        1.0  0.51231  0.31195  0.52583  1.0000
  O   O7        1.0  0.98899  0.78801  0.47545  1.0000
  O   O8        1.0  0.48851  0.68800  0.47439  1.0000
  O   O9        1.0  0.09787  0.89141  0.83940  1.0000
  O   O10       1.0  0.74530  0.95175  0.83885  1.0000
  O   O11       1.0  0.90160  0.10844  0.16044  1.0000
  O   O12       1.0  0.25427  0.04839  0.16127  1.0000
  O   O13       1.0  0.21070  0.72452  0.76063  1.0000
  O   O14       1.0  0.55154  0.03809  0.76079  1.0000
  O   O15       1.0  0.78897  0.27530  0.23939  1.0000
  O   O16       1.0  0.44807  0.96189  0.23918  1.0000
