data_image0
_chemical_formula_structural       Zn4H56C48N8O20
_chemical_formula_sum              "Zn4 H56 C48 N8 O20"
_cell_length_a       7.8005
_cell_length_b       10.0112
_cell_length_c       16.0161
_cell_angle_alpha    90.5275
_cell_angle_beta     90
_cell_angle_gamma    90

_space_group_name_H-M_alt    "P 1"
_space_group_IT_number       1

loop_
  _space_group_symop_operation_xyz
  'x, y, z'

loop_
  _atom_site_type_symbol
  _atom_site_label
  _atom_site_symmetry_multiplicity
  _atom_site_fract_x
  _atom_site_fract_y
  _atom_site_fract_z
  _atom_site_occupancy
  Zn  Zn1       1.0  0.99743  0.30594  0.76679  1.0000
  Zn  Zn2       1.0  0.49743  0.69406  0.73321  1.0000
  Zn  Zn3       1.0  0.00257  0.69406  0.23322  1.0000
  Zn  Zn4       1.0  0.50257  0.30594  0.26679  1.0000
  H   H1        1.0  0.62631  0.29342  0.01538  1.0000
  H   H2        1.0  0.12631  0.70658  0.48462  1.0000
  H   H3        1.0  0.37369  0.70658  0.98462  1.0000
  H   H4        1.0  0.87369  0.29342  0.51538  1.0000
  H   H5        1.0  0.10291  0.42364  0.99592  1.0000
  H   H6        1.0  0.60291  0.57636  0.50408  1.0000
  H   H7        1.0  0.89709  0.57636  0.00408  1.0000
  H   H8        1.0  0.39709  0.42364  0.49592  1.0000
  H   H9        1.0  0.41469  0.39251  0.77531  1.0000
  H   H10       1.0  0.91469  0.60749  0.72469  1.0000
  H   H11       1.0  0.58531  0.60750  0.22469  1.0000
  H   H12       1.0  0.08531  0.39251  0.27531  1.0000
  H   H13       1.0  0.82890  0.06550  0.76335  1.0000
  H   H14       1.0  0.32890  0.93450  0.73666  1.0000
  H   H15       1.0  0.17110  0.93449  0.23666  1.0000
  H   H16       1.0  0.67110  0.06550  0.26334  1.0000
  H   H17       1.0  0.79007  0.97544  0.85654  1.0000
  H   H18       1.0  0.29008  0.02455  0.64346  1.0000
  H   H19       1.0  0.20993  0.02455  0.14346  1.0000
  H   H20       1.0  0.70993  0.97544  0.35654  1.0000
  H   H21       1.0  0.89144  0.89515  0.77118  1.0000
  H   H22       1.0  0.39144  0.10485  0.72882  1.0000
  H   H23       1.0  0.10856  0.10485  0.22882  1.0000
  H   H24       1.0  0.60856  0.89515  0.27118  1.0000
  H   H25       1.0  0.95446  0.80688  0.89532  1.0000
  H   H26       1.0  0.45446  0.19312  0.60468  1.0000
  H   H27       1.0  0.04554  0.19312  0.10468  1.0000
  H   H28       1.0  0.54554  0.80688  0.39532  1.0000
  H   H29       1.0  0.09645  0.81689  0.98272  1.0000
  H   H30       1.0  0.59645  0.18311  0.51728  1.0000
  H   H31       1.0  0.90355  0.18311  0.01728  1.0000
  H   H32       1.0  0.40355  0.81689  0.48272  1.0000
  H   H33       1.0  0.16993  0.75343  0.88471  1.0000
  H   H34       1.0  0.66993  0.24657  0.61529  1.0000
  H   H35       1.0  0.83007  0.24657  0.11529  1.0000
  H   H36       1.0  0.33007  0.75343  0.38471  1.0000
  H   H37       1.0  0.33188  0.10629  0.90474  1.0000
  H   H38       1.0  0.83188  0.89371  0.59526  1.0000
  H   H39       1.0  0.66812  0.89371  0.09526  1.0000
  H   H40       1.0  0.16812  0.10629  0.40474  1.0000
  H   H41       1.0  0.40648  0.93598  0.90184  1.0000
  H   H42       1.0  0.90648  0.06401  0.59816  1.0000
  H   H43       1.0  0.59352  0.06401  0.09816  1.0000
  H   H44       1.0  0.09352  0.93598  0.40184  1.0000
  H   H45       1.0  0.30083  0.99924  0.99252  1.0000
  H   H46       1.0  0.80083  0.00076  0.50748  1.0000
  H   H47       1.0  0.69917  0.00076  0.00748  1.0000
  H   H48       1.0  0.19917  0.99924  0.49252  1.0000
  H   H49       1.0  0.01182  0.50843  0.86206  1.0000
  H   H50       1.0  0.51182  0.49157  0.63794  1.0000
  H   H51       1.0  0.98818  0.49157  0.13794  1.0000
  H   H52       1.0  0.48818  0.50843  0.36206  1.0000
  H   H53       1.0  0.15454  0.53349  0.78628  1.0000
  H   H54       1.0  0.65454  0.46651  0.71372  1.0000
  H   H55       1.0  0.84546  0.46651  0.21372  1.0000
  H   H56       1.0  0.34546  0.53349  0.28628  1.0000
  C   C1        1.0  0.54036  0.34029  0.89143  1.0000
  C   C2        1.0  0.04037  0.65971  0.60857  1.0000
  C   C3        1.0  0.45963  0.65971  0.10857  1.0000
  C   C4        1.0  0.95963  0.34029  0.39143  1.0000
  C   C5        1.0  0.51859  0.32477  0.97745  1.0000
  C   C6        1.0  0.01859  0.67523  0.52255  1.0000
  C   C7        1.0  0.48141  0.67523  0.02255  1.0000
  C   C8        1.0  0.98141  0.32477  0.47745  1.0000
  C   C9        1.0  0.36148  0.35371  0.01499  1.0000
  C   C10       1.0  0.86148  0.64629  0.48501  1.0000
  C   C11       1.0  0.63852  0.64629  0.98500  1.0000
  C   C12       1.0  0.13852  0.35371  0.51499  1.0000
  C   C13       1.0  0.22522  0.40067  0.96635  1.0000
  C   C14       1.0  0.72522  0.59933  0.53364  1.0000
  C   C15       1.0  0.77478  0.59933  0.03364  1.0000
  C   C16       1.0  0.27478  0.40067  0.46635  1.0000
  C   C17       1.0  0.24704  0.41773  0.88070  1.0000
  C   C18       1.0  0.74704  0.58227  0.61930  1.0000
  C   C19       1.0  0.75296  0.58227  0.11930  1.0000
  C   C20       1.0  0.25296  0.41773  0.38070  1.0000
  C   C21       1.0  0.40353  0.38498  0.84285  1.0000
  C   C22       1.0  0.90353  0.61502  0.65715  1.0000
  C   C23       1.0  0.59647  0.61502  0.15715  1.0000
  C   C24       1.0  0.09647  0.38498  0.34285  1.0000
  C   C25       1.0  0.71415  0.31458  0.85558  1.0000
  C   C26       1.0  0.21415  0.68542  0.64442  1.0000
  C   C27       1.0  0.28585  0.68542  0.14442  1.0000
  C   C28       1.0  0.78585  0.31458  0.35558  1.0000
  C   C29       1.0  0.34337  0.34238  0.10799  1.0000
  C   C30       1.0  0.84337  0.65762  0.39201  1.0000
  C   C31       1.0  0.65663  0.65762  0.89200  1.0000
  C   C32       1.0  0.15663  0.34238  0.60799  1.0000
  C   C33       1.0  0.05298  0.03716  0.83674  1.0000
  C   C34       1.0  0.55298  0.96284  0.66326  1.0000
  C   C35       1.0  0.94702  0.96284  0.16326  1.0000
  C   C36       1.0  0.44702  0.03716  0.33674  1.0000
  C   C37       1.0  0.88151  0.99036  0.80536  1.0000
  C   C38       1.0  0.38151  0.00964  0.69464  1.0000
  C   C39       1.0  0.11849  0.00964  0.19464  1.0000
  C   C40       1.0  0.61849  0.99036  0.30536  1.0000
  C   C41       1.0  0.08566  0.82772  0.91483  1.0000
  C   C42       1.0  0.58566  0.17228  0.58517  1.0000
  C   C43       1.0  0.91434  0.17228  0.08517  1.0000
  C   C44       1.0  0.41434  0.82772  0.41483  1.0000
  C   C45       1.0  0.30509  0.00405  0.92400  1.0000
  C   C46       1.0  0.80509  0.99595  0.57600  1.0000
  C   C47       1.0  0.69491  0.99595  0.07600  1.0000
  C   C48       1.0  0.19491  0.00405  0.42400  1.0000
  N   N1        1.0  0.10989  0.46392  0.82890  1.0000
  N   N2        1.0  0.60989  0.53608  0.67110  1.0000
  N   N3        1.0  0.89011  0.53608  0.17110  1.0000
  N   N4        1.0  0.39011  0.46392  0.32890  1.0000
  N   N5        1.0  0.13976  0.96123  0.89065  1.0000
  N   N6        1.0  0.63976  0.03877  0.60935  1.0000
  N   N7        1.0  0.86024  0.03877  0.10935  1.0000
  N   N8        1.0  0.36024  0.96123  0.39065  1.0000
  O   O1        1.0  0.73668  0.32623  0.77506  1.0000
  O   O2        1.0  0.23668  0.67377  0.72494  1.0000
  O   O3        1.0  0.26332  0.67377  0.22494  1.0000
  O   O4        1.0  0.76332  0.32623  0.27506  1.0000
  O   O5        1.0  0.83605  0.28409  0.90278  1.0000
  O   O6        1.0  0.33605  0.71591  0.59722  1.0000
  O   O7        1.0  0.16395  0.71591  0.09722  1.0000
  O   O8        1.0  0.66395  0.28409  0.40278  1.0000
  O   O9        1.0  0.20913  0.38112  0.14395  1.0000
  O   O10       1.0  0.70913  0.61888  0.35605  1.0000
  O   O11       1.0  0.79087  0.61888  0.85605  1.0000
  O   O12       1.0  0.29087  0.38112  0.64395  1.0000
  O   O13       1.0  0.47584  0.29213  0.14548  1.0000
  O   O14       1.0  0.97584  0.70788  0.35452  1.0000
  O   O15       1.0  0.52416  0.70787  0.85452  1.0000
  O   O16       1.0  0.02416  0.29213  0.64548  1.0000
  O   O17       1.0  0.11837  0.14591  0.81155  1.0000
  O   O18       1.0  0.61837  0.85409  0.68845  1.0000
  O   O19       1.0  0.88163  0.85409  0.18845  1.0000
  O   O20       1.0  0.38164  0.14591  0.31155  1.0000
