data_image0
_chemical_formula_structural       Zn4H52C52N4O20
_chemical_formula_sum              "Zn4 H52 C52 N4 O20"
_cell_length_a       7.39119
_cell_length_b       12.7972
_cell_length_c       13.9477
_cell_angle_alpha    90
_cell_angle_beta     90
_cell_angle_gamma    103.36

_space_group_name_H-M_alt    "P 1"
_space_group_IT_number       1

loop_
  _space_group_symop_operation_xyz
  'x, y, z'

loop_
  _atom_site_type_symbol
  _atom_site_label
  _atom_site_symmetry_multiplicity
  _atom_site_fract_x
  _atom_site_fract_y
  _atom_site_fract_z
  _atom_site_occupancy
  Zn  Zn1       1.0  0.50442  0.14456  0.48531  1.0000
  Zn  Zn2       1.0  0.49558  0.35544  0.98531  1.0000
  Zn  Zn3       1.0  0.49558  0.85544  0.51468  1.0000
  Zn  Zn4       1.0  0.50442  0.64456  0.01469  1.0000
  H   H1        1.0  0.72354  0.20302  0.70404  1.0000
  H   H2        1.0  0.27646  0.29698  0.20404  1.0000
  H   H3        1.0  0.27646  0.79698  0.29596  1.0000
  H   H4        1.0  0.72354  0.70302  0.79596  1.0000
  H   H5        1.0  0.98134  0.30504  0.80701  1.0000
  H   H6        1.0  0.01865  0.19496  0.30701  1.0000
  H   H7        1.0  0.01866  0.69496  0.19299  1.0000
  H   H8        1.0  0.98134  0.80504  0.69299  1.0000
  H   H9        1.0  0.33471  0.10209  0.71128  1.0000
  H   H10       1.0  0.66528  0.39791  0.21128  1.0000
  H   H11       1.0  0.66528  0.89791  0.28872  1.0000
  H   H12       1.0  0.33471  0.60209  0.78872  1.0000
  H   H13       1.0  0.07510  0.99530  0.61237  1.0000
  H   H14       1.0  0.92490  0.50470  0.11237  1.0000
  H   H15       1.0  0.92490  0.00470  0.38763  1.0000
  H   H16       1.0  0.07510  0.49530  0.88763  1.0000
  H   H17       1.0  0.11880  0.21796  0.51767  1.0000
  H   H18       1.0  0.88120  0.28203  0.01767  1.0000
  H   H19       1.0  0.88120  0.78204  0.48233  1.0000
  H   H20       1.0  0.11879  0.71796  0.98233  1.0000
  H   H21       1.0  0.23928  0.28512  0.41870  1.0000
  H   H22       1.0  0.76072  0.21488  0.91870  1.0000
  H   H23       1.0  0.76072  0.71488  0.58130  1.0000
  H   H24       1.0  0.23928  0.78512  0.08130  1.0000
  H   H25       1.0  0.95266  0.35604  0.52720  1.0000
  H   H26       1.0  0.04734  0.14396  0.02720  1.0000
  H   H27       1.0  0.04734  0.64396  0.47280  1.0000
  H   H28       1.0  0.95266  0.85604  0.97280  1.0000
  H   H29       1.0  0.10058  0.43357  0.44084  1.0000
  H   H30       1.0  0.89942  0.06643  0.94084  1.0000
  H   H31       1.0  0.89942  0.56643  0.55916  1.0000
  H   H32       1.0  0.10058  0.93357  0.05916  1.0000
  H   H33       1.0  0.24740  0.54439  0.56834  1.0000
  H   H34       1.0  0.75261  0.95561  0.06834  1.0000
  H   H35       1.0  0.75260  0.45561  0.43166  1.0000
  H   H36       1.0  0.24740  0.04439  0.93166  1.0000
  H   H37       1.0  0.12846  0.45237  0.65524  1.0000
  H   H38       1.0  0.87154  0.04763  0.15525  1.0000
  H   H39       1.0  0.87154  0.54763  0.34475  1.0000
  H   H40       1.0  0.12846  0.95237  0.84475  1.0000
  H   H41       1.0  0.62943  0.42484  0.66681  1.0000
  H   H42       1.0  0.37057  0.07516  0.16681  1.0000
  H   H43       1.0  0.37057  0.57517  0.33319  1.0000
  H   H44       1.0  0.62943  0.92483  0.83319  1.0000
  H   H45       1.0  0.45669  0.45602  0.74411  1.0000
  H   H46       1.0  0.54331  0.04398  0.24411  1.0000
  H   H47       1.0  0.54331  0.54398  0.25588  1.0000
  H   H48       1.0  0.45669  0.95602  0.75589  1.0000
  H   H49       1.0  0.56375  0.55195  0.65702  1.0000
  H   H50       1.0  0.43625  0.94805  0.15702  1.0000
  H   H51       1.0  0.43625  0.44805  0.34298  1.0000
  H   H52       1.0  0.56375  0.05195  0.84298  1.0000
  C   C1        1.0  0.88302  0.09205  0.65323  1.0000
  C   C2        1.0  0.11697  0.40795  0.15323  1.0000
  C   C3        1.0  0.11697  0.90795  0.34677  1.0000
  C   C4        1.0  0.88303  0.59205  0.84677  1.0000
  C   C5        1.0  0.85777  0.18130  0.70579  1.0000
  C   C6        1.0  0.14223  0.31870  0.20578  1.0000
  C   C7        1.0  0.14223  0.81870  0.29422  1.0000
  C   C8        1.0  0.85777  0.68130  0.79422  1.0000
  C   C9        1.0  0.00131  0.23818  0.76305  1.0000
  C   C10       1.0  0.99869  0.26182  0.26305  1.0000
  C   C11       1.0  0.99869  0.76182  0.23695  1.0000
  C   C12       1.0  0.00131  0.73818  0.73695  1.0000
  C   C13       1.0  0.17157  0.20754  0.76701  1.0000
  C   C14       1.0  0.82843  0.29246  0.26701  1.0000
  C   C15       1.0  0.82843  0.79246  0.23299  1.0000
  C   C16       1.0  0.17157  0.70754  0.73299  1.0000
  C   C17       1.0  0.19947  0.12219  0.71018  1.0000
  C   C18       1.0  0.80052  0.37781  0.21018  1.0000
  C   C19       1.0  0.80052  0.87781  0.28982  1.0000
  C   C20       1.0  0.19948  0.62219  0.78982  1.0000
  C   C21       1.0  0.05530  0.06344  0.65457  1.0000
  C   C22       1.0  0.94470  0.43657  0.15457  1.0000
  C   C23       1.0  0.94470  0.93657  0.34544  1.0000
  C   C24       1.0  0.05530  0.56344  0.84544  1.0000
  C   C25       1.0  0.72376  0.02666  0.59878  1.0000
  C   C26       1.0  0.27624  0.47334  0.09878  1.0000
  C   C27       1.0  0.27624  0.97334  0.40122  1.0000
  C   C28       1.0  0.72376  0.52666  0.90122  1.0000
  C   C29       1.0  0.32053  0.25949  0.83599  1.0000
  C   C30       1.0  0.67947  0.24052  0.33599  1.0000
  C   C31       1.0  0.67947  0.74052  0.16401  1.0000
  C   C32       1.0  0.32053  0.75949  0.66401  1.0000
  C   C33       1.0  0.37245  0.32780  0.55305  1.0000
  C   C34       1.0  0.62755  0.17220  0.05305  1.0000
  C   C35       1.0  0.62756  0.67220  0.44695  1.0000
  C   C36       1.0  0.37244  0.82780  0.94695  1.0000
  C   C37       1.0  0.19968  0.29643  0.49309  1.0000
  C   C38       1.0  0.80033  0.20357  0.99309  1.0000
  C   C39       1.0  0.80032  0.70357  0.50691  1.0000
  C   C40       1.0  0.19967  0.79643  0.00691  1.0000
  C   C41       1.0  0.09850  0.38747  0.50725  1.0000
  C   C42       1.0  0.90150  0.11253  0.00726  1.0000
  C   C43       1.0  0.90150  0.61253  0.49274  1.0000
  C   C44       1.0  0.09850  0.88747  0.99274  1.0000
  C   C45       1.0  0.20669  0.45886  0.58748  1.0000
  C   C46       1.0  0.79331  0.04114  0.08748  1.0000
  C   C47       1.0  0.79331  0.54114  0.41252  1.0000
  C   C48       1.0  0.20669  0.95886  0.91252  1.0000
  C   C49       1.0  0.51466  0.46562  0.67118  1.0000
  C   C50       1.0  0.48534  0.03438  0.17118  1.0000
  C   C51       1.0  0.48534  0.53438  0.32882  1.0000
  C   C52       1.0  0.51467  0.96562  0.82882  1.0000
  N   N1        1.0  0.37370  0.41781  0.60180  1.0000
  N   N2        1.0  0.62630  0.08219  0.10180  1.0000
  N   N3        1.0  0.62630  0.58219  0.39820  1.0000
  N   N4        1.0  0.37370  0.91781  0.89820  1.0000
  O   O1        1.0  0.57184  0.05836  0.59478  1.0000
  O   O2        1.0  0.42816  0.44164  0.09478  1.0000
  O   O3        1.0  0.42816  0.94164  0.40522  1.0000
  O   O4        1.0  0.57184  0.55836  0.90522  1.0000
  O   O5        1.0  0.74170  0.93841  0.56120  1.0000
  O   O6        1.0  0.25830  0.56160  0.06120  1.0000
  O   O7        1.0  0.25830  0.06160  0.43880  1.0000
  O   O8        1.0  0.74170  0.43840  0.93880  1.0000
  O   O9        1.0  0.27431  0.32266  0.89999  1.0000
  O   O10       1.0  0.72569  0.17734  0.39999  1.0000
  O   O11       1.0  0.72570  0.67734  0.10001  1.0000
  O   O12       1.0  0.27431  0.82266  0.60001  1.0000
  O   O13       1.0  0.47842  0.23864  0.83303  1.0000
  O   O14       1.0  0.52158  0.26136  0.33303  1.0000
  O   O15       1.0  0.52158  0.76136  0.16697  1.0000
  O   O16       1.0  0.47842  0.73864  0.66697  1.0000
  O   O17       1.0  0.50166  0.27807  0.55920  1.0000
  O   O18       1.0  0.49834  0.22193  0.05920  1.0000
  O   O19       1.0  0.49834  0.72193  0.44080  1.0000
  O   O20       1.0  0.50167  0.77807  0.94080  1.0000
