data_image0
_chemical_formula_structural       H14Pb2C16S2O12F6
_chemical_formula_sum              "H14 Pb2 C16 S2 O12 F6"
_cell_length_a       7.68778
_cell_length_b       8.13511
_cell_length_c       10.0129
_cell_angle_alpha    85.1499
_cell_angle_beta     77.6376
_cell_angle_gamma    87.5942

_space_group_name_H-M_alt    "P 1"
_space_group_IT_number       1

loop_
  _space_group_symop_operation_xyz
  'x, y, z'

loop_
  _atom_site_type_symbol
  _atom_site_label
  _atom_site_symmetry_multiplicity
  _atom_site_fract_x
  _atom_site_fract_y
  _atom_site_fract_z
  _atom_site_occupancy
  H   H1        1.0  0.86907  0.77752  0.75217  1.0000
  H   H2        1.0  0.13095  0.22252  0.24783  1.0000
  H   H3        1.0  0.45276  0.51224  0.87524  1.0000
  H   H4        1.0  0.54724  0.48776  0.12474  1.0000
  H   H5        1.0  0.32112  0.64326  0.07305  1.0000
  H   H6        1.0  0.67890  0.35675  0.92694  1.0000
  H   H7        1.0  0.05612  0.80363  0.11580  1.0000
  H   H8        1.0  0.94390  0.19637  0.88420  1.0000
  H   H9        1.0  0.86262  0.86950  0.96560  1.0000
  H   H10       1.0  0.13739  0.13051  0.03442  1.0000
  H   H11       1.0  0.97633  0.21708  0.64704  1.0000
  H   H12       1.0  0.02366  0.78291  0.35298  1.0000
  H   H13       1.0  0.13259  0.09568  0.58516  1.0000
  H   H14       1.0  0.86739  0.90430  0.41486  1.0000
  Pb  Pb1       1.0  0.27016  0.40575  0.46448  1.0000
  Pb  Pb2       1.0  0.72988  0.59418  0.53553  1.0000
  C   C1        1.0  0.09642  0.62185  0.72097  1.0000
  C   C2        1.0  0.90357  0.37816  0.27903  1.0000
  C   C3        1.0  0.26940  0.56163  0.74983  1.0000
  C   C4        1.0  0.73060  0.43837  0.25017  1.0000
  C   C5        1.0  0.97752  0.73041  0.80068  1.0000
  C   C6        1.0  0.02248  0.26961  0.19931  1.0000
  C   C7        1.0  0.32555  0.57664  0.87361  1.0000
  C   C8        1.0  0.67446  0.42336  0.12638  1.0000
  C   C9        1.0  0.24753  0.65526  0.99057  1.0000
  C   C10       1.0  0.75248  0.34475  0.00943  1.0000
  C   C11       1.0  0.09109  0.75092  0.01675  1.0000
  C   C12       1.0  0.90891  0.24907  0.98325  1.0000
  C   C13       1.0  0.50052  0.05470  0.77973  1.0000
  C   C14       1.0  0.49947  0.94531  0.22027  1.0000
  C   C15       1.0  0.97469  0.78679  0.92843  1.0000
  C   C16       1.0  0.02532  0.21321  0.07157  1.0000
  S   S1        1.0  0.65659  0.13236  0.61893  1.0000
  S   S2        1.0  0.34340  0.86764  0.38107  1.0000
  O   O1        1.0  0.37577  0.48562  0.65453  1.0000
  O   O2        1.0  0.62423  0.51438  0.34546  1.0000
  O   O3        1.0  0.05715  0.57657  0.60958  1.0000
  O   O4        1.0  0.94285  0.42343  0.39041  1.0000
  O   O5        1.0  0.54523  0.18731  0.52307  1.0000
  O   O6        1.0  0.45476  0.81269  0.47693  1.0000
  O   O7        1.0  0.74779  0.26548  0.66642  1.0000
  O   O8        1.0  0.25219  0.73452  0.33358  1.0000
  O   O9        1.0  0.77338  0.98934  0.58263  1.0000
  O   O10       1.0  0.22661  0.01067  0.41737  1.0000
  O   O11       1.0  0.10582  0.19350  0.63847  1.0000
  O   O12       1.0  0.89417  0.80650  0.36153  1.0000
  F   F1        1.0  0.41384  0.18095  0.84805  1.0000
  F   F2        1.0  0.58616  0.81907  0.15195  1.0000
  F   F3        1.0  0.59448  0.96678  0.86379  1.0000
  F   F4        1.0  0.40552  0.03321  0.13621  1.0000
  F   F5        1.0  0.37914  0.95533  0.75194  1.0000
  F   F6        1.0  0.62083  0.04468  0.24808  1.0000
