data_image0
_chemical_formula_structural       Cu4H32C24S4N8O16
_chemical_formula_sum              "Cu4 H32 C24 S4 N8 O16"
_cell_length_a       7.25175
_cell_length_b       7.25111
_cell_length_c       19.4833
_cell_angle_alpha    96.481
_cell_angle_beta     96.4796
_cell_angle_gamma    117.529

_space_group_name_H-M_alt    "P 1"
_space_group_IT_number       1

loop_
  _space_group_symop_operation_xyz
  'x, y, z'

loop_
  _atom_site_type_symbol
  _atom_site_label
  _atom_site_symmetry_multiplicity
  _atom_site_fract_x
  _atom_site_fract_y
  _atom_site_fract_z
  _atom_site_occupancy
  Cu  Cu1       1.0  0.86638  0.63530  0.96666  1.0000
  Cu  Cu2       1.0  0.36470  0.13363  0.53335  1.0000
  Cu  Cu3       1.0  0.13360  0.36469  0.03333  1.0000
  Cu  Cu4       1.0  0.63532  0.86638  0.46666  1.0000
  H   H1        1.0  0.47675  0.34148  0.92872  1.0000
  H   H2        1.0  0.65852  0.52329  0.57127  1.0000
  H   H3        1.0  0.52322  0.65849  0.07128  1.0000
  H   H4        1.0  0.34150  0.47671  0.42873  1.0000
  H   H5        1.0  0.56877  0.31586  0.00625  1.0000
  H   H6        1.0  0.68412  0.43123  0.49374  1.0000
  H   H7        1.0  0.43120  0.68412  0.99375  1.0000
  H   H8        1.0  0.31589  0.56877  0.50626  1.0000
  H   H9        1.0  0.65098  0.25470  0.93562  1.0000
  H   H10       1.0  0.74527  0.34904  0.56438  1.0000
  H   H11       1.0  0.34900  0.74530  0.06438  1.0000
  H   H12       1.0  0.25475  0.65097  0.43562  1.0000
  H   H13       1.0  0.22001  0.80909  0.93198  1.0000
  H   H14       1.0  0.19081  0.77991  0.56800  1.0000
  H   H15       1.0  0.77996  0.19089  0.06801  1.0000
  H   H16       1.0  0.80920  0.22009  0.43200  1.0000
  H   H17       1.0  0.24347  0.95761  0.00631  1.0000
  H   H18       1.0  0.04240  0.75656  0.49368  1.0000
  H   H19       1.0  0.75652  0.04239  0.99369  1.0000
  H   H20       1.0  0.95761  0.24345  0.50632  1.0000
  H   H21       1.0  0.12503  0.97711  0.93267  1.0000
  H   H22       1.0  0.02285  0.87496  0.56731  1.0000
  H   H23       1.0  0.87494  0.02287  0.06732  1.0000
  H   H24       1.0  0.97715  0.12504  0.43269  1.0000
  H   H25       1.0  0.91231  0.55458  0.81045  1.0000
  H   H26       1.0  0.44535  0.08769  0.68958  1.0000
  H   H27       1.0  0.08769  0.44544  0.18955  1.0000
  H   H28       1.0  0.55466  0.91233  0.31042  1.0000
  H   H29       1.0  0.98598  0.58679  0.68112  1.0000
  H   H30       1.0  0.41323  0.01398  0.81891  1.0000
  H   H31       1.0  0.01404  0.41322  0.31888  1.0000
  H   H32       1.0  0.58680  0.98605  0.18109  1.0000
  C   C1        1.0  0.08427  0.37438  0.81577  1.0000
  C   C2        1.0  0.62564  0.91576  0.68424  1.0000
  C   C3        1.0  0.91572  0.62562  0.18422  1.0000
  C   C4        1.0  0.37438  0.08425  0.31576  1.0000
  C   C5        1.0  0.99873  0.48739  0.78434  1.0000
  C   C6        1.0  0.51257  0.00127  0.71569  1.0000
  C   C7        1.0  0.00128  0.51262  0.21565  1.0000
  C   C8        1.0  0.48743  0.99874  0.28432  1.0000
  C   C9        1.0  0.03661  0.50311  0.71518  1.0000
  C   C10       1.0  0.49688  0.96338  0.78485  1.0000
  C   C11       1.0  0.96341  0.49691  0.28482  1.0000
  C   C12       1.0  0.50313  0.03664  0.21516  1.0000
  C   C13       1.0  0.14875  0.40070  0.69481  1.0000
  C   C14       1.0  0.59932  0.85126  0.80520  1.0000
  C   C15       1.0  0.85125  0.59930  0.30519  1.0000
  C   C16       1.0  0.40068  0.14876  0.19480  1.0000
  C   C17       1.0  0.09452  0.32480  0.88692  1.0000
  C   C18       1.0  0.67524  0.90550  0.61311  1.0000
  C   C19       1.0  0.90547  0.67519  0.11308  1.0000
  C   C20       1.0  0.32478  0.09448  0.38691  1.0000
  C   C21       1.0  0.21291  0.37671  0.62625  1.0000
  C   C22       1.0  0.62335  0.78705  0.87376  1.0000
  C   C23       1.0  0.78710  0.62330  0.37374  1.0000
  C   C24       1.0  0.37665  0.21293  0.12625  1.0000
  S   S1        1.0  0.20791  0.28704  0.76034  1.0000
  S   S2        1.0  0.71301  0.79216  0.73968  1.0000
  S   S3        1.0  0.79209  0.71296  0.23966  1.0000
  S   S4        1.0  0.28699  0.20785  0.26033  1.0000
  N   N1        1.0  0.61200  0.36155  0.95965  1.0000
  N   N2        1.0  0.63843  0.38800  0.54034  1.0000
  N   N3        1.0  0.38797  0.63844  0.04035  1.0000
  N   N4        1.0  0.36159  0.61200  0.45965  1.0000
  N   N5        1.0  0.14124  0.86930  0.95968  1.0000
  N   N6        1.0  0.13068  0.85875  0.54031  1.0000
  N   N7        1.0  0.85874  0.13069  0.04032  1.0000
  N   N8        1.0  0.86933  0.14125  0.45969  1.0000
  O   O1        1.0  0.01574  0.39366  0.93318  1.0000
  O   O2        1.0  0.60633  0.98421  0.56684  1.0000
  O   O3        1.0  0.98422  0.60632  0.06681  1.0000
  O   O4        1.0  0.39370  0.01578  0.43316  1.0000
  O   O5        1.0  0.18817  0.21902  0.90036  1.0000
  O   O6        1.0  0.78106  0.81191  0.59968  1.0000
  O   O7        1.0  0.81182  0.78098  0.09964  1.0000
  O   O8        1.0  0.21895  0.18807  0.40034  1.0000
  O   O9        1.0  0.16845  0.46284  0.57857  1.0000
  O   O10       1.0  0.53719  0.83151  0.92144  1.0000
  O   O11       1.0  0.83155  0.53716  0.42142  1.0000
  O   O12       1.0  0.46280  0.16846  0.07856  1.0000
  O   O13       1.0  0.30663  0.26328  0.62094  1.0000
  O   O14       1.0  0.73679  0.69337  0.87908  1.0000
  O   O15       1.0  0.69338  0.73673  0.37906  1.0000
  O   O16       1.0  0.26319  0.30662  0.12092  1.0000
