data_image0
_chemical_formula_structural       Zn4H52C60N4O20
_chemical_formula_sum              "Zn4 H52 C60 N4 O20"
_cell_length_a       7.11807
_cell_length_b       13.5716
_cell_length_c       14.0979
_cell_angle_alpha    90
_cell_angle_beta     90
_cell_angle_gamma    95.3216

_space_group_name_H-M_alt    "P 1"
_space_group_IT_number       1

loop_
  _space_group_symop_operation_xyz
  'x, y, z'

loop_
  _atom_site_type_symbol
  _atom_site_label
  _atom_site_symmetry_multiplicity
  _atom_site_fract_x
  _atom_site_fract_y
  _atom_site_fract_z
  _atom_site_occupancy
  Zn  Zn1       1.0  0.92286  0.45099  0.24591  1.0000
  Zn  Zn2       1.0  0.42285  0.95099  0.75409  1.0000
  Zn  Zn3       1.0  0.41122  0.33318  0.26494  1.0000
  Zn  Zn4       1.0  0.91122  0.83318  0.73506  1.0000
  H   H1        1.0  0.67482  0.69991  0.16098  1.0000
  H   H2        1.0  0.17482  0.19991  0.83902  1.0000
  H   H3        1.0  0.63769  0.83308  0.04204  1.0000
  H   H4        1.0  0.13770  0.33307  0.95796  1.0000
  H   H5        1.0  0.48172  0.66101  0.75255  1.0000
  H   H6        1.0  0.98174  0.16101  0.24745  1.0000
  H   H7        1.0  0.41464  0.48610  0.70671  1.0000
  H   H8        1.0  0.91464  0.98610  0.29330  1.0000
  H   H9        1.0  0.42692  0.35248  0.82878  1.0000
  H   H10       1.0  0.92691  0.85248  0.17122  1.0000
  H   H11       1.0  0.49658  0.39642  0.99594  1.0000
  H   H12       1.0  0.99657  0.89642  0.00407  1.0000
  H   H13       1.0  0.70763  0.14811  0.36410  1.0000
  H   H14       1.0  0.20763  0.64811  0.63590  1.0000
  H   H15       1.0  0.71180  0.01381  0.48605  1.0000
  H   H16       1.0  0.21179  0.51381  0.51396  1.0000
  H   H17       1.0  0.83218  0.18494  0.78001  1.0000
  H   H18       1.0  0.33217  0.68494  0.21999  1.0000
  H   H19       1.0  0.89154  0.35959  0.82757  1.0000
  H   H20       1.0  0.39153  0.85959  0.17243  1.0000
  H   H21       1.0  0.90174  0.49387  0.70457  1.0000
  H   H22       1.0  0.40174  0.99387  0.29543  1.0000
  H   H23       1.0  0.86087  0.44973  0.53572  1.0000
  H   H24       1.0  0.36089  0.94973  0.46429  1.0000
  H   H25       1.0  0.58071  0.28470  0.07467  1.0000
  H   H26       1.0  0.08073  0.78470  0.92532  1.0000
  H   H27       1.0  0.37693  0.03678  0.13380  1.0000
  H   H28       1.0  0.87693  0.53678  0.86620  1.0000
  H   H29       1.0  0.61007  0.00342  0.11146  1.0000
  H   H30       1.0  0.11006  0.50342  0.88855  1.0000
  H   H31       1.0  0.43591  0.98940  0.01970  1.0000
  H   H32       1.0  0.93590  0.48940  0.98030  1.0000
  H   H33       1.0  0.66935  0.22651  0.94182  1.0000
  H   H34       1.0  0.16934  0.72651  0.05818  1.0000
  H   H35       1.0  0.50252  0.12930  0.89969  1.0000
  H   H36       1.0  0.00250  0.62931  0.10031  1.0000
  H   H37       1.0  0.72877  0.10162  0.93961  1.0000
  H   H38       1.0  0.22876  0.60162  0.06040  1.0000
  H   H39       1.0  0.39062  0.35797  0.47943  1.0000
  H   H40       1.0  0.89062  0.85796  0.52057  1.0000
  H   H41       1.0  0.19772  0.10287  0.46596  1.0000
  H   H42       1.0  0.69771  0.60286  0.53404  1.0000
  H   H43       1.0  0.12717  0.10270  0.58800  1.0000
  H   H44       1.0  0.62716  0.60270  0.41200  1.0000
  H   H45       1.0  0.35920  0.07601  0.55828  1.0000
  H   H46       1.0  0.85919  0.57600  0.44171  1.0000
  H   H47       1.0  0.42200  0.34017  0.63109  1.0000
  H   H48       1.0  0.92200  0.84017  0.36891  1.0000
  H   H49       1.0  0.42400  0.21919  0.67998  1.0000
  H   H50       1.0  0.92400  0.71919  0.32002  1.0000
  H   H51       1.0  0.20712  0.27594  0.67418  1.0000
  H   H52       1.0  0.70711  0.77594  0.32582  1.0000
  C   C1        1.0  0.58583  0.58166  0.06711  1.0000
  C   C2        1.0  0.08583  0.08166  0.93289  1.0000
  C   C3        1.0  0.62930  0.68084  0.08906  1.0000
  C   C4        1.0  0.12930  0.18084  0.91094  1.0000
  C   C5        1.0  0.61060  0.75555  0.02193  1.0000
  C   C6        1.0  0.11061  0.25555  0.97806  1.0000
  C   C7        1.0  0.56157  0.73160  0.92928  1.0000
  C   C8        1.0  0.06158  0.23160  0.07071  1.0000
  C   C9        1.0  0.52655  0.63039  0.90127  1.0000
  C   C10       1.0  0.02655  0.13039  0.09873  1.0000
  C   C11       1.0  0.48245  0.60309  0.80586  1.0000
  C   C12       1.0  0.98246  0.10309  0.19414  1.0000
  C   C13       1.0  0.44692  0.50518  0.78040  1.0000
  C   C14       1.0  0.94692  0.00519  0.21960  1.0000
  C   C15       1.0  0.45350  0.43000  0.84926  1.0000
  C   C16       1.0  0.95350  0.93000  0.15074  1.0000
  C   C17       1.0  0.49417  0.45392  0.94256  1.0000
  C   C18       1.0  0.99416  0.95392  0.05744  1.0000
  C   C19       1.0  0.53261  0.55399  0.97197  1.0000
  C   C20       1.0  0.03261  0.05399  0.02803  1.0000
  C   C21       1.0  0.60106  0.50906  0.14701  1.0000
  C   C22       1.0  0.10105  0.00906  0.85299  1.0000
  C   C23       1.0  0.53983  0.81328  0.86038  1.0000
  C   C24       1.0  0.03984  0.31328  0.13962  1.0000
  C   C25       1.0  0.78479  0.26480  0.46217  1.0000
  C   C26       1.0  0.28479  0.76479  0.53783  1.0000
  C   C27       1.0  0.74103  0.16624  0.43793  1.0000
  C   C28       1.0  0.24102  0.66623  0.56207  1.0000
  C   C29       1.0  0.74206  0.09116  0.50649  1.0000
  C   C30       1.0  0.24205  0.59115  0.49352  1.0000
  C   C31       1.0  0.77713  0.11420  0.60095  1.0000
  C   C32       1.0  0.27712  0.61419  0.39906  1.0000
  C   C33       1.0  0.81120  0.21527  0.62992  1.0000
  C   C34       1.0  0.31119  0.71526  0.37008  1.0000
  C   C35       1.0  0.83979  0.24284  0.72653  1.0000
  C   C36       1.0  0.33978  0.74283  0.27347  1.0000
  C   C37       1.0  0.87220  0.34074  0.75287  1.0000
  C   C38       1.0  0.37220  0.84074  0.24713  1.0000
  C   C39       1.0  0.87873  0.41626  0.68368  1.0000
  C   C40       1.0  0.37874  0.91626  0.31633  1.0000
  C   C41       1.0  0.85414  0.39201  0.58920  1.0000
  C   C42       1.0  0.35415  0.89200  0.41080  1.0000
  C   C43       1.0  0.81980  0.29191  0.55916  1.0000
  C   C44       1.0  0.31980  0.79191  0.44084  1.0000
  C   C45       1.0  0.80213  0.33776  0.38295  1.0000
  C   C46       1.0  0.30213  0.83776  0.61705  1.0000
  C   C47       1.0  0.77202  0.03128  0.67196  1.0000
  C   C48       1.0  0.27201  0.53128  0.32804  1.0000
  C   C49       1.0  0.52640  0.21280  0.10474  1.0000
  C   C50       1.0  0.02641  0.71281  0.89526  1.0000
  C   C51       1.0  0.48755  0.03512  0.08006  1.0000
  C   C52       1.0  0.98754  0.53511  0.91994  1.0000
  C   C53       1.0  0.61456  0.14901  0.95180  1.0000
  C   C54       1.0  0.11455  0.64901  0.04820  1.0000
  C   C55       1.0  0.34113  0.27982  0.46588  1.0000
  C   C56       1.0  0.84113  0.77982  0.53411  1.0000
  C   C57       1.0  0.24402  0.12046  0.53853  1.0000
  C   C58       1.0  0.74401  0.62046  0.46146  1.0000
  C   C59       1.0  0.34129  0.26769  0.63768  1.0000
  C   C60       1.0  0.84129  0.76769  0.36232  1.0000
  N   N1        1.0  0.54202  0.13553  0.04779  1.0000
  N   N2        1.0  0.04202  0.63554  0.95221  1.0000
  N   N3        1.0  0.30760  0.22524  0.54388  1.0000
  N   N4        1.0  0.80759  0.72524  0.45612  1.0000
  O   O1        1.0  0.72480  0.53709  0.21027  1.0000
  O   O2        1.0  0.22479  0.03710  0.78972  1.0000
  O   O3        1.0  0.49339  0.42937  0.14840  1.0000
  O   O4        1.0  0.99338  0.92937  0.85160  1.0000
  O   O5        1.0  0.62281  0.81648  0.78047  1.0000
  O   O6        1.0  0.12283  0.31648  0.21952  1.0000
  O   O7        1.0  0.42728  0.87767  0.88313  1.0000
  O   O8        1.0  0.92728  0.37766  0.11687  1.0000
  O   O9        1.0  0.92805  0.41132  0.38733  1.0000
  O   O10       1.0  0.42804  0.91132  0.61268  1.0000
  O   O11       1.0  0.70285  0.32263  0.30803  1.0000
  O   O12       1.0  0.20284  0.82263  0.69198  1.0000
  O   O13       1.0  0.87335  0.96158  0.65464  1.0000
  O   O14       1.0  0.37336  0.46158  0.34536  1.0000
  O   O15       1.0  0.66449  0.03878  0.74392  1.0000
  O   O16       1.0  0.16448  0.53878  0.25608  1.0000
  O   O17       1.0  0.45719  0.20613  0.18679  1.0000
  O   O18       1.0  0.95719  0.70613  0.81320  1.0000
  O   O19       1.0  0.31932  0.24701  0.38289  1.0000
  O   O20       1.0  0.81931  0.74701  0.61711  1.0000
