data_image0
_chemical_formula_structural       Ag16H48C24N16Cl16
_chemical_formula_sum              "Ag16 H48 C24 N16 Cl16"
_cell_length_a       8.50334
_cell_length_b       9.41585
_cell_length_c       16.403
_cell_angle_alpha    90
_cell_angle_beta     90
_cell_angle_gamma    90

_space_group_name_H-M_alt    "P 1"
_space_group_IT_number       1

loop_
  _space_group_symop_operation_xyz
  'x, y, z'

loop_
  _atom_site_type_symbol
  _atom_site_label
  _atom_site_symmetry_multiplicity
  _atom_site_fract_x
  _atom_site_fract_y
  _atom_site_fract_z
  _atom_site_occupancy
  Ag  Ag1       1.0  0.14588  0.25000  0.36059  1.0000
  Ag  Ag2       1.0  0.35413  0.75000  0.86059  1.0000
  Ag  Ag3       1.0  0.85414  0.75000  0.63940  1.0000
  Ag  Ag4       1.0  0.64588  0.25000  0.13941  1.0000
  Ag  Ag5       1.0  0.24248  0.75000  0.41752  1.0000
  Ag  Ag6       1.0  0.25752  0.25000  0.91752  1.0000
  Ag  Ag7       1.0  0.75752  0.25000  0.58248  1.0000
  Ag  Ag8       1.0  0.74248  0.75000  0.08248  1.0000
  Ag  Ag9       1.0  0.34222  0.42016  0.20424  1.0000
  Ag  Ag10      1.0  0.15778  0.92017  0.70424  1.0000
  Ag  Ag11      1.0  0.34222  0.07984  0.20424  1.0000
  Ag  Ag12      1.0  0.15778  0.57984  0.70424  1.0000
  Ag  Ag13      1.0  0.65778  0.57983  0.79576  1.0000
  Ag  Ag14      1.0  0.84222  0.07984  0.29576  1.0000
  Ag  Ag15      1.0  0.65778  0.92016  0.79576  1.0000
  Ag  Ag16      1.0  0.84222  0.42016  0.29576  1.0000
  H   H1        1.0  0.22696  0.47310  0.51305  1.0000
  H   H2        1.0  0.27303  0.97310  0.01305  1.0000
  H   H3        1.0  0.22696  0.02690  0.51305  1.0000
  H   H4        1.0  0.27303  0.52690  0.01305  1.0000
  H   H5        1.0  0.77304  0.52690  0.48695  1.0000
  H   H6        1.0  0.72697  0.02691  0.98695  1.0000
  H   H7        1.0  0.77304  0.97310  0.48695  1.0000
  H   H8        1.0  0.72697  0.47309  0.98695  1.0000
  H   H9        1.0  0.05630  0.37786  0.54568  1.0000
  H   H10       1.0  0.44370  0.87786  0.04567  1.0000
  H   H11       1.0  0.05630  0.12214  0.54568  1.0000
  H   H12       1.0  0.44370  0.62213  0.04567  1.0000
  H   H13       1.0  0.94371  0.62214  0.45432  1.0000
  H   H14       1.0  0.55630  0.12213  0.95433  1.0000
  H   H15       1.0  0.94371  0.87786  0.45432  1.0000
  H   H16       1.0  0.55630  0.37787  0.95433  1.0000
  H   H17       1.0  0.46131  0.37814  0.69162  1.0000
  H   H18       1.0  0.03869  0.87814  0.19162  1.0000
  H   H19       1.0  0.46131  0.12186  0.69162  1.0000
  H   H20       1.0  0.03869  0.62186  0.19162  1.0000
  H   H21       1.0  0.53869  0.62186  0.30838  1.0000
  H   H22       1.0  0.96130  0.12186  0.80838  1.0000
  H   H23       1.0  0.53869  0.87814  0.30838  1.0000
  H   H24       1.0  0.96130  0.37814  0.80838  1.0000
  H   H25       1.0  0.46071  0.47308  0.59766  1.0000
  H   H26       1.0  0.03929  0.97309  0.09766  1.0000
  H   H27       1.0  0.46071  0.02692  0.59766  1.0000
  H   H28       1.0  0.03929  0.52692  0.09766  1.0000
  H   H29       1.0  0.53929  0.52692  0.40234  1.0000
  H   H30       1.0  0.96071  0.02692  0.90234  1.0000
  H   H31       1.0  0.53929  0.97308  0.40234  1.0000
  H   H32       1.0  0.96071  0.47309  0.90234  1.0000
  H   H33       1.0  0.45742  0.15580  0.46949  1.0000
  H   H34       1.0  0.04257  0.65580  0.96949  1.0000
  H   H35       1.0  0.45742  0.34420  0.46949  1.0000
  H   H36       1.0  0.04257  0.84419  0.96948  1.0000
  H   H37       1.0  0.54258  0.84419  0.53051  1.0000
  H   H38       1.0  0.95743  0.34420  0.03051  1.0000
  H   H39       1.0  0.54258  0.65580  0.53051  1.0000
  H   H40       1.0  0.95743  0.15581  0.03051  1.0000
  H   H41       1.0  0.23238  0.25000  0.73465  1.0000
  H   H42       1.0  0.26762  0.75000  0.23465  1.0000
  H   H43       1.0  0.76763  0.75000  0.26535  1.0000
  H   H44       1.0  0.73237  0.25000  0.76535  1.0000
  H   H45       1.0  0.05872  0.25000  0.67162  1.0000
  H   H46       1.0  0.44128  0.75000  0.17162  1.0000
  H   H47       1.0  0.94128  0.75000  0.32838  1.0000
  H   H48       1.0  0.55872  0.25000  0.82838  1.0000
  C   C1        1.0  0.18530  0.37778  0.54491  1.0000
  C   C2        1.0  0.31470  0.87778  0.04490  1.0000
  C   C3        1.0  0.18530  0.12222  0.54491  1.0000
  C   C4        1.0  0.31469  0.62222  0.04490  1.0000
  C   C5        1.0  0.81470  0.62222  0.45509  1.0000
  C   C6        1.0  0.68531  0.12222  0.95510  1.0000
  C   C7        1.0  0.81470  0.87778  0.45509  1.0000
  C   C8        1.0  0.68531  0.37778  0.95510  1.0000
  C   C9        1.0  0.41764  0.37740  0.62867  1.0000
  C   C10       1.0  0.08236  0.87741  0.12867  1.0000
  C   C11       1.0  0.41764  0.12260  0.62867  1.0000
  C   C12       1.0  0.08235  0.62260  0.12867  1.0000
  C   C13       1.0  0.58236  0.62259  0.37133  1.0000
  C   C14       1.0  0.91764  0.12260  0.87133  1.0000
  C   C15       1.0  0.58236  0.87741  0.37133  1.0000
  C   C16       1.0  0.91764  0.37740  0.87133  1.0000
  C   C17       1.0  0.41432  0.25000  0.50188  1.0000
  C   C18       1.0  0.08567  0.75000  0.00187  1.0000
  C   C19       1.0  0.58568  0.75000  0.49813  1.0000
  C   C20       1.0  0.91433  0.25000  0.99812  1.0000
  C   C21       1.0  0.18783  0.25000  0.67185  1.0000
  C   C22       1.0  0.31216  0.75000  0.17185  1.0000
  C   C23       1.0  0.81217  0.75000  0.32815  1.0000
  C   C24       1.0  0.68783  0.25000  0.82816  1.0000
  N   N1        1.0  0.24130  0.25000  0.50150  1.0000
  N   N2        1.0  0.25870  0.75000  0.00149  1.0000
  N   N3        1.0  0.75870  0.75000  0.49850  1.0000
  N   N4        1.0  0.74130  0.25000  0.99850  1.0000
  N   N5        1.0  0.47677  0.25000  0.58597  1.0000
  N   N6        1.0  0.02323  0.75000  0.08597  1.0000
  N   N7        1.0  0.52323  0.75000  0.41403  1.0000
  N   N8        1.0  0.97677  0.25000  0.91403  1.0000
  N   N9        1.0  0.24378  0.37998  0.63008  1.0000
  N   N10       1.0  0.25622  0.87998  0.13008  1.0000
  N   N11       1.0  0.24378  0.12002  0.63008  1.0000
  N   N12       1.0  0.25622  0.62002  0.13008  1.0000
  N   N13       1.0  0.75622  0.62002  0.36992  1.0000
  N   N14       1.0  0.74378  0.12002  0.86992  1.0000
  N   N15       1.0  0.75622  0.87998  0.36992  1.0000
  N   N16       1.0  0.74378  0.37998  0.86992  1.0000
  Cl  Cl1       1.0  0.16886  0.52823  0.33697  1.0000
  Cl  Cl2       1.0  0.33114  0.02823  0.83697  1.0000
  Cl  Cl3       1.0  0.16886  0.97177  0.33697  1.0000
  Cl  Cl4       1.0  0.33114  0.47177  0.83697  1.0000
  Cl  Cl5       1.0  0.83114  0.47177  0.66303  1.0000
  Cl  Cl6       1.0  0.66886  0.97177  0.16303  1.0000
  Cl  Cl7       1.0  0.83114  0.02823  0.66303  1.0000
  Cl  Cl8       1.0  0.66886  0.52823  0.16303  1.0000
  Cl  Cl9       1.0  0.49319  0.25000  0.29730  1.0000
  Cl  Cl10      1.0  0.00682  0.75000  0.79730  1.0000
  Cl  Cl11      1.0  0.50681  0.75000  0.70270  1.0000
  Cl  Cl12      1.0  0.99319  0.25000  0.20270  1.0000
  Cl  Cl13      1.0  0.16716  0.75000  0.56565  1.0000
  Cl  Cl14      1.0  0.33284  0.25000  0.06565  1.0000
  Cl  Cl15      1.0  0.83284  0.25000  0.43435  1.0000
  Cl  Cl16      1.0  0.66716  0.75000  0.93435  1.0000
