data_image0
_chemical_formula_structural       Cd2H20C24N12Cl4
_chemical_formula_sum              "Cd2 H20 C24 N12 Cl4"
_cell_length_a       3.81074
_cell_length_b       11.6095
_cell_length_c       16.5736
_cell_angle_alpha    101.149
_cell_angle_beta     90.0165
_cell_angle_gamma    99.4264

_space_group_name_H-M_alt    "P 1"
_space_group_IT_number       1

loop_
  _space_group_symop_operation_xyz
  'x, y, z'

loop_
  _atom_site_type_symbol
  _atom_site_label
  _atom_site_symmetry_multiplicity
  _atom_site_fract_x
  _atom_site_fract_y
  _atom_site_fract_z
  _atom_site_occupancy
  Cd  Cd1       1.0  0.88904  0.00014  0.75005  1.0000
  Cd  Cd2       1.0  0.11096  0.99985  0.24995  1.0000
  H   H1        1.0  0.55856  0.89687  0.03895  1.0000
  H   H2        1.0  0.66275  0.10313  0.46095  1.0000
  H   H3        1.0  0.44144  0.10313  0.96105  1.0000
  H   H4        1.0  0.33726  0.89687  0.53905  1.0000
  H   H5        1.0  0.66282  0.64730  0.03708  1.0000
  H   H6        1.0  0.01728  0.35256  0.46272  1.0000
  H   H7        1.0  0.33718  0.35270  0.96292  1.0000
  H   H8        1.0  0.98273  0.64744  0.53728  1.0000
  H   H9        1.0  0.84420  0.47716  0.93670  1.0000
  H   H10       1.0  0.36787  0.52272  0.56315  1.0000
  H   H11       1.0  0.15580  0.52284  0.06330  1.0000
  H   H12       1.0  0.63213  0.47728  0.43684  1.0000
  H   H13       1.0  0.02001  0.49867  0.79720  1.0000
  H   H14       1.0  0.52084  0.50145  0.70282  1.0000
  H   H15       1.0  0.97999  0.50133  0.20281  1.0000
  H   H16       1.0  0.47916  0.49855  0.29718  1.0000
  H   H17       1.0  0.02545  0.69076  0.74897  1.0000
  H   H18       1.0  0.33397  0.30940  0.75109  1.0000
  H   H19       1.0  0.97455  0.30923  0.25103  1.0000
  H   H20       1.0  0.66603  0.69060  0.24891  1.0000
  C   C1        1.0  0.83501  0.77421  0.86576  1.0000
  C   C2        1.0  0.06071  0.22590  0.63422  1.0000
  C   C3        1.0  0.16499  0.22579  0.13423  1.0000
  C   C4        1.0  0.93929  0.77410  0.36578  1.0000
  C   C5        1.0  0.73469  0.76085  0.94619  1.0000
  C   C6        1.0  0.97450  0.23915  0.55371  1.0000
  C   C7        1.0  0.26531  0.23915  0.05381  1.0000
  C   C8        1.0  0.02551  0.76085  0.44629  1.0000
  C   C9        1.0  0.73702  0.65495  0.97468  1.0000
  C   C10       1.0  0.08317  0.34497  0.52519  1.0000
  C   C11       1.0  0.26297  0.34506  0.02532  1.0000
  C   C12       1.0  0.91684  0.65503  0.47481  1.0000
  C   C13       1.0  0.83887  0.56222  0.91861  1.0000
  C   C14       1.0  0.27708  0.43774  0.58131  1.0000
  C   C15       1.0  0.16113  0.43778  0.08139  1.0000
  C   C16       1.0  0.72292  0.56226  0.41869  1.0000
  C   C17       1.0  0.93975  0.57447  0.83812  1.0000
  C   C18       1.0  0.36494  0.42562  0.66189  1.0000
  C   C19       1.0  0.06026  0.42553  0.16188  1.0000
  C   C20       1.0  0.63506  0.57438  0.33811  1.0000
  C   C21       1.0  0.94196  0.67975  0.81025  1.0000
  C   C22       1.0  0.26186  0.32036  0.68976  1.0000
  C   C23       1.0  0.05803  0.32025  0.18975  1.0000
  C   C24       1.0  0.73814  0.67964  0.31024  1.0000
  N   N1        1.0  0.64439  0.86784  0.98064  1.0000
  N   N2        1.0  0.77730  0.13218  0.51928  1.0000
  N   N3        1.0  0.35562  0.13217  0.01936  1.0000
  N   N4        1.0  0.22271  0.86781  0.48072  1.0000
  N   N5        1.0  0.68385  0.94249  0.92783  1.0000
  N   N6        1.0  0.74172  0.05758  0.57213  1.0000
  N   N7        1.0  0.31615  0.05751  0.07217  1.0000
  N   N8        1.0  0.25828  0.94242  0.42787  1.0000
  N   N9        1.0  0.79885  0.88817  0.85856  1.0000
  N   N10       1.0  0.91074  0.11195  0.64144  1.0000
  N   N11       1.0  0.20115  0.11183  0.14144  1.0000
  N   N12       1.0  0.08926  0.88805  0.35856  1.0000
  Cl  Cl1       1.0  0.31561  0.85814  0.67277  1.0000
  Cl  Cl2       1.0  0.45762  0.14215  0.82737  1.0000
  Cl  Cl3       1.0  0.68438  0.14186  0.32723  1.0000
  Cl  Cl4       1.0  0.54238  0.85785  0.17264  1.0000
