data_image0
_chemical_formula_structural       Ti2H82C34N4O8
_chemical_formula_sum              "Ti2 H82 C34 N4 O8"
_cell_length_a       9.50131
_cell_length_b       9.68153
_cell_length_c       11.948
_cell_angle_alpha    94.1474
_cell_angle_beta     99.2497
_cell_angle_gamma    97.441

_space_group_name_H-M_alt    "P 1"
_space_group_IT_number       1

loop_
  _space_group_symop_operation_xyz
  'x, y, z'

loop_
  _atom_site_type_symbol
  _atom_site_label
  _atom_site_symmetry_multiplicity
  _atom_site_fract_x
  _atom_site_fract_y
  _atom_site_fract_z
  _atom_site_occupancy
  Ti  Ti1       1.0  0.53893  0.03262  0.14063  1.0000
  Ti  Ti2       1.0  0.46108  0.96738  0.85937  1.0000
  H   H1        1.0  0.34870  0.24914  0.28285  1.0000
  H   H2        1.0  0.65129  0.75086  0.71715  1.0000
  H   H3        1.0  0.46945  0.13629  0.44492  1.0000
  H   H4        1.0  0.53055  0.86371  0.55509  1.0000
  H   H5        1.0  0.45959  0.31399  0.48815  1.0000
  H   H6        1.0  0.54041  0.68601  0.51185  1.0000
  H   H7        1.0  0.62539  0.26463  0.45894  1.0000
  H   H8        1.0  0.37461  0.73538  0.54106  1.0000
  H   H9        1.0  0.63034  0.45506  0.31664  1.0000
  H   H10       1.0  0.36966  0.54494  0.68336  1.0000
  H   H11       1.0  0.46058  0.49519  0.34480  1.0000
  H   H12       1.0  0.53942  0.50482  0.65520  1.0000
  H   H13       1.0  0.48308  0.44747  0.20277  1.0000
  H   H14       1.0  0.51692  0.55254  0.79723  1.0000
  H   H15       1.0  0.40255  0.93028  0.33188  1.0000
  H   H16       1.0  0.59745  0.06972  0.66811  1.0000
  H   H17       1.0  0.22997  0.67597  0.17986  1.0000
  H   H18       1.0  0.77003  0.32402  0.82014  1.0000
  H   H19       1.0  0.28618  0.68575  0.33064  1.0000
  H   H20       1.0  0.71382  0.31425  0.66936  1.0000
  H   H21       1.0  0.41667  0.69704  0.23873  1.0000
  H   H22       1.0  0.58333  0.30296  0.76127  1.0000
  H   H23       1.0  0.18521  0.04636  0.28152  1.0000
  H   H24       1.0  0.81479  0.95364  0.71848  1.0000
  H   H25       1.0  0.14396  0.89587  0.35420  1.0000
  H   H26       1.0  0.85604  0.10413  0.64580  1.0000
  H   H27       1.0  0.09100  0.88873  0.20332  1.0000
  H   H28       1.0  0.90900  0.11127  0.79668  1.0000
  H   H29       1.0  0.65505  0.99683  0.41282  1.0000
  H   H30       1.0  0.34495  0.00317  0.58718  1.0000
  H   H31       1.0  0.69090  0.74623  0.37676  1.0000
  H   H32       1.0  0.30910  0.25377  0.62324  1.0000
  H   H33       1.0  0.83007  0.84115  0.48251  1.0000
  H   H34       1.0  0.16993  0.15885  0.51749  1.0000
  H   H35       1.0  0.86299  0.80244  0.34138  1.0000
  H   H36       1.0  0.13700  0.19756  0.65862  1.0000
  H   H37       1.0  0.93690  0.06266  0.32024  1.0000
  H   H38       1.0  0.06310  0.93734  0.67976  1.0000
  H   H39       1.0  0.91118  0.10685  0.46174  1.0000
  H   H40       1.0  0.08882  0.89316  0.53826  1.0000
  H   H41       1.0  0.81777  0.18515  0.34684  1.0000
  H   H42       1.0  0.18223  0.81485  0.65316  1.0000
  H   H43       1.0  0.63782  0.74495  0.91057  1.0000
  H   H44       1.0  0.36218  0.25505  0.08943  1.0000
  H   H45       1.0  0.84167  0.93609  0.97177  1.0000
  H   H46       1.0  0.15833  0.06391  0.02823  1.0000
  H   H47       1.0  0.88576  0.77325  0.01575  1.0000
  H   H48       1.0  0.11424  0.22675  0.98425  1.0000
  H   H49       1.0  0.84476  0.89894  0.11726  1.0000
  H   H50       1.0  0.15524  0.10106  0.88274  1.0000
  H   H51       1.0  0.64531  0.71563  0.16473  1.0000
  H   H52       1.0  0.35468  0.28436  0.83527  1.0000
  H   H53       1.0  0.69299  0.59223  0.06410  1.0000
  H   H54       1.0  0.30701  0.40777  0.93589  1.0000
  H   H55       1.0  0.51227  0.62562  0.05195  1.0000
  H   H56       1.0  0.48773  0.37438  0.94805  1.0000
  H   H57       1.0  0.82444  0.12417  0.12986  1.0000
  H   H58       1.0  0.17556  0.87583  0.87014  1.0000
  H   H59       1.0  0.72724  0.12406  0.00135  1.0000
  H   H60       1.0  0.27276  0.87594  0.99865  1.0000
  H   H61       1.0  0.73803  0.34875  0.18314  1.0000
  H   H62       1.0  0.26197  0.65125  0.81686  1.0000
  H   H63       1.0  0.66808  0.34318  0.03628  1.0000
  H   H64       1.0  0.33192  0.65683  0.96372  1.0000
  H   H65       1.0  0.92571  0.33386  0.99773  1.0000
  H   H66       1.0  0.07429  0.66613  0.00227  1.0000
  H   H67       1.0  0.89651  0.49272  0.06592  1.0000
  H   H68       1.0  0.10349  0.50728  0.93408  1.0000
  H   H69       1.0  0.02660  0.26183  0.19349  1.0000
  H   H70       1.0  0.97339  0.73817  0.80651  1.0000
  H   H71       1.0  0.12900  0.40849  0.15184  1.0000
  H   H72       1.0  0.87100  0.59151  0.84816  1.0000
  H   H73       1.0  0.00144  0.55197  0.26738  1.0000
  H   H74       1.0  0.99856  0.44802  0.73262  1.0000
  H   H75       1.0  0.21596  0.46245  0.36986  1.0000
  H   H76       1.0  0.78404  0.53755  0.63014  1.0000
  H   H77       1.0  0.09016  0.32221  0.39640  1.0000
  H   H78       1.0  0.90984  0.67778  0.60360  1.0000
  H   H79       1.0  0.08536  0.63264  0.46756  1.0000
  H   H80       1.0  0.91465  0.36735  0.53244  1.0000
  H   H81       1.0  0.15846  0.51446  0.55761  1.0000
  H   H82       1.0  0.84155  0.48554  0.44239  1.0000
  C   C1        1.0  0.46756  0.27356  0.30809  1.0000
  C   C2        1.0  0.53244  0.72644  0.69191  1.0000
  C   C3        1.0  0.50774  0.24514  0.43255  1.0000
  C   C4        1.0  0.49226  0.75486  0.56745  1.0000
  C   C5        1.0  0.51297  0.42702  0.29201  1.0000
  C   C6        1.0  0.48703  0.57298  0.70799  1.0000
  C   C7        1.0  0.31914  0.88473  0.25813  1.0000
  C   C8        1.0  0.68086  0.11527  0.74186  1.0000
  C   C9        1.0  0.31233  0.72616  0.25172  1.0000
  C   C10       1.0  0.68767  0.27384  0.74828  1.0000
  C   C11       1.0  0.17624  0.93169  0.27558  1.0000
  C   C12       1.0  0.82376  0.06831  0.72442  1.0000
  C   C13       1.0  0.73212  0.96829  0.35757  1.0000
  C   C14       1.0  0.26788  0.03171  0.64243  1.0000
  C   C15       1.0  0.78212  0.83127  0.39177  1.0000
  C   C16       1.0  0.21788  0.16873  0.60823  1.0000
  C   C17       1.0  0.85673  0.08834  0.37248  1.0000
  C   C18       1.0  0.14327  0.91166  0.62752  1.0000
  C   C19       1.0  0.65901  0.79054  0.99981  1.0000
  C   C20       1.0  0.34099  0.20946  0.00019  1.0000
  C   C21       1.0  0.81761  0.85466  0.02797  1.0000
  C   C22       1.0  0.18238  0.14534  0.97203  1.0000
  C   C23       1.0  0.62511  0.67420  0.07498  1.0000
  C   C24       1.0  0.37489  0.32580  0.92502  1.0000
  C   C25       1.0  0.75453  0.31266  0.09777  1.0000
  C   C26       1.0  0.24547  0.68734  0.90223  1.0000
  C   C27       1.0  0.90127  0.38134  0.07770  1.0000
  C   C28       1.0  0.09873  0.61866  0.92230  1.0000
  C   C29       1.0  0.02316  0.37200  0.17606  1.0000
  C   C30       1.0  0.97684  0.62800  0.82394  1.0000
  C   C31       1.0  0.10235  0.43380  0.38112  1.0000
  C   C32       1.0  0.89765  0.56620  0.61888  1.0000
  C   C33       1.0  0.07423  0.52133  0.48435  1.0000
  C   C34       1.0  0.92578  0.47866  0.51565  1.0000
  N   N1        1.0  0.73636  0.15892  0.08632  1.0000
  N   N2        1.0  0.26364  0.84108  0.91368  1.0000
  N   N3        1.0  0.99973  0.44826  0.27947  1.0000
  N   N4        1.0  0.00027  0.55174  0.72053  1.0000
  O   O1        1.0  0.53100  0.18658  0.23736  1.0000
  O   O2        1.0  0.46900  0.81342  0.76265  1.0000
  O   O3        1.0  0.35825  0.93395  0.15699  1.0000
  O   O4        1.0  0.64175  0.06606  0.84301  1.0000
  O   O5        1.0  0.66031  0.94860  0.24335  1.0000
  O   O6        1.0  0.33969  0.05140  0.75665  1.0000
  O   O7        1.0  0.56516  0.89486  0.00623  1.0000
  O   O8        1.0  0.43484  0.10514  0.99377  1.0000
