data_image0
_chemical_formula_structural       K8H8C24N8O16
_chemical_formula_sum              "K8 H8 C24 N8 O16"
_cell_length_a       6.36252
_cell_length_b       6.79823
_cell_length_c       18.2934
_cell_angle_alpha    90.0001
_cell_angle_beta     90.0001
_cell_angle_gamma    90.0001

_space_group_name_H-M_alt    "P 1"
_space_group_IT_number       1

loop_
  _space_group_symop_operation_xyz
  'x, y, z'

loop_
  _atom_site_type_symbol
  _atom_site_label
  _atom_site_symmetry_multiplicity
  _atom_site_fract_x
  _atom_site_fract_y
  _atom_site_fract_z
  _atom_site_occupancy
  K   K1        1.0  0.24843  0.49308  0.93980  1.0000
  K   K2        1.0  0.74843  0.00692  0.06020  1.0000
  K   K3        1.0  0.25156  0.99308  0.56019  1.0000
  K   K4        1.0  0.75156  0.50692  0.43981  1.0000
  K   K5        1.0  0.75156  0.50692  0.06020  1.0000
  K   K6        1.0  0.25157  0.99308  0.93980  1.0000
  K   K7        1.0  0.74843  0.00693  0.43981  1.0000
  K   K8        1.0  0.24844  0.49308  0.56019  1.0000
  H   H1        1.0  0.89597  0.80363  0.75000  1.0000
  H   H2        1.0  0.39597  0.69637  0.25000  1.0000
  H   H3        1.0  0.60403  0.30363  0.75000  1.0000
  H   H4        1.0  0.10403  0.19637  0.25000  1.0000
  H   H5        1.0  0.15169  0.66068  0.75000  1.0000
  H   H6        1.0  0.65170  0.83931  0.25000  1.0000
  H   H7        1.0  0.34831  0.16068  0.75000  1.0000
  H   H8        1.0  0.84831  0.33932  0.25000  1.0000
  C   C1        1.0  0.61988  0.74693  0.81542  1.0000
  C   C2        1.0  0.11988  0.75307  0.18458  1.0000
  C   C3        1.0  0.88011  0.24693  0.68458  1.0000
  C   C4        1.0  0.38012  0.25307  0.31542  1.0000
  C   C5        1.0  0.38012  0.25307  0.18458  1.0000
  C   C6        1.0  0.88013  0.24693  0.81542  1.0000
  C   C7        1.0  0.11987  0.75307  0.31542  1.0000
  C   C8        1.0  0.61988  0.74693  0.68458  1.0000
  C   C9        1.0  0.72929  0.77086  0.75000  1.0000
  C   C10       1.0  0.22929  0.72915  0.25000  1.0000
  C   C11       1.0  0.77071  0.27086  0.75000  1.0000
  C   C12       1.0  0.27071  0.22914  0.25000  1.0000
  C   C13       1.0  0.73354  0.75405  0.88914  1.0000
  C   C14       1.0  0.23355  0.74595  0.11086  1.0000
  C   C15       1.0  0.76646  0.25405  0.61086  1.0000
  C   C16       1.0  0.26646  0.24595  0.38914  1.0000
  C   C17       1.0  0.26645  0.24595  0.11086  1.0000
  C   C18       1.0  0.76646  0.25405  0.88914  1.0000
  C   C19       1.0  0.23354  0.74595  0.38914  1.0000
  C   C20       1.0  0.73354  0.75405  0.61086  1.0000
  C   C21       1.0  0.31985  0.69256  0.75000  1.0000
  C   C22       1.0  0.81985  0.80744  0.25000  1.0000
  C   C23       1.0  0.18015  0.19256  0.75000  1.0000
  C   C24       1.0  0.68015  0.30744  0.25000  1.0000
  N   N1        1.0  0.41215  0.70895  0.81545  1.0000
  N   N2        1.0  0.91215  0.79105  0.18455  1.0000
  N   N3        1.0  0.08785  0.20895  0.68455  1.0000
  N   N4        1.0  0.58785  0.29105  0.31545  1.0000
  N   N5        1.0  0.58785  0.29105  0.18455  1.0000
  N   N6        1.0  0.08785  0.20895  0.81545  1.0000
  N   N7        1.0  0.91215  0.79105  0.31545  1.0000
  N   N8        1.0  0.41215  0.70895  0.68455  1.0000
  O   O1        1.0  0.61899  0.75788  0.94614  1.0000
  O   O2        1.0  0.11899  0.74211  0.05386  1.0000
  O   O3        1.0  0.88101  0.25788  0.55386  1.0000
  O   O4        1.0  0.38101  0.24212  0.44614  1.0000
  O   O5        1.0  0.38101  0.24211  0.05386  1.0000
  O   O6        1.0  0.88101  0.25788  0.94614  1.0000
  O   O7        1.0  0.11899  0.74212  0.44614  1.0000
  O   O8        1.0  0.61899  0.75789  0.55386  1.0000
  O   O9        1.0  0.93187  0.75244  0.88639  1.0000
  O   O10       1.0  0.43187  0.74756  0.11361  1.0000
  O   O11       1.0  0.56813  0.25244  0.61361  1.0000
  O   O12       1.0  0.06813  0.24756  0.38639  1.0000
  O   O13       1.0  0.06813  0.24756  0.11361  1.0000
  O   O14       1.0  0.56813  0.25244  0.88639  1.0000
  O   O15       1.0  0.43187  0.74756  0.38639  1.0000
  O   O16       1.0  0.93187  0.75244  0.61361  1.0000
