data_image0
_chemical_formula_structural       Cu2H12C12N4O12
_chemical_formula_sum              "Cu2 H12 C12 N4 O12"
_cell_length_a       6.97941
_cell_length_b       6.95728
_cell_length_c       10.6425
_cell_angle_alpha    86.9831
_cell_angle_beta     83.9882
_cell_angle_gamma    59.9005

_space_group_name_H-M_alt    "P 1"
_space_group_IT_number       1

loop_
  _space_group_symop_operation_xyz
  'x, y, z'

loop_
  _atom_site_type_symbol
  _atom_site_label
  _atom_site_symmetry_multiplicity
  _atom_site_fract_x
  _atom_site_fract_y
  _atom_site_fract_z
  _atom_site_occupancy
  Cu  Cu1       1.0  0.50000  0.00001  0.50000  1.0000
  Cu  Cu2       1.0  0.00000  1.00000  1.00000  1.0000
  H   H1        1.0  0.07623  0.34761  0.25001  1.0000
  H   H2        1.0  0.92378  0.65239  0.75000  1.0000
  H   H3        1.0  0.66920  0.16151  0.25004  1.0000
  H   H4        1.0  0.33081  0.83849  0.74996  1.0000
  H   H5        1.0  0.09854  0.09183  0.41060  1.0000
  H   H6        1.0  0.30964  0.09180  0.08947  1.0000
  H   H7        1.0  0.90145  0.90818  0.58940  1.0000
  H   H8        1.0  0.69036  0.90820  0.91053  1.0000
  H   H9        1.0  0.22280  0.83537  0.43775  1.0000
  H   H10       1.0  0.44182  0.83528  0.06222  1.0000
  H   H11       1.0  0.77719  0.16464  0.56225  1.0000
  H   H12       1.0  0.55819  0.16471  0.93778  1.0000
  C   C1        1.0  0.82462  0.64955  0.34667  1.0000
  C   C2        1.0  0.02581  0.64954  0.15340  1.0000
  C   C3        1.0  0.17538  0.35045  0.65333  1.0000
  C   C4        1.0  0.97419  0.35047  0.84661  1.0000
  C   C5        1.0  0.98580  0.52826  0.25004  1.0000
  C   C6        1.0  0.01419  0.47174  0.74996  1.0000
  C   C7        1.0  0.75975  0.98043  0.25001  1.0000
  C   C8        1.0  0.24025  0.01957  0.74999  1.0000
  C   C9        1.0  0.76285  0.54505  0.46045  1.0000
  C   C10       1.0  0.19212  0.54503  0.03962  1.0000
  C   C11       1.0  0.23715  0.45495  0.53955  1.0000
  C   C12       1.0  0.80788  0.45497  0.96038  1.0000
  N   N1        1.0  0.71480  0.87361  0.34621  1.0000
  N   N2        1.0  0.91155  0.87362  0.15384  1.0000
  N   N3        1.0  0.28519  0.12639  0.65379  1.0000
  N   N4        1.0  0.08846  0.12638  0.84617  1.0000
  O   O1        1.0  0.62750  0.67958  0.54699  1.0000
  O   O2        1.0  0.19294  0.67956  0.95302  1.0000
  O   O3        1.0  0.37250  0.32042  0.45301  1.0000
  O   O4        1.0  0.80706  0.32044  0.04698  1.0000
  O   O5        1.0  0.84965  0.33774  0.46408  1.0000
  O   O6        1.0  0.31270  0.33769  0.03597  1.0000
  O   O7        1.0  0.15034  0.66226  0.53591  1.0000
  O   O8        1.0  0.68732  0.66230  0.96403  1.0000
  O   O9        1.0  0.24338  0.95528  0.39681  1.0000
  O   O10       1.0  0.30139  0.95516  0.10318  1.0000
  O   O11       1.0  0.75661  0.04473  0.60319  1.0000
  O   O12       1.0  0.69862  0.04483  0.89682  1.0000
