data_image0
_chemical_formula_structural       Ag2P2H44C50N4O4
_chemical_formula_sum              "Ag2 P2 H44 C50 N4 O4"
_cell_length_a       9.3371
_cell_length_b       9.73531
_cell_length_c       13.581
_cell_angle_alpha    97.2337
_cell_angle_beta     92.2032
_cell_angle_gamma    116.86

_space_group_name_H-M_alt    "P 1"
_space_group_IT_number       1

loop_
  _space_group_symop_operation_xyz
  'x, y, z'

loop_
  _atom_site_type_symbol
  _atom_site_label
  _atom_site_symmetry_multiplicity
  _atom_site_fract_x
  _atom_site_fract_y
  _atom_site_fract_z
  _atom_site_occupancy
  Ag  Ag1       1.0  0.45300  0.63521  0.42345  1.0000
  Ag  Ag2       1.0  0.54700  0.36479  0.57655  1.0000
  P   P1        1.0  0.22455  0.57101  0.31608  1.0000
  P   P2        1.0  0.77545  0.42899  0.68392  1.0000
  H   H1        1.0  0.22297  0.71848  0.52534  1.0000
  H   H2        1.0  0.77703  0.28152  0.47466  1.0000
  H   H3        1.0  0.97103  0.58462  0.34829  1.0000
  H   H4        1.0  0.02897  0.41539  0.65171  1.0000
  H   H5        1.0  0.02041  0.47842  0.42768  1.0000
  H   H6        1.0  0.97959  0.52158  0.57232  1.0000
  H   H7        1.0  0.97627  0.79467  0.33497  1.0000
  H   H8        1.0  0.02373  0.20533  0.66504  1.0000
  H   H9        1.0  0.02653  0.06491  0.32535  1.0000
  H   H10       1.0  0.97347  0.93509  0.67466  1.0000
  H   H11       1.0  0.25036  0.28884  0.43943  1.0000
  H   H12       1.0  0.74964  0.71116  0.56057  1.0000
  H   H13       1.0  0.37119  0.98663  0.57056  1.0000
  H   H14       1.0  0.62881  0.01337  0.42944  1.0000
  H   H15       1.0  0.87761  0.30860  0.28190  1.0000
  H   H16       1.0  0.12240  0.69140  0.71809  1.0000
  H   H17       1.0  0.76243  0.04893  0.18132  1.0000
  H   H18       1.0  0.23756  0.95107  0.81867  1.0000
  H   H19       1.0  0.93652  0.95980  0.08491  1.0000
  H   H20       1.0  0.06348  0.04019  0.91509  1.0000
  H   H21       1.0  0.23094  0.13648  0.09355  1.0000
  H   H22       1.0  0.76906  0.86352  0.90645  1.0000
  H   H23       1.0  0.35075  0.39944  0.19520  1.0000
  H   H24       1.0  0.64925  0.60057  0.80479  1.0000
  H   H25       1.0  0.48695  0.85787  0.27607  1.0000
  H   H26       1.0  0.51305  0.14213  0.72393  1.0000
  H   H27       1.0  0.51593  0.02590  0.14633  1.0000
  H   H28       1.0  0.48407  0.97410  0.85366  1.0000
  H   H29       1.0  0.28881  0.95017  0.01489  1.0000
  H   H30       1.0  0.71119  0.04984  0.98511  1.0000
  H   H31       1.0  0.02824  0.71378  0.01780  1.0000
  H   H32       1.0  0.97175  0.28622  0.98220  1.0000
  H   H33       1.0  0.99713  0.54888  0.14801  1.0000
  H   H34       1.0  0.00287  0.45112  0.85199  1.0000
  H   H35       1.0  0.31057  0.30102  0.68023  1.0000
  H   H36       1.0  0.68943  0.69898  0.31977  1.0000
  H   H37       1.0  0.29355  0.20700  0.84300  1.0000
  H   H38       1.0  0.70645  0.79300  0.15700  1.0000
  H   H39       1.0  0.31428  0.38100  0.00010  1.0000
  H   H40       1.0  0.68572  0.61900  0.99990  1.0000
  H   H41       1.0  0.35004  0.64827  0.99302  1.0000
  H   H42       1.0  0.64997  0.35173  0.00698  1.0000
  H   H43       1.0  0.36418  0.74021  0.82797  1.0000
  H   H44       1.0  0.63582  0.25979  0.17203  1.0000
  C   C1        1.0  0.07055  0.58570  0.39444  1.0000
  C   C2        1.0  0.92945  0.41430  0.60556  1.0000
  C   C3        1.0  0.16718  0.86663  0.45640  1.0000
  C   C4        1.0  0.83282  0.13337  0.54360  1.0000
  C   C5        1.0  0.07217  0.89209  0.38491  1.0000
  C   C6        1.0  0.92783  0.10791  0.61510  1.0000
  C   C7        1.0  0.10026  0.04330  0.37911  1.0000
  C   C8        1.0  0.89974  0.95670  0.62089  1.0000
  C   C9        1.0  0.22382  0.16843  0.44199  1.0000
  C   C10       1.0  0.77618  0.83157  0.55801  1.0000
  C   C11       1.0  0.29134  0.00040  0.51616  1.0000
  C   C12       1.0  0.70865  0.99960  0.48384  1.0000
  C   C13       1.0  0.12331  0.37514  0.24363  1.0000
  C   C14       1.0  0.87670  0.62486  0.75636  1.0000
  C   C15       1.0  0.95741  0.27514  0.23987  1.0000
  C   C16       1.0  0.04259  0.72487  0.76013  1.0000
  C   C17       1.0  0.89117  0.12653  0.18233  1.0000
  C   C18       1.0  0.10883  0.87348  0.81767  1.0000
  C   C19       1.0  0.98800  0.07655  0.12847  1.0000
  C   C20       1.0  0.01200  0.92345  0.87152  1.0000
  C   C21       1.0  0.15341  0.17589  0.13291  1.0000
  C   C22       1.0  0.84659  0.82411  0.86709  1.0000
  C   C23       1.0  0.22091  0.32377  0.19035  1.0000
  C   C24       1.0  0.77909  0.67623  0.80965  1.0000
  C   C25       1.0  0.24103  0.69280  0.22058  1.0000
  C   C26       1.0  0.75898  0.30720  0.77942  1.0000
  C   C27       1.0  0.38662  0.82747  0.21950  1.0000
  C   C28       1.0  0.61338  0.17253  0.78050  1.0000
  C   C29       1.0  0.40292  0.92069  0.14633  1.0000
  C   C30       1.0  0.59707  0.07931  0.85367  1.0000
  C   C31       1.0  0.27481  0.87939  0.07344  1.0000
  C   C32       1.0  0.72518  0.12061  0.92656  1.0000
  C   C33       1.0  0.12847  0.74609  0.07467  1.0000
  C   C34       1.0  0.87153  0.25392  0.92533  1.0000
  C   C35       1.0  0.11140  0.65320  0.14797  1.0000
  C   C36       1.0  0.88860  0.34680  0.85203  1.0000
  C   C37       1.0  0.35675  0.58932  0.64569  1.0000
  C   C38       1.0  0.64325  0.41067  0.35431  1.0000
  C   C39       1.0  0.34098  0.52838  0.74398  1.0000
  C   C40       1.0  0.65902  0.47162  0.25602  1.0000
  C   C41       1.0  0.31953  0.37721  0.74886  1.0000
  C   C42       1.0  0.68047  0.62279  0.25114  1.0000
  C   C43       1.0  0.30939  0.32440  0.84049  1.0000
  C   C44       1.0  0.69061  0.67559  0.15951  1.0000
  C   C45       1.0  0.32087  0.42162  0.92845  1.0000
  C   C46       1.0  0.67913  0.57838  0.07155  1.0000
  C   C47       1.0  0.34128  0.57209  0.92449  1.0000
  C   C48       1.0  0.65872  0.42790  0.07551  1.0000
  C   C49       1.0  0.34968  0.62401  0.83271  1.0000
  C   C50       1.0  0.65032  0.37598  0.16729  1.0000
  N   N1        1.0  0.14194  0.72049  0.47200  1.0000
  N   N2        1.0  0.85806  0.27951  0.52800  1.0000
  N   N3        1.0  0.31882  0.14615  0.50859  1.0000
  N   N4        1.0  0.68118  0.85385  0.49142  1.0000
  O   O1        1.0  0.39785  0.51994  0.57427  1.0000
  O   O2        1.0  0.60215  0.48006  0.42573  1.0000
  O   O3        1.0  0.32741  0.70297  0.63973  1.0000
  O   O4        1.0  0.67259  0.29703  0.36027  1.0000
