data_image0
_chemical_formula_structural       Cu8H48C50I8N8O8
_chemical_formula_sum              "Cu8 H48 C50 I8 N8 O8"
_cell_length_a       11.7726
_cell_length_b       12.8441
_cell_length_c       12.8979
_cell_angle_alpha    78.417
_cell_angle_beta     62.8465
_cell_angle_gamma    63.8988

_space_group_name_H-M_alt    "P 1"
_space_group_IT_number       1

loop_
  _space_group_symop_operation_xyz
  'x, y, z'

loop_
  _atom_site_type_symbol
  _atom_site_label
  _atom_site_symmetry_multiplicity
  _atom_site_fract_x
  _atom_site_fract_y
  _atom_site_fract_z
  _atom_site_occupancy
  Cu  Cu1       1.0  0.83743  0.28024  0.14163  1.0000
  Cu  Cu2       1.0  0.75983  0.21985  0.35511  1.0000
  Cu  Cu3       1.0  0.97951  0.85814  0.78249  1.0000
  Cu  Cu4       1.0  0.11173  0.64567  0.72178  1.0000
  Cu  Cu5       1.0  0.16257  0.71975  0.85837  1.0000
  Cu  Cu6       1.0  0.24017  0.78015  0.64490  1.0000
  Cu  Cu7       1.0  0.02048  0.14185  0.21751  1.0000
  Cu  Cu8       1.0  0.88827  0.35433  0.27822  1.0000
  H   H1        1.0  0.85639  0.17409  0.94508  1.0000
  H   H2        1.0  0.47775  0.32559  0.55153  1.0000
  H   H3        1.0  0.80689  0.05065  0.67271  1.0000
  H   H4        1.0  0.02771  0.44672  0.82779  1.0000
  H   H5        1.0  0.14361  0.82591  0.05492  1.0000
  H   H6        1.0  0.52225  0.67441  0.44846  1.0000
  H   H7        1.0  0.19310  0.94935  0.32728  1.0000
  H   H8        1.0  0.97229  0.55328  0.17221  1.0000
  H   H9        1.0  0.69459  0.50959  0.06321  1.0000
  H   H10       1.0  0.76540  0.99095  0.43785  1.0000
  H   H11       1.0  0.75448  0.93942  0.01110  1.0000
  H   H12       1.0  0.20137  0.56436  0.49135  1.0000
  H   H13       1.0  0.30542  0.49041  0.93679  1.0000
  H   H14       1.0  0.23459  0.00905  0.56215  1.0000
  H   H15       1.0  0.24552  0.06058  0.98890  1.0000
  H   H16       1.0  0.79863  0.43565  0.50864  1.0000
  H   H17       1.0  0.77827  0.24776  0.78350  1.0000
  H   H18       1.0  0.31202  0.24961  0.71428  1.0000
  H   H19       1.0  0.56853  0.21031  0.74525  1.0000
  H   H20       1.0  0.02714  0.28205  0.75208  1.0000
  H   H21       1.0  0.22173  0.75224  0.21650  1.0000
  H   H22       1.0  0.68798  0.75039  0.28572  1.0000
  H   H23       1.0  0.43146  0.78970  0.25475  1.0000
  H   H24       1.0  0.97286  0.71795  0.24792  1.0000
  H   H25       1.0  0.43187  0.74240  0.88525  1.0000
  H   H26       1.0  0.55977  0.75156  0.61781  1.0000
  H   H27       1.0  0.31398  0.11567  0.24506  1.0000
  H   H28       1.0  0.17736  0.38085  0.25383  1.0000
  H   H29       1.0  0.56813  0.25760  0.11476  1.0000
  H   H30       1.0  0.44023  0.24844  0.38219  1.0000
  H   H31       1.0  0.68602  0.88433  0.75494  1.0000
  H   H32       1.0  0.82264  0.61915  0.74617  1.0000
  H   H33       1.0  0.53180  0.62478  0.78684  1.0000
  H   H34       1.0  0.44526  0.86898  0.71642  1.0000
  H   H35       1.0  0.31852  0.21258  0.12602  1.0000
  H   H36       1.0  0.16048  0.28281  0.37200  1.0000
  H   H37       1.0  0.46820  0.37522  0.21316  1.0000
  H   H38       1.0  0.55474  0.13102  0.28359  1.0000
  H   H39       1.0  0.68148  0.78742  0.87398  1.0000
  H   H40       1.0  0.83952  0.71719  0.62800  1.0000
  H   H41       1.0  0.64961  0.45911  0.76442  1.0000
  H   H42       1.0  0.37403  0.03710  0.73612  1.0000
  H   H43       1.0  0.41692  0.23265  0.95800  1.0000
  H   H44       1.0  0.11079  0.26170  0.53902  1.0000
  H   H45       1.0  0.35038  0.54089  0.23559  1.0000
  H   H46       1.0  0.62597  0.96290  0.26388  1.0000
  H   H47       1.0  0.58308  0.76735  0.04200  1.0000
  H   H48       1.0  0.88921  0.73830  0.46098  1.0000
  C   C1        1.0  0.80139  0.26649  0.93354  1.0000
  C   C2        1.0  0.50274  0.23281  0.56433  1.0000
  C   C3        1.0  0.73886  0.06331  0.76555  1.0000
  C   C4        1.0  0.06572  0.43447  0.73474  1.0000
  C   C5        1.0  0.19861  0.73351  0.06646  1.0000
  C   C6        1.0  0.49726  0.76719  0.43567  1.0000
  C   C7        1.0  0.26113  0.93669  0.23445  1.0000
  C   C8        1.0  0.93428  0.56554  0.26526  1.0000
  C   C9        1.0  0.71177  0.45328  0.99986  1.0000
  C   C10       1.0  0.66392  0.04655  0.50042  1.0000
  C   C11       1.0  0.71076  0.00086  0.95379  1.0000
  C   C12       1.0  0.16266  0.50066  0.54744  1.0000
  C   C13       1.0  0.28824  0.54672  0.00014  1.0000
  C   C14       1.0  0.33608  0.95345  0.49958  1.0000
  C   C15       1.0  0.28924  0.99914  0.04620  1.0000
  C   C16       1.0  0.83734  0.49934  0.45256  1.0000
  C   C17       1.0  0.66203  0.50135  0.91345  1.0000
  C   C18       1.0  0.57629  0.99704  0.58768  1.0000
  C   C19       1.0  0.57522  0.08660  0.00144  1.0000
  C   C20       1.0  0.16316  0.41257  0.49811  1.0000
  C   C21       1.0  0.33797  0.49864  0.08655  1.0000
  C   C22       1.0  0.42371  0.00296  0.41232  1.0000
  C   C23       1.0  0.42478  0.91340  0.99856  1.0000
  C   C24       1.0  0.83685  0.58743  0.50188  1.0000
  C   C25       1.0  0.75665  0.30836  0.84478  1.0000
  C   C26       1.0  0.41137  0.18961  0.65385  1.0000
  C   C27       1.0  0.60593  0.15116  0.80688  1.0000
  C   C28       1.0  0.06516  0.34390  0.69163  1.0000
  C   C29       1.0  0.24335  0.69164  0.15522  1.0000
  C   C30       1.0  0.58862  0.81040  0.34616  1.0000
  C   C31       1.0  0.39406  0.84885  0.19312  1.0000
  C   C32       1.0  0.93484  0.65610  0.30836  1.0000
  C   C33       1.0  0.62494  0.74931  0.75101  1.0000
  C   C34       1.0  0.37506  0.25068  0.24899  1.0000
  C   C35       1.0  0.53859  0.68169  0.83488  1.0000
  C   C36       1.0  0.55545  0.81406  0.66783  1.0000
  C   C37       1.0  0.37184  0.16592  0.18285  1.0000
  C   C38       1.0  0.22265  0.33212  0.31562  1.0000
  C   C39       1.0  0.46142  0.31831  0.16512  1.0000
  C   C40       1.0  0.44455  0.18594  0.33217  1.0000
  C   C41       1.0  0.62816  0.83408  0.81715  1.0000
  C   C42       1.0  0.77735  0.66788  0.68438  1.0000
  C   C43       1.0  0.68485  0.42699  0.83378  1.0000
  C   C44       1.0  0.44637  0.07038  0.66644  1.0000
  C   C45       1.0  0.52100  0.16391  0.92615  1.0000
  C   C46       1.0  0.11268  0.33215  0.57210  1.0000
  C   C47       1.0  0.31514  0.57301  0.16622  1.0000
  C   C48       1.0  0.55363  0.92962  0.33356  1.0000
  C   C49       1.0  0.47900  0.83609  0.07385  1.0000
  C   C50       1.0  0.88732  0.66785  0.42790  1.0000
  I   I1        1.0  0.86566  0.06010  0.17970  1.0000
  I   I2        1.0  0.61308  0.43809  0.31736  1.0000
  I   I3        1.0  0.04901  0.81923  0.56181  1.0000
  I   I4        1.0  0.92404  0.68317  0.94186  1.0000
  I   I5        1.0  0.13434  0.93990  0.82030  1.0000
  I   I6        1.0  0.38692  0.56191  0.68264  1.0000
  I   I7        1.0  0.95100  0.18076  0.43818  1.0000
  I   I8        1.0  0.07596  0.31683  0.05814  1.0000
  N   N1        1.0  0.77831  0.33883  0.01055  1.0000
  N   N2        1.0  0.62757  0.16135  0.48806  1.0000
  N   N3        1.0  0.79022  0.98862  0.83888  1.0000
  N   N4        1.0  0.11351  0.51235  0.66266  1.0000
  N   N5        1.0  0.22169  0.66117  0.98945  1.0000
  N   N6        1.0  0.37243  0.83865  0.51194  1.0000
  N   N7        1.0  0.20978  0.01138  0.16112  1.0000
  N   N8        1.0  0.88649  0.48765  0.33733  1.0000
  O   O1        1.0  0.59339  0.61881  0.91878  1.0000
  O   O2        1.0  0.62997  0.87928  0.58347  1.0000
  O   O3        1.0  0.51004  0.08268  0.11958  1.0000
  O   O4        1.0  0.21303  0.41722  0.37990  1.0000
  O   O5        1.0  0.40661  0.38119  0.08122  1.0000
  O   O6        1.0  0.37003  0.12072  0.41653  1.0000
  O   O7        1.0  0.48996  0.91732  0.88042  1.0000
  O   O8        1.0  0.78697  0.58278  0.62010  1.0000
