data_image0
_chemical_formula_structural       Cu8H48C58S8N16O8
_chemical_formula_sum              "Cu8 H48 C58 S8 N16 O8"
_cell_length_a       10.7482
_cell_length_b       13.2753
_cell_length_c       13.4481
_cell_angle_alpha    90
_cell_angle_beta     90
_cell_angle_gamma    90

_space_group_name_H-M_alt    "P 1"
_space_group_IT_number       1

loop_
  _space_group_symop_operation_xyz
  'x, y, z'

loop_
  _atom_site_type_symbol
  _atom_site_label
  _atom_site_symmetry_multiplicity
  _atom_site_fract_x
  _atom_site_fract_y
  _atom_site_fract_z
  _atom_site_occupancy
  Cu  Cu1       1.0  0.23766  0.65490  0.27121  1.0000
  Cu  Cu2       1.0  0.23766  0.84511  0.22879  1.0000
  Cu  Cu3       1.0  0.73882  0.72843  0.15496  1.0000
  Cu  Cu4       1.0  0.73883  0.77157  0.34504  1.0000
  Cu  Cu5       1.0  0.76234  0.34511  0.72880  1.0000
  Cu  Cu6       1.0  0.76234  0.15490  0.77120  1.0000
  Cu  Cu7       1.0  0.26118  0.27157  0.84504  1.0000
  Cu  Cu8       1.0  0.26118  0.22843  0.65496  1.0000
  H   H1        1.0  0.46736  0.52520  0.21705  1.0000
  H   H2        1.0  0.46735  0.97480  0.28295  1.0000
  H   H3        1.0  0.96956  0.78438  0.02513  1.0000
  H   H4        1.0  0.96956  0.71562  0.47488  1.0000
  H   H5        1.0  0.53264  0.47480  0.78295  1.0000
  H   H6        1.0  0.53265  0.02520  0.71705  1.0000
  H   H7        1.0  0.03044  0.21561  0.97488  1.0000
  H   H8        1.0  0.03043  0.28438  0.52512  1.0000
  H   H9        1.0  0.50310  0.31960  0.46557  1.0000
  H   H10       1.0  0.50310  0.18040  0.03443  1.0000
  H   H11       1.0  0.00113  0.53367  0.82042  1.0000
  H   H12       1.0  0.00112  0.96633  0.67959  1.0000
  H   H13       1.0  0.49690  0.68041  0.53443  1.0000
  H   H14       1.0  0.49690  0.81960  0.96557  1.0000
  H   H15       1.0  0.99888  0.46632  0.17959  1.0000
  H   H16       1.0  0.99887  0.03367  0.32042  1.0000
  H   H17       1.0  0.31545  0.39957  0.53867  1.0000
  H   H18       1.0  0.31546  0.10043  0.96133  1.0000
  H   H19       1.0  0.81376  0.46024  0.90011  1.0000
  H   H20       1.0  0.81376  0.03977  0.59989  1.0000
  H   H21       1.0  0.68454  0.60043  0.46133  1.0000
  H   H22       1.0  0.68455  0.89957  0.03867  1.0000
  H   H23       1.0  0.18624  0.53976  0.09989  1.0000
  H   H24       1.0  0.18623  0.96024  0.40011  1.0000
  H   H25       1.0  0.21124  0.54134  0.44808  1.0000
  H   H26       1.0  0.21125  0.95866  0.05192  1.0000
  H   H27       1.0  0.71167  0.55159  0.04118  1.0000
  H   H28       1.0  0.71168  0.94841  0.45882  1.0000
  H   H29       1.0  0.78876  0.45866  0.55192  1.0000
  H   H30       1.0  0.78876  0.04134  0.94808  1.0000
  H   H31       1.0  0.28833  0.44841  0.95882  1.0000
  H   H32       1.0  0.28832  0.05159  0.54119  1.0000
  H   H33       1.0  0.60694  0.24120  0.36100  1.0000
  H   H34       1.0  0.60694  0.25880  0.13900  1.0000
  H   H35       1.0  0.10482  0.63808  0.74244  1.0000
  H   H36       1.0  0.10482  0.86192  0.75756  1.0000
  H   H37       1.0  0.39305  0.75880  0.63900  1.0000
  H   H38       1.0  0.39305  0.74120  0.86100  1.0000
  H   H39       1.0  0.89517  0.36192  0.25756  1.0000
  H   H40       1.0  0.89517  0.13808  0.24244  1.0000
  H   H41       1.0  0.72444  0.33209  0.38958  1.0000
  H   H42       1.0  0.72444  0.16790  0.11042  1.0000
  H   H43       1.0  0.22315  0.60890  0.83144  1.0000
  H   H44       1.0  0.22315  0.89110  0.66856  1.0000
  H   H45       1.0  0.27556  0.66790  0.61042  1.0000
  H   H46       1.0  0.27556  0.83210  0.88958  1.0000
  H   H47       1.0  0.77685  0.39110  0.16856  1.0000
  H   H48       1.0  0.77684  0.10890  0.33144  1.0000
  C   C1        1.0  0.45526  0.71255  0.12627  1.0000
  C   C2        1.0  0.45526  0.78745  0.37373  1.0000
  C   C3        1.0  0.95433  0.87462  0.21290  1.0000
  C   C4        1.0  0.95434  0.62538  0.28710  1.0000
  C   C5        1.0  0.54474  0.28745  0.87373  1.0000
  C   C6        1.0  0.54474  0.21255  0.62626  1.0000
  C   C7        1.0  0.04567  0.12538  0.78709  1.0000
  C   C8        1.0  0.04567  0.37462  0.71291  1.0000
  C   C9        1.0  0.43504  0.49563  0.28822  1.0000
  C   C10       1.0  0.43504  0.00437  0.21178  1.0000
  C   C11       1.0  0.93644  0.71263  0.99569  1.0000
  C   C12       1.0  0.93644  0.78737  0.50431  1.0000
  C   C13       1.0  0.56496  0.50437  0.71178  1.0000
  C   C14       1.0  0.56496  0.99563  0.78822  1.0000
  C   C15       1.0  0.06356  0.28736  0.00432  1.0000
  C   C16       1.0  0.06355  0.21264  0.49569  1.0000
  C   C17       1.0  0.49803  0.41525  0.33374  1.0000
  C   C18       1.0  0.49803  0.08475  0.16626  1.0000
  C   C19       1.0  0.99806  0.66673  0.91542  1.0000
  C   C20       1.0  0.99806  0.83327  0.58458  1.0000
  C   C21       1.0  0.50197  0.58475  0.66626  1.0000
  C   C22       1.0  0.50197  0.91525  0.83374  1.0000
  C   C23       1.0  0.00194  0.33326  0.08459  1.0000
  C   C24       1.0  0.00193  0.16673  0.41542  1.0000
  C   C25       1.0  0.45647  0.38017  0.42595  1.0000
  C   C26       1.0  0.45648  0.11983  0.07405  1.0000
  C   C27       1.0  0.95547  0.57368  0.88076  1.0000
  C   C28       1.0  0.95547  0.92632  0.61925  1.0000
  C   C29       1.0  0.54353  0.61983  0.57405  1.0000
  C   C30       1.0  0.54353  0.88017  0.92595  1.0000
  C   C31       1.0  0.04453  0.42632  0.11925  1.0000
  C   C32       1.0  0.04452  0.07368  0.38076  1.0000
  C   C33       1.0  0.35174  0.42557  0.46749  1.0000
  C   C34       1.0  0.35174  0.07443  0.03250  1.0000
  C   C35       1.0  0.85093  0.53192  0.92602  1.0000
  C   C36       1.0  0.85093  0.96808  0.57398  1.0000
  C   C37       1.0  0.64826  0.57443  0.53250  1.0000
  C   C38       1.0  0.64826  0.92557  0.96749  1.0000
  C   C39       1.0  0.14908  0.46808  0.07398  1.0000
  C   C40       1.0  0.14907  0.03192  0.42603  1.0000
  C   C41       1.0  0.29343  0.50409  0.41797  1.0000
  C   C42       1.0  0.29344  0.99590  0.08203  1.0000
  C   C43       1.0  0.79387  0.58188  0.00425  1.0000
  C   C44       1.0  0.79387  0.91812  0.49575  1.0000
  C   C45       1.0  0.70656  0.49590  0.58203  1.0000
  C   C46       1.0  0.70657  0.00409  0.91797  1.0000
  C   C47       1.0  0.20613  0.41811  0.99575  1.0000
  C   C48       1.0  0.20612  0.08188  0.50426  1.0000
  C   C49       1.0  0.66834  0.29928  0.32933  1.0000
  C   C50       1.0  0.66835  0.20072  0.17067  1.0000
  C   C51       1.0  0.16705  0.67003  0.79923  1.0000
  C   C52       1.0  0.16705  0.82997  0.70078  1.0000
  C   C53       1.0  0.33165  0.70072  0.67067  1.0000
  C   C54       1.0  0.33165  0.79928  0.82933  1.0000
  C   C55       1.0  0.83295  0.32997  0.20077  1.0000
  C   C56       1.0  0.83295  0.17003  0.29923  1.0000
  C   C57       1.0  0.75064  0.25000  0.25000  1.0000
  C   C58       1.0  0.24935  0.75000  0.75000  1.0000
  S   S1        1.0  0.30257  0.71026  0.11568  1.0000
  S   S2        1.0  0.30258  0.78974  0.38431  1.0000
  S   S3        1.0  0.80169  0.88573  0.21101  1.0000
  S   S4        1.0  0.80169  0.61427  0.28899  1.0000
  S   S5        1.0  0.69743  0.28974  0.88431  1.0000
  S   S6        1.0  0.69743  0.21026  0.61568  1.0000
  S   S7        1.0  0.19831  0.11427  0.78899  1.0000
  S   S8        1.0  0.19831  0.38573  0.71101  1.0000
  N   N1        1.0  0.56494  0.71557  0.13179  1.0000
  N   N2        1.0  0.56495  0.78443  0.36821  1.0000
  N   N3        1.0  0.06398  0.86865  0.21582  1.0000
  N   N4        1.0  0.06398  0.63136  0.28417  1.0000
  N   N5        1.0  0.43507  0.28443  0.86821  1.0000
  N   N6        1.0  0.43505  0.21557  0.63179  1.0000
  N   N7        1.0  0.93602  0.13136  0.78417  1.0000
  N   N8        1.0  0.93602  0.36865  0.71582  1.0000
  N   N9        1.0  0.33509  0.53898  0.32955  1.0000
  N   N10       1.0  0.33509  0.96101  0.17045  1.0000
  N   N11       1.0  0.83664  0.67094  0.03913  1.0000
  N   N12       1.0  0.83664  0.82906  0.46087  1.0000
  N   N13       1.0  0.66491  0.46102  0.67045  1.0000
  N   N14       1.0  0.66491  0.03898  0.82954  1.0000
  N   N15       1.0  0.16336  0.32905  0.96087  1.0000
  N   N16       1.0  0.16335  0.17095  0.53914  1.0000
  O   O1        1.0  0.59619  0.37692  0.28211  1.0000
  O   O2        1.0  0.59619  0.12308  0.21788  1.0000
  O   O3        1.0  0.09609  0.71848  0.87649  1.0000
  O   O4        1.0  0.09609  0.78152  0.62352  1.0000
  O   O5        1.0  0.40381  0.62308  0.71789  1.0000
  O   O6        1.0  0.40381  0.87692  0.78211  1.0000
  O   O7        1.0  0.90392  0.28151  0.12352  1.0000
  O   O8        1.0  0.90391  0.21848  0.37649  1.0000
