data_image0
_chemical_formula_structural       Li4H36C24O16
_chemical_formula_sum              "Li4 H36 C24 O16"
_cell_length_a       7.44793
_cell_length_b       8.14726
_cell_length_c       11.4945
_cell_angle_alpha    93.637
_cell_angle_beta     90.0002
_cell_angle_gamma    89.9997

_space_group_name_H-M_alt    "P 1"
_space_group_IT_number       1

loop_
  _space_group_symop_operation_xyz
  'x, y, z'

loop_
  _atom_site_type_symbol
  _atom_site_label
  _atom_site_symmetry_multiplicity
  _atom_site_fract_x
  _atom_site_fract_y
  _atom_site_fract_z
  _atom_site_occupancy
  Li  Li1       1.0  0.01549  0.05374  0.88808  1.0000
  Li  Li2       1.0  0.51548  0.94627  0.61192  1.0000
  Li  Li3       1.0  0.98452  0.94626  0.11192  1.0000
  Li  Li4       1.0  0.48452  0.05373  0.38808  1.0000
  H   H1        1.0  0.79774  0.76108  0.93040  1.0000
  H   H2        1.0  0.29774  0.23892  0.56960  1.0000
  H   H3        1.0  0.20226  0.23892  0.06960  1.0000
  H   H4        1.0  0.70226  0.76107  0.43040  1.0000
  H   H5        1.0  0.96269  0.66837  0.83998  1.0000
  H   H6        1.0  0.46269  0.33163  0.66002  1.0000
  H   H7        1.0  0.03731  0.33163  0.16002  1.0000
  H   H8        1.0  0.53731  0.66837  0.33998  1.0000
  H   H9        1.0  0.56383  0.57079  0.83921  1.0000
  H   H10       1.0  0.06383  0.42922  0.66079  1.0000
  H   H11       1.0  0.43617  0.42921  0.16079  1.0000
  H   H12       1.0  0.93617  0.57078  0.33921  1.0000
  H   H13       1.0  0.72878  0.47460  0.74878  1.0000
  H   H14       1.0  0.22878  0.52541  0.75123  1.0000
  H   H15       1.0  0.27122  0.52540  0.25123  1.0000
  H   H16       1.0  0.77122  0.47459  0.24877  1.0000
  H   H17       1.0  0.74409  0.49342  0.01655  1.0000
  H   H18       1.0  0.24409  0.50658  0.48345  1.0000
  H   H19       1.0  0.25591  0.50658  0.98345  1.0000
  H   H20       1.0  0.75591  0.49342  0.51655  1.0000
  H   H21       1.0  0.89875  0.38968  0.92163  1.0000
  H   H22       1.0  0.39875  0.61032  0.57837  1.0000
  H   H23       1.0  0.10125  0.61032  0.07837  1.0000
  H   H24       1.0  0.60124  0.38968  0.42163  1.0000
  H   H25       1.0  0.49678  0.30204  0.93837  1.0000
  H   H26       1.0  0.99678  0.69796  0.56163  1.0000
  H   H27       1.0  0.50322  0.69796  0.06163  1.0000
  H   H28       1.0  0.00322  0.30203  0.43837  1.0000
  H   H29       1.0  0.65566  0.20123  0.84296  1.0000
  H   H30       1.0  0.15566  0.79877  0.65704  1.0000
  H   H31       1.0  0.34434  0.79877  0.15704  1.0000
  H   H32       1.0  0.84434  0.20123  0.34296  1.0000
  H   H33       1.0  0.61906  0.05216  0.16653  1.0000
  H   H34       1.0  0.11905  0.94784  0.33347  1.0000
  H   H35       1.0  0.38095  0.94783  0.83347  1.0000
  H   H36       1.0  0.88095  0.05216  0.66653  1.0000
  C   C1        1.0  0.77831  0.81784  0.75316  1.0000
  C   C2        1.0  0.27830  0.18217  0.74684  1.0000
  C   C3        1.0  0.22170  0.18216  0.24684  1.0000
  C   C4        1.0  0.72169  0.81783  0.25316  1.0000
  C   C5        1.0  0.81794  0.69640  0.84431  1.0000
  C   C6        1.0  0.31794  0.30360  0.65569  1.0000
  C   C7        1.0  0.18206  0.30360  0.15569  1.0000
  C   C8        1.0  0.68206  0.69639  0.34431  1.0000
  C   C9        1.0  0.70734  0.53895  0.83478  1.0000
  C   C10       1.0  0.20734  0.46105  0.66522  1.0000
  C   C11       1.0  0.29266  0.46105  0.16522  1.0000
  C   C12       1.0  0.79266  0.53895  0.33478  1.0000
  C   C13       1.0  0.75680  0.42575  0.93078  1.0000
  C   C14       1.0  0.25680  0.57425  0.56922  1.0000
  C   C15       1.0  0.24320  0.57425  0.06922  1.0000
  C   C16       1.0  0.74320  0.42575  0.43078  1.0000
  C   C17       1.0  0.63925  0.27059  0.92767  1.0000
  C   C18       1.0  0.13925  0.72941  0.57232  1.0000
  C   C19       1.0  0.36075  0.72941  0.07232  1.0000
  C   C20       1.0  0.86075  0.27059  0.42768  1.0000
  C   C21       1.0  0.69481  0.15840  0.02020  1.0000
  C   C22       1.0  0.19481  0.84159  0.47979  1.0000
  C   C23       1.0  0.30519  0.84159  0.97980  1.0000
  C   C24       1.0  0.80519  0.15841  0.52021  1.0000
  O   O1        1.0  0.86661  0.95579  0.76375  1.0000
  O   O2        1.0  0.36661  0.04421  0.73625  1.0000
  O   O3        1.0  0.13339  0.04421  0.23625  1.0000
  O   O4        1.0  0.63339  0.95579  0.26375  1.0000
  O   O5        1.0  0.66747  0.78433  0.67287  1.0000
  O   O6        1.0  0.16747  0.21567  0.82713  1.0000
  O   O7        1.0  0.33253  0.21567  0.32713  1.0000
  O   O8        1.0  0.83252  0.78432  0.17287  1.0000
  O   O9        1.0  0.57592  0.13325  0.10030  1.0000
  O   O10       1.0  0.07592  0.86675  0.39970  1.0000
  O   O11       1.0  0.42408  0.86675  0.89970  1.0000
  O   O12       1.0  0.92408  0.13325  0.60030  1.0000
  O   O13       1.0  0.84951  0.09723  0.01978  1.0000
  O   O14       1.0  0.34951  0.90278  0.48022  1.0000
  O   O15       1.0  0.15049  0.90277  0.98022  1.0000
  O   O16       1.0  0.65049  0.09723  0.51978  1.0000
