data_image0
_chemical_formula_structural       Fe4P4H20C8O24
_chemical_formula_sum              "Fe4 P4 H20 C8 O24"
_cell_length_a       4.85436
_cell_length_b       8.0183
_cell_length_c       16.9075
_cell_angle_alpha    90
_cell_angle_beta     90.0001
_cell_angle_gamma    108.197

_space_group_name_H-M_alt    "P 1"
_space_group_IT_number       1

loop_
  _space_group_symop_operation_xyz
  'x, y, z'

loop_
  _atom_site_type_symbol
  _atom_site_label
  _atom_site_symmetry_multiplicity
  _atom_site_fract_x
  _atom_site_fract_y
  _atom_site_fract_z
  _atom_site_occupancy
  Fe  Fe1       1.0  0.94230  0.07273  0.83918  1.0000
  Fe  Fe2       1.0  0.55770  0.42728  0.33918  1.0000
  Fe  Fe3       1.0  0.05769  0.92727  0.16082  1.0000
  Fe  Fe4       1.0  0.44230  0.57273  0.66082  1.0000
  P   P1        1.0  0.59405  0.36103  0.82208  1.0000
  P   P2        1.0  0.90595  0.13897  0.32208  1.0000
  P   P3        1.0  0.40595  0.63897  0.17792  1.0000
  P   P4        1.0  0.09404  0.86103  0.67792  1.0000
  H   H1        1.0  0.70500  0.59527  0.91504  1.0000
  H   H2        1.0  0.79500  0.90473  0.41504  1.0000
  H   H3        1.0  0.29500  0.40473  0.08496  1.0000
  H   H4        1.0  0.20500  0.09527  0.58496  1.0000
  H   H5        1.0  0.02488  0.57050  0.87108  1.0000
  H   H6        1.0  0.47512  0.92950  0.37109  1.0000
  H   H7        1.0  0.97512  0.42950  0.12892  1.0000
  H   H8        1.0  0.52488  0.07050  0.62892  1.0000
  H   H9        1.0  0.83749  0.41891  0.94597  1.0000
  H   H10       1.0  0.66250  0.08109  0.44597  1.0000
  H   H11       1.0  0.16250  0.58109  0.05403  1.0000
  H   H12       1.0  0.33749  0.91891  0.55403  1.0000
  H   H13       1.0  0.40866  0.87674  0.87653  1.0000
  H   H14       1.0  0.09133  0.62326  0.37653  1.0000
  H   H15       1.0  0.59133  0.12326  0.12347  1.0000
  H   H16       1.0  0.90866  0.37674  0.62347  1.0000
  H   H17       1.0  0.47042  0.81223  0.79193  1.0000
  H   H18       1.0  0.02958  0.68778  0.29193  1.0000
  H   H19       1.0  0.52957  0.18777  0.20807  1.0000
  H   H20       1.0  0.97042  0.31223  0.70807  1.0000
  C   C1        1.0  0.81200  0.50017  0.89613  1.0000
  C   C2        1.0  0.68800  0.99983  0.39613  1.0000
  C   C3        1.0  0.18800  0.49983  0.10387  1.0000
  C   C4        1.0  0.31199  0.00017  0.60387  1.0000
  C   C5        1.0  0.09690  0.94361  0.98957  1.0000
  C   C6        1.0  0.40312  0.55639  0.48957  1.0000
  C   C7        1.0  0.90311  0.05639  0.01043  1.0000
  C   C8        1.0  0.59690  0.44361  0.51043  1.0000
  O   O1        1.0  0.30043  0.26300  0.85976  1.0000
  O   O2        1.0  0.19957  0.23700  0.35976  1.0000
  O   O3        1.0  0.69957  0.73700  0.14024  1.0000
  O   O4        1.0  0.80043  0.76300  0.64024  1.0000
  O   O5        1.0  0.56019  0.47976  0.75315  1.0000
  O   O6        1.0  0.93981  0.02022  0.25315  1.0000
  O   O7        1.0  0.43981  0.52023  0.24685  1.0000
  O   O8        1.0  0.06019  0.97977  0.74685  1.0000
  O   O9        1.0  0.75217  0.23252  0.79004  1.0000
  O   O10       1.0  0.74783  0.26748  0.29004  1.0000
  O   O11       1.0  0.24783  0.76748  0.20996  1.0000
  O   O12       1.0  0.25217  0.73252  0.70996  1.0000
  O   O13       1.0  0.12766  0.92009  0.91638  1.0000
  O   O14       1.0  0.37235  0.57990  0.41637  1.0000
  O   O15       1.0  0.87235  0.07990  0.08363  1.0000
  O   O16       1.0  0.62766  0.42009  0.58362  1.0000
  O   O17       1.0  0.20737  0.88345  0.04583  1.0000
  O   O18       1.0  0.29265  0.61654  0.54583  1.0000
  O   O19       1.0  0.79265  0.11654  0.95417  1.0000
  O   O20       1.0  0.70738  0.38346  0.45417  1.0000
  O   O21       1.0  0.56518  0.85542  0.84354  1.0000
  O   O22       1.0  0.93482  0.64459  0.34354  1.0000
  O   O23       1.0  0.43482  0.14459  0.15646  1.0000
  O   O24       1.0  0.06517  0.35542  0.65646  1.0000
