data_image0
_chemical_formula_structural       Cu2P4H36C36N4O12
_chemical_formula_sum              "Cu2 P4 H36 C36 N4 O12"
_cell_length_a       9.75944
_cell_length_b       10.6834
_cell_length_c       11.2027
_cell_angle_alpha    62.7309
_cell_angle_beta     89.3236
_cell_angle_gamma    69.0041

_space_group_name_H-M_alt    "P 1"
_space_group_IT_number       1

loop_
  _space_group_symop_operation_xyz
  'x, y, z'

loop_
  _atom_site_type_symbol
  _atom_site_label
  _atom_site_symmetry_multiplicity
  _atom_site_fract_x
  _atom_site_fract_y
  _atom_site_fract_z
  _atom_site_occupancy
  Cu  Cu1       1.0  0.14831  0.11780  0.02361  1.0000
  Cu  Cu2       1.0  0.85169  0.88220  0.97639  1.0000
  P   P1        1.0  0.83695  0.22323  0.82481  1.0000
  P   P2        1.0  0.16305  0.77677  0.17519  1.0000
  P   P3        1.0  0.24140  0.00231  0.79679  1.0000
  P   P4        1.0  0.75860  0.99769  0.20321  1.0000
  H   H1        1.0  0.16439  0.81947  0.92677  1.0000
  H   H2        1.0  0.83562  0.18052  0.07323  1.0000
  H   H3        1.0  0.98792  0.24475  0.67752  1.0000
  H   H4        1.0  0.01208  0.75525  0.32248  1.0000
  H   H5        1.0  0.09931  0.00108  0.31454  1.0000
  H   H6        1.0  0.90069  0.99892  0.68546  1.0000
  H   H7        1.0  0.10303  0.08727  0.49277  1.0000
  H   H8        1.0  0.89697  0.91272  0.50723  1.0000
  H   H9        1.0  0.14294  0.32531  0.42522  1.0000
  H   H10       1.0  0.85706  0.67469  0.57478  1.0000
  H   H11       1.0  0.17881  0.47425  0.18608  1.0000
  H   H12       1.0  0.82119  0.52575  0.81392  1.0000
  H   H13       1.0  0.21859  0.57577  0.98225  1.0000
  H   H14       1.0  0.78141  0.42423  0.01776  1.0000
  H   H15       1.0  0.24832  0.68368  0.74012  1.0000
  H   H16       1.0  0.75168  0.31632  0.25988  1.0000
  H   H17       1.0  0.22914  0.54657  0.60981  1.0000
  H   H18       1.0  0.77086  0.45343  0.39019  1.0000
  H   H19       1.0  0.19088  0.30231  0.73491  1.0000
  H   H20       1.0  0.80912  0.69768  0.26509  1.0000
  H   H21       1.0  0.50219  0.85068  0.85112  1.0000
  H   H22       1.0  0.49781  0.14933  0.14888  1.0000
  H   H23       1.0  0.42306  0.89702  0.68691  1.0000
  H   H24       1.0  0.57694  0.10298  0.31309  1.0000
  H   H25       1.0  0.43169  0.10720  0.48679  1.0000
  H   H26       1.0  0.56831  0.89280  0.51321  1.0000
  H   H27       1.0  0.52452  0.31441  0.37560  1.0000
  H   H28       1.0  0.47548  0.68559  0.62440  1.0000
  H   H29       1.0  0.61912  0.40303  0.51590  1.0000
  H   H30       1.0  0.38088  0.59696  0.48410  1.0000
  H   H31       1.0  0.52866  0.07593  0.87541  1.0000
  H   H32       1.0  0.47134  0.92407  0.12459  1.0000
  H   H33       1.0  0.59593  0.42781  0.73370  1.0000
  H   H34       1.0  0.40407  0.57219  0.26630  1.0000
  H   H35       1.0  0.59755  0.26609  0.88617  1.0000
  H   H36       1.0  0.40245  0.73391  0.11383  1.0000
  C   C1        1.0  0.11883  0.10284  0.29373  1.0000
  C   C2        1.0  0.88117  0.89716  0.70627  1.0000
  C   C3        1.0  0.11997  0.15150  0.38952  1.0000
  C   C4        1.0  0.88003  0.84850  0.61048  1.0000
  C   C5        1.0  0.14272  0.28558  0.35142  1.0000
  C   C6        1.0  0.85728  0.71442  0.64859  1.0000
  C   C7        1.0  0.16517  0.36680  0.21929  1.0000
  C   C8        1.0  0.83482  0.63320  0.78071  1.0000
  C   C9        1.0  0.16530  0.31011  0.12881  1.0000
  C   C10       1.0  0.83469  0.68989  0.87119  1.0000
  C   C11       1.0  0.18954  0.38227  0.98716  1.0000
  C   C12       1.0  0.81046  0.61773  0.01284  1.0000
  C   C13       1.0  0.21559  0.51663  0.92549  1.0000
  C   C14       1.0  0.78441  0.48337  0.07451  1.0000
  C   C15       1.0  0.23193  0.57671  0.78900  1.0000
  C   C16       1.0  0.76807  0.42329  0.21100  1.0000
  C   C17       1.0  0.22192  0.50138  0.71765  1.0000
  C   C18       1.0  0.77808  0.49862  0.28235  1.0000
  C   C19       1.0  0.19871  0.36614  0.78569  1.0000
  C   C20       1.0  0.80129  0.63386  0.21431  1.0000
  C   C21       1.0  0.42696  0.94476  0.75472  1.0000
  C   C22       1.0  0.57304  0.05525  0.24528  1.0000
  C   C23       1.0  0.47849  0.07394  0.68892  1.0000
  C   C24       1.0  0.52151  0.92607  0.31108  1.0000
  C   C25       1.0  0.47505  0.14460  0.54780  1.0000
  C   C26       1.0  0.52495  0.85541  0.45219  1.0000
  C   C27       1.0  0.52591  0.26202  0.48550  1.0000
  C   C28       1.0  0.47410  0.73798  0.51451  1.0000
  C   C29       1.0  0.57814  0.31225  0.56321  1.0000
  C   C30       1.0  0.42186  0.68776  0.43679  1.0000
  C   C31       1.0  0.57697  0.24773  0.70374  1.0000
  C   C32       1.0  0.42303  0.75228  0.29626  1.0000
  C   C33       1.0  0.52814  0.12782  0.76565  1.0000
  C   C34       1.0  0.47186  0.87218  0.23435  1.0000
  C   C35       1.0  0.63385  0.30223  0.78697  1.0000
  C   C36       1.0  0.36616  0.69777  0.21303  1.0000
  N   N1        1.0  0.14146  0.18057  0.16717  1.0000
  N   N2        1.0  0.85854  0.81943  0.83283  1.0000
  N   N3        1.0  0.18349  0.30856  0.91704  1.0000
  N   N4        1.0  0.81651  0.69144  0.08296  1.0000
  O   O1        1.0  0.88338  0.25458  0.93533  1.0000
  O   O2        1.0  0.11662  0.74541  0.06467  1.0000
  O   O3        1.0  0.89991  0.05514  0.85824  1.0000
  O   O4        1.0  0.10009  0.94486  0.14176  1.0000
  O   O5        1.0  0.26134  0.02047  0.92265  1.0000
  O   O6        1.0  0.73865  0.97954  0.07734  1.0000
  O   O7        1.0  0.13475  0.14389  0.67104  1.0000
  O   O8        1.0  0.86525  0.85611  0.32896  1.0000
  O   O9        1.0  0.20544  0.85570  0.83690  1.0000
  O   O10       1.0  0.79457  0.14430  0.16309  1.0000
  O   O11       1.0  0.88560  0.31531  0.68669  1.0000
  O   O12       1.0  0.11441  0.68469  0.31331  1.0000
