data_image0
_chemical_formula_structural       Cu2P4H36C36N4O12
_chemical_formula_sum              "Cu2 P4 H36 C36 N4 O12"
_cell_length_a       9.92409
_cell_length_b       9.86616
_cell_length_c       11.2885
_cell_angle_alpha    109.692
_cell_angle_beta     108.527
_cell_angle_gamma    91.0968

_space_group_name_H-M_alt    "P 1"
_space_group_IT_number       1

loop_
  _space_group_symop_operation_xyz
  'x, y, z'

loop_
  _atom_site_type_symbol
  _atom_site_label
  _atom_site_symmetry_multiplicity
  _atom_site_fract_x
  _atom_site_fract_y
  _atom_site_fract_z
  _atom_site_occupancy
  Cu  Cu1       1.0  0.24925  0.13039  0.04317  1.0000
  Cu  Cu2       1.0  0.75075  0.86960  0.95683  1.0000
  P   P1        1.0  0.31879  0.41608  0.35081  1.0000
  P   P2        1.0  0.68122  0.58392  0.64919  1.0000
  P   P3        1.0  0.06570  0.98652  0.16599  1.0000
  P   P4        1.0  0.93430  0.01347  0.83400  1.0000
  H   H1        1.0  0.09784  0.22242  0.21704  1.0000
  H   H2        1.0  0.90216  0.77758  0.78296  1.0000
  H   H3        1.0  0.52515  0.55383  0.41304  1.0000
  H   H4        1.0  0.47486  0.44617  0.58695  1.0000
  H   H5        1.0  0.18347  0.28886  0.84989  1.0000
  H   H6        1.0  0.81653  0.71115  0.15011  1.0000
  H   H7        1.0  0.32966  0.39713  0.74702  1.0000
  H   H8        1.0  0.67033  0.60288  0.25299  1.0000
  H   H9        1.0  0.59352  0.39637  0.82191  1.0000
  H   H10       1.0  0.40647  0.60363  0.17809  1.0000
  H   H11       1.0  0.70585  0.28386  0.99449  1.0000
  H   H12       1.0  0.29414  0.71614  0.00551  1.0000
  H   H13       1.0  0.78255  0.19222  0.14690  1.0000
  H   H14       1.0  0.21745  0.80778  0.85310  1.0000
  H   H15       1.0  0.84496  0.08686  0.32294  1.0000
  H   H16       1.0  0.15504  0.91314  0.67705  1.0000
  H   H17       1.0  0.64850  0.99651  0.38609  1.0000
  H   H18       1.0  0.35150  0.00350  0.61391  1.0000
  H   H19       1.0  0.39295  0.01561  0.26211  1.0000
  H   H20       1.0  0.60705  0.98439  0.73789  1.0000
  H   H21       1.0  0.20085  0.85283  0.29575  1.0000
  H   H22       1.0  0.79915  0.14717  0.70426  1.0000
  H   H23       1.0  0.26164  0.04451  0.36928  1.0000
  H   H24       1.0  0.73835  0.95549  0.63072  1.0000
  H   H25       1.0  0.99846  0.75358  0.34332  1.0000
  H   H26       1.0  0.00153  0.24642  0.65668  1.0000
  H   H27       1.0  0.85282  0.78702  0.49067  1.0000
  H   H28       1.0  0.14718  0.21298  0.50934  1.0000
  H   H29       1.0  0.31468  0.65529  0.49729  1.0000
  H   H30       1.0  0.68533  0.34471  0.50271  1.0000
  H   H31       1.0  0.19113  0.61476  0.33218  1.0000
  H   H32       1.0  0.80888  0.38524  0.66782  1.0000
  H   H33       1.0  0.25194  0.56420  0.65566  1.0000
  H   H34       1.0  0.74807  0.43579  0.34434  1.0000
  H   H35       1.0  0.05691  0.50656  0.73277  1.0000
  H   H36       1.0  0.94310  0.49344  0.26723  1.0000
  C   C1        1.0  0.29960  0.29401  0.87924  1.0000
  C   C2        1.0  0.70040  0.70599  0.12077  1.0000
  C   C3        1.0  0.38131  0.35245  0.82338  1.0000
  C   C4        1.0  0.61869  0.64755  0.17662  1.0000
  C   C5        1.0  0.52927  0.35038  0.86525  1.0000
  C   C6        1.0  0.47073  0.64962  0.13475  1.0000
  C   C7        1.0  0.59118  0.29049  0.96197  1.0000
  C   C8        1.0  0.40882  0.70951  0.03803  1.0000
  C   C9        1.0  0.50310  0.23428  0.01448  1.0000
  C   C10       1.0  0.49689  0.76573  0.98552  1.0000
  C   C11       1.0  0.55439  0.16796  0.11624  1.0000
  C   C12       1.0  0.44561  0.83204  0.88376  1.0000
  C   C13       1.0  0.69780  0.15593  0.17584  1.0000
  C   C14       1.0  0.30220  0.84407  0.82416  1.0000
  C   C15       1.0  0.73322  0.09498  0.27482  1.0000
  C   C16       1.0  0.26678  0.90502  0.72518  1.0000
  C   C17       1.0  0.62472  0.04570  0.31008  1.0000
  C   C18       1.0  0.37528  0.95430  0.68992  1.0000
  C   C19       1.0  0.48327  0.05691  0.24346  1.0000
  C   C20       1.0  0.51673  0.94309  0.75654  1.0000
  C   C21       1.0  0.16626  0.96097  0.32251  1.0000
  C   C22       1.0  0.83373  0.03903  0.67749  1.0000
  C   C23       1.0  0.08306  0.98035  0.41571  1.0000
  C   C24       1.0  0.91694  0.01965  0.58429  1.0000
  C   C25       1.0  0.99831  0.86232  0.41133  1.0000
  C   C26       1.0  0.00168  0.13768  0.58867  1.0000
  C   C27       1.0  0.91614  0.88081  0.49393  1.0000
  C   C28       1.0  0.08386  0.11919  0.50607  1.0000
  C   C29       1.0  0.23059  0.57235  0.41356  1.0000
  C   C30       1.0  0.76942  0.42766  0.58644  1.0000
  C   C31       1.0  0.11135  0.53537  0.45720  1.0000
  C   C32       1.0  0.88866  0.46463  0.54280  1.0000
  C   C33       1.0  0.14093  0.53598  0.58734  1.0000
  C   C34       1.0  0.85908  0.46402  0.41266  1.0000
  C   C35       1.0  0.03158  0.50250  0.62990  1.0000
  C   C36       1.0  0.96843  0.49750  0.37011  1.0000
  N   N1        1.0  0.35941  0.23629  0.97196  1.0000
  N   N2        1.0  0.64058  0.76371  0.02804  1.0000
  N   N3        1.0  0.44946  0.11636  0.14935  1.0000
  N   N4        1.0  0.55054  0.88363  0.85065  1.0000
  O   O1        1.0  0.93208  0.87182  0.09587  1.0000
  O   O2        1.0  0.06792  0.12818  0.90413  1.0000
  O   O3        1.0  0.17014  0.97693  0.08922  1.0000
  O   O4        1.0  0.82986  0.02305  0.91077  1.0000
  O   O5        1.0  0.21354  0.31551  0.21509  1.0000
  O   O6        1.0  0.78646  0.68449  0.78491  1.0000
  O   O7        1.0  0.02105  0.14319  0.21042  1.0000
  O   O8        1.0  0.97895  0.85680  0.78957  1.0000
  O   O9        1.0  0.44802  0.48275  0.32321  1.0000
  O   O10       1.0  0.55198  0.51725  0.67678  1.0000
  O   O11       1.0  0.37160  0.34832  0.45742  1.0000
  O   O12       1.0  0.62841  0.65168  0.54258  1.0000
