data_image0
_chemical_formula_structural       Cu2P2H28C32N4O8
_chemical_formula_sum              "Cu2 P2 H28 C32 N4 O8"
_cell_length_a       6.65885
_cell_length_b       11.5049
_cell_length_c       11.6519
_cell_angle_alpha    114.094
_cell_angle_beta     86.9063
_cell_angle_gamma    100.453

_space_group_name_H-M_alt    "P 1"
_space_group_IT_number       1

loop_
  _space_group_symop_operation_xyz
  'x, y, z'

loop_
  _atom_site_type_symbol
  _atom_site_label
  _atom_site_symmetry_multiplicity
  _atom_site_fract_x
  _atom_site_fract_y
  _atom_site_fract_z
  _atom_site_occupancy
  Cu  Cu1       1.0  0.69359  0.82511  0.99628  1.0000
  Cu  Cu2       1.0  0.30641  0.17490  0.00372  1.0000
  P   P1        1.0  0.47207  0.04427  0.17376  1.0000
  P   P2        1.0  0.52793  0.95573  0.82624  1.0000
  H   H1        1.0  0.09872  0.90335  0.90445  1.0000
  H   H2        1.0  0.90128  0.09666  0.09554  1.0000
  H   H3        1.0  0.12342  0.88724  0.02803  1.0000
  H   H4        1.0  0.87658  0.11276  0.97197  1.0000
  H   H5        1.0  0.60291  0.66004  0.71046  1.0000
  H   H6        1.0  0.39710  0.33997  0.28955  1.0000
  H   H7        1.0  0.59396  0.42316  0.56752  1.0000
  H   H8        1.0  0.40604  0.57684  0.43248  1.0000
  H   H9        1.0  0.65117  0.27149  0.66236  1.0000
  H   H10       1.0  0.34883  0.72852  0.33764  1.0000
  H   H11       1.0  0.72487  0.24043  0.86337  1.0000
  H   H12       1.0  0.27512  0.75957  0.13663  1.0000
  H   H13       1.0  0.80508  0.33806  0.08777  1.0000
  H   H14       1.0  0.19491  0.66194  0.91223  1.0000
  H   H15       1.0  0.86884  0.54490  0.29558  1.0000
  H   H16       1.0  0.13115  0.45510  0.70443  1.0000
  H   H17       1.0  0.88328  0.78555  0.40327  1.0000
  H   H18       1.0  0.11673  0.21445  0.59673  1.0000
  H   H19       1.0  0.81070  0.90650  0.27653  1.0000
  H   H20       1.0  0.18931  0.09350  0.72346  1.0000
  H   H21       1.0  0.64079  0.21683  0.35991  1.0000
  H   H22       1.0  0.35921  0.78317  0.64009  1.0000
  H   H23       1.0  0.36870  0.19636  0.36740  1.0000
  H   H24       1.0  0.63130  0.80364  0.63260  1.0000
  H   H25       1.0  0.82293  0.12738  0.46715  1.0000
  H   H26       1.0  0.17706  0.87261  0.53285  1.0000
  H   H27       1.0  0.82161  0.00676  0.60281  1.0000
  H   H28       1.0  0.17839  0.99324  0.39720  1.0000
  C   C1        1.0  0.63501  0.59045  0.74529  1.0000
  C   C2        1.0  0.36500  0.40955  0.25472  1.0000
  C   C3        1.0  0.62861  0.45865  0.66776  1.0000
  C   C4        1.0  0.37139  0.54136  0.33224  1.0000
  C   C5        1.0  0.66034  0.37452  0.72003  1.0000
  C   C6        1.0  0.33965  0.62547  0.27997  1.0000
  C   C7        1.0  0.70157  0.42284  0.85048  1.0000
  C   C8        1.0  0.29842  0.57716  0.14952  1.0000
  C   C9        1.0  0.73469  0.34511  0.91503  1.0000
  C   C10       1.0  0.26530  0.65489  0.08497  1.0000
  C   C11       1.0  0.77887  0.39990  0.04152  1.0000
  C   C12       1.0  0.22112  0.60010  0.95848  1.0000
  C   C13       1.0  0.79209  0.53634  0.11365  1.0000
  C   C14       1.0  0.20790  0.46366  0.88635  1.0000
  C   C15       1.0  0.83947  0.60065  0.24367  1.0000
  C   C16       1.0  0.16052  0.39935  0.75632  1.0000
  C   C17       1.0  0.84897  0.73327  0.30291  1.0000
  C   C18       1.0  0.15103  0.26673  0.69709  1.0000
  C   C19       1.0  0.80913  0.80264  0.23384  1.0000
  C   C20       1.0  0.19087  0.19736  0.76616  1.0000
  C   C21       1.0  0.75632  0.61459  0.05198  1.0000
  C   C22       1.0  0.24367  0.38541  0.94803  1.0000
  C   C23       1.0  0.71080  0.55754  0.92000  1.0000
  C   C24       1.0  0.28919  0.44246  0.08000  1.0000
  C   C25       1.0  0.49985  0.14519  0.34497  1.0000
  C   C26       1.0  0.50016  0.85481  0.65504  1.0000
  C   C27       1.0  0.50007  0.07118  0.42471  1.0000
  C   C28       1.0  0.49994  0.92881  0.57529  1.0000
  C   C29       1.0  0.68048  0.07123  0.48167  1.0000
  C   C30       1.0  0.31953  0.92876  0.51833  1.0000
  C   C31       1.0  0.68090  0.00216  0.55603  1.0000
  C   C32       1.0  0.31910  0.99784  0.44397  1.0000
  N   N1        1.0  0.67589  0.63813  0.86800  1.0000
  N   N2        1.0  0.32410  0.36187  0.13200  1.0000
  N   N3        1.0  0.76286  0.74414  0.11154  1.0000
  N   N4        1.0  0.23715  0.25586  0.88847  1.0000
  O   O1        1.0  0.46819  0.14607  0.11967  1.0000
  O   O2        1.0  0.53182  0.85393  0.88032  1.0000
  O   O3        1.0  0.03269  0.85236  0.95079  1.0000
  O   O4        1.0  0.96731  0.14764  0.04920  1.0000
  O   O5        1.0  0.67596  0.98924  0.14070  1.0000
  O   O6        1.0  0.32404  0.01076  0.85930  1.0000
  O   O7        1.0  0.28026  0.94351  0.15253  1.0000
  O   O8        1.0  0.71975  0.05649  0.84746  1.0000
