data_image0
_chemical_formula_structural       Cu2P4H36C40N4O12
_chemical_formula_sum              "Cu2 P4 H36 C40 N4 O12"
_cell_length_a       9.7233
_cell_length_b       11.2964
_cell_length_c       11.2827
_cell_angle_alpha    116.234
_cell_angle_beta     111.633
_cell_angle_gamma    92.9641

_space_group_name_H-M_alt    "P 1"
_space_group_IT_number       1

loop_
  _space_group_symop_operation_xyz
  'x, y, z'

loop_
  _atom_site_type_symbol
  _atom_site_label
  _atom_site_symmetry_multiplicity
  _atom_site_fract_x
  _atom_site_fract_y
  _atom_site_fract_z
  _atom_site_occupancy
  Cu  Cu1       1.0  0.63569  0.87462  0.88771  1.0000
  Cu  Cu2       1.0  0.36430  0.12538  0.11229  1.0000
  P   P1        1.0  0.67194  0.02337  0.21396  1.0000
  P   P2        1.0  0.32806  0.97663  0.78604  1.0000
  P   P3        1.0  0.25450  0.79931  0.00645  1.0000
  P   P4        1.0  0.74550  0.20069  0.99355  1.0000
  H   H1        1.0  0.51734  0.89610  0.23696  1.0000
  H   H2        1.0  0.48266  0.10390  0.76304  1.0000
  H   H3        1.0  0.32134  0.76668  0.82943  1.0000
  H   H4        1.0  0.67866  0.23332  0.17056  1.0000
  H   H5        1.0  0.66889  0.98821  0.69023  1.0000
  H   H6        1.0  0.33111  0.01179  0.30977  1.0000
  H   H7        1.0  0.71354  0.88788  0.46441  1.0000
  H   H8        1.0  0.28646  0.11212  0.53560  1.0000
  H   H9        1.0  0.75289  0.65125  0.36594  1.0000
  H   H10       1.0  0.24712  0.34875  0.63406  1.0000
  H   H11       1.0  0.75543  0.43213  0.38607  1.0000
  H   H12       1.0  0.24457  0.56787  0.61393  1.0000
  H   H13       1.0  0.71406  0.30564  0.50470  1.0000
  H   H14       1.0  0.28594  0.69436  0.49530  1.0000
  H   H15       1.0  0.65504  0.30462  0.71411  1.0000
  H   H16       1.0  0.34496  0.69538  0.28589  1.0000
  H   H17       1.0  0.59513  0.43135  0.92216  1.0000
  H   H18       1.0  0.40487  0.56865  0.07784  1.0000
  H   H19       1.0  0.57875  0.67797  0.99865  1.0000
  H   H20       1.0  0.42125  0.32203  0.00135  1.0000
  H   H21       1.0  0.91514  0.12267  0.25131  1.0000
  H   H22       1.0  0.08486  0.87733  0.74869  1.0000
  H   H23       1.0  0.92331  0.12011  0.41051  1.0000
  H   H24       1.0  0.07669  0.87989  0.58949  1.0000
  H   H25       1.0  0.97238  0.94318  0.07391  1.0000
  H   H26       1.0  0.02762  0.05682  0.92609  1.0000
  H   H27       1.0  0.05649  0.58993  0.11496  1.0000
  H   H28       1.0  0.94351  0.41006  0.88504  1.0000
  H   H29       1.0  0.98467  0.67103  0.32198  1.0000
  H   H30       1.0  0.01533  0.32897  0.67802  1.0000
  H   H31       1.0  0.90374  0.88883  0.40340  1.0000
  H   H32       1.0  0.09626  0.11117  0.59659  1.0000
  H   H33       1.0  0.05952  0.60044  0.91033  1.0000
  H   H34       1.0  0.94048  0.39956  0.08967  1.0000
  H   H35       1.0  0.98526  0.72219  0.86406  1.0000
  H   H36       1.0  0.01474  0.27781  0.13593  1.0000
  C   C1        1.0  0.68225  0.88450  0.64238  1.0000
  C   C2        1.0  0.31775  0.11551  0.35763  1.0000
  C   C3        1.0  0.71046  0.82771  0.51728  1.0000
  C   C4        1.0  0.28955  0.17230  0.48272  1.0000
  C   C5        1.0  0.73092  0.69692  0.46277  1.0000
  C   C6        1.0  0.26908  0.30308  0.53723  1.0000
  C   C7        1.0  0.71921  0.62015  0.53093  1.0000
  C   C8        1.0  0.28079  0.37985  0.46907  1.0000
  C   C9        1.0  0.73213  0.48228  0.48162  1.0000
  C   C10       1.0  0.26787  0.51773  0.51838  1.0000
  C   C11       1.0  0.71004  0.41219  0.54875  1.0000
  C   C12       1.0  0.28996  0.58781  0.45125  1.0000
  C   C13       1.0  0.67488  0.47452  0.67203  1.0000
  C   C14       1.0  0.32512  0.52548  0.32797  1.0000
  C   C15       1.0  0.64838  0.40969  0.74672  1.0000
  C   C16       1.0  0.35162  0.59031  0.25327  1.0000
  C   C17       1.0  0.61424  0.48111  0.86404  1.0000
  C   C18       1.0  0.38576  0.51889  0.13596  1.0000
  C   C19       1.0  0.60533  0.61673  0.90749  1.0000
  C   C20       1.0  0.39467  0.38327  0.09250  1.0000
  C   C21       1.0  0.66360  0.61109  0.72346  1.0000
  C   C22       1.0  0.33640  0.38891  0.27654  1.0000
  C   C23       1.0  0.68585  0.68397  0.65315  1.0000
  C   C24       1.0  0.31415  0.31603  0.34685  1.0000
  C   C25       1.0  0.87997  0.05878  0.29066  1.0000
  C   C26       1.0  0.12003  0.94122  0.70934  1.0000
  C   C27       1.0  0.93417  0.93071  0.24502  1.0000
  C   C28       1.0  0.06583  0.06929  0.75498  1.0000
  C   C29       1.0  0.97498  0.88317  0.12818  1.0000
  C   C30       1.0  0.02502  0.11683  0.87182  1.0000
  C   C31       1.0  0.01813  0.76003  0.07950  1.0000
  C   C32       1.0  0.98188  0.23997  0.92050  1.0000
  C   C33       1.0  0.02139  0.68486  0.15092  1.0000
  C   C34       1.0  0.97861  0.31514  0.84908  1.0000
  C   C35       1.0  0.98143  0.73101  0.26755  1.0000
  C   C36       1.0  0.01857  0.26898  0.73245  1.0000
  C   C37       1.0  0.93751  0.85300  0.31400  1.0000
  C   C38       1.0  0.06249  0.14700  0.68600  1.0000
  C   C39       1.0  0.06265  0.70943  0.95484  1.0000
  C   C40       1.0  0.93735  0.29057  0.04516  1.0000
  N   N1        1.0  0.62970  0.67916  0.83826  1.0000
  N   N2        1.0  0.37030  0.32084  0.16174  1.0000
  N   N3        1.0  0.67052  0.81392  0.70802  1.0000
  N   N4        1.0  0.32948  0.18608  0.29198  1.0000
  O   O1        1.0  0.24180  0.93948  0.02182  1.0000
  O   O2        1.0  0.75820  0.06052  0.97818  1.0000
  O   O3        1.0  0.60015  0.90558  0.05519  1.0000
  O   O4        1.0  0.39985  0.09442  0.94482  1.0000
  O   O5        1.0  0.62840  0.15758  0.23772  1.0000
  O   O6        1.0  0.37160  0.84242  0.76228  1.0000
  O   O7        1.0  0.62442  0.96939  0.30493  1.0000
  O   O8        1.0  0.37558  0.03061  0.69507  1.0000
  O   O9        1.0  0.36669  0.79917  0.14253  1.0000
  O   O10       1.0  0.63331  0.20083  0.85746  1.0000
  O   O11       1.0  0.28029  0.70895  0.86516  1.0000
  O   O12       1.0  0.71971  0.29105  0.13484  1.0000
