data_image0
_chemical_formula_structural       Cu4P4H24C16O16
_chemical_formula_sum              "Cu4 P4 H24 C16 O16"
_cell_length_a       7.40525
_cell_length_b       7.50283
_cell_length_c       10.7632
_cell_angle_alpha    90.0003
_cell_angle_beta     92.9193
_cell_angle_gamma    90.0005

_space_group_name_H-M_alt    "P 1"
_space_group_IT_number       1

loop_
  _space_group_symop_operation_xyz
  'x, y, z'

loop_
  _atom_site_type_symbol
  _atom_site_label
  _atom_site_symmetry_multiplicity
  _atom_site_fract_x
  _atom_site_fract_y
  _atom_site_fract_z
  _atom_site_occupancy
  Cu  Cu1       1.0  0.93072  0.68963  0.96422  1.0000
  Cu  Cu2       1.0  0.56927  0.18963  0.03577  1.0000
  Cu  Cu3       1.0  0.06926  0.31036  0.03578  1.0000
  Cu  Cu4       1.0  0.43073  0.81038  0.96423  1.0000
  P   P1        1.0  0.15496  0.95092  0.14571  1.0000
  P   P2        1.0  0.34504  0.45091  0.85429  1.0000
  P   P3        1.0  0.84504  0.04908  0.85429  1.0000
  P   P4        1.0  0.65496  0.54908  0.14570  1.0000
  H   H1        1.0  0.85875  0.43746  0.82817  1.0000
  H   H2        1.0  0.64125  0.93747  0.17183  1.0000
  H   H3        1.0  0.14124  0.56254  0.17183  1.0000
  H   H4        1.0  0.35875  0.06254  0.82817  1.0000
  H   H5        1.0  0.69186  0.57226  0.82203  1.0000
  H   H6        1.0  0.80815  0.07227  0.17797  1.0000
  H   H7        1.0  0.30814  0.42773  0.17797  1.0000
  H   H8        1.0  0.19186  0.92773  0.82204  1.0000
  H   H9        1.0  0.32887  0.82376  0.31568  1.0000
  H   H10       1.0  0.17114  0.32376  0.68432  1.0000
  H   H11       1.0  0.67114  0.17624  0.68431  1.0000
  H   H12       1.0  0.82887  0.67624  0.31568  1.0000
  H   H13       1.0  0.35193  0.05779  0.30559  1.0000
  H   H14       1.0  0.14807  0.55780  0.69440  1.0000
  H   H15       1.0  0.64808  0.94220  0.69441  1.0000
  H   H16       1.0  0.85192  0.44221  0.30559  1.0000
  H   H17       1.0  0.11767  0.69718  0.45840  1.0000
  H   H18       1.0  0.38234  0.19718  0.54160  1.0000
  H   H19       1.0  0.88234  0.30282  0.54160  1.0000
  H   H20       1.0  0.61767  0.80282  0.45840  1.0000
  H   H21       1.0  0.90607  0.74357  0.62748  1.0000
  H   H22       1.0  0.59394  0.24357  0.37251  1.0000
  H   H23       1.0  0.09394  0.25642  0.37251  1.0000
  H   H24       1.0  0.40607  0.75643  0.62748  1.0000
  C   C1        1.0  0.25246  0.94871  0.30412  1.0000
  C   C2        1.0  0.24755  0.44872  0.69588  1.0000
  C   C3        1.0  0.74755  0.05128  0.69588  1.0000
  C   C4        1.0  0.75245  0.55129  0.30412  1.0000
  C   C5        1.0  0.12044  0.97379  0.40393  1.0000
  C   C6        1.0  0.37957  0.47379  0.59608  1.0000
  C   C7        1.0  0.87957  0.02621  0.59608  1.0000
  C   C8        1.0  0.62044  0.52621  0.40393  1.0000
  C   C9        1.0  0.06562  0.83018  0.47624  1.0000
  C   C10       1.0  0.43438  0.33020  0.52376  1.0000
  C   C11       1.0  0.93438  0.16979  0.52376  1.0000
  C   C12       1.0  0.56562  0.66981  0.47624  1.0000
  C   C13       1.0  0.94754  0.85596  0.57138  1.0000
  C   C14       1.0  0.55246  0.35597  0.42863  1.0000
  C   C15       1.0  0.05245  0.14403  0.42863  1.0000
  C   C16       1.0  0.44754  0.64404  0.57138  1.0000
  O   O1        1.0  0.82608  0.56479  0.81029  1.0000
  O   O2        1.0  0.67392  0.06480  0.18971  1.0000
  O   O3        1.0  0.17391  0.43521  0.18972  1.0000
  O   O4        1.0  0.32608  0.93521  0.81029  1.0000
  O   O5        1.0  0.06335  0.76794  0.12111  1.0000
  O   O6        1.0  0.43665  0.26793  0.87889  1.0000
  O   O7        1.0  0.93664  0.23207  0.87889  1.0000
  O   O8        1.0  0.56334  0.73206  0.12111  1.0000
  O   O9        1.0  0.01200  0.10218  0.13433  1.0000
  O   O10       1.0  0.48800  0.60217  0.86567  1.0000
  O   O11       1.0  0.98799  0.89782  0.86567  1.0000
  O   O12       1.0  0.51199  0.39783  0.13434  1.0000
  O   O13       1.0  0.31095  0.99332  0.05999  1.0000
  O   O14       1.0  0.18907  0.49334  0.94001  1.0000
  O   O15       1.0  0.68906  0.00667  0.94001  1.0000
  O   O16       1.0  0.81095  0.50668  0.05999  1.0000
