data_image0
_chemical_formula_structural       Cu6H68C40S4I6N4O4
_chemical_formula_sum              "Cu6 H68 C40 S4 I6 N4 O4"
_cell_length_a       11.0296
_cell_length_b       11.2787
_cell_length_c       12.4099
_cell_angle_alpha    117.405
_cell_angle_beta     104.756
_cell_angle_gamma    89.6846

_space_group_name_H-M_alt    "P 1"
_space_group_IT_number       1

loop_
  _space_group_symop_operation_xyz
  'x, y, z'

loop_
  _atom_site_type_symbol
  _atom_site_label
  _atom_site_symmetry_multiplicity
  _atom_site_fract_x
  _atom_site_fract_y
  _atom_site_fract_z
  _atom_site_occupancy
  Cu  Cu1       1.0  0.58171  0.95702  0.08192  1.0000
  Cu  Cu2       1.0  0.91876  0.87605  0.91813  1.0000
  Cu  Cu3       1.0  0.41828  0.04297  0.91806  1.0000
  Cu  Cu4       1.0  0.08123  0.12395  0.08187  1.0000
  Cu  Cu5       1.0  0.74970  0.01694  0.00041  1.0000
  Cu  Cu6       1.0  0.25031  0.98306  0.99959  1.0000
  H   H1        1.0  0.37750  0.83182  0.14549  1.0000
  H   H2        1.0  0.12283  0.68663  0.85293  1.0000
  H   H3        1.0  0.62250  0.16818  0.85450  1.0000
  H   H4        1.0  0.87716  0.31337  0.14707  1.0000
  H   H5        1.0  0.56092  0.70510  0.10806  1.0000
  H   H6        1.0  0.93921  0.59951  0.89005  1.0000
  H   H7        1.0  0.43908  0.29490  0.89193  1.0000
  H   H8        1.0  0.06079  0.40049  0.10995  1.0000
  H   H9        1.0  0.60018  0.72496  0.26377  1.0000
  H   H10       1.0  0.90037  0.46198  0.73442  1.0000
  H   H11       1.0  0.39982  0.27504  0.73623  1.0000
  H   H12       1.0  0.09963  0.53802  0.26558  1.0000
  H   H13       1.0  0.47975  0.49846  0.10954  1.0000
  H   H14       1.0  0.02069  0.39071  0.88882  1.0000
  H   H15       1.0  0.52024  0.50153  0.89045  1.0000
  H   H16       1.0  0.97931  0.60929  0.11118  1.0000
  H   H17       1.0  0.35505  0.57221  0.05226  1.0000
  H   H18       1.0  0.14503  0.52170  0.94673  1.0000
  H   H19       1.0  0.64495  0.42779  0.94773  1.0000
  H   H20       1.0  0.85498  0.47830  0.05327  1.0000
  H   H21       1.0  0.30130  0.51178  0.20510  1.0000
  H   H22       1.0  0.20006  0.30643  0.79428  1.0000
  H   H23       1.0  0.69869  0.48822  0.79490  1.0000
  H   H24       1.0  0.79994  0.69357  0.20572  1.0000
  H   H25       1.0  0.44357  0.60545  0.32119  1.0000
  H   H26       1.0  0.05800  0.28350  0.67776  1.0000
  H   H27       1.0  0.55643  0.39455  0.67880  1.0000
  H   H28       1.0  0.94200  0.71650  0.32224  1.0000
  H   H29       1.0  0.26718  0.73922  0.36405  1.0000
  H   H30       1.0  0.23458  0.37285  0.63569  1.0000
  H   H31       1.0  0.73282  0.26078  0.63595  1.0000
  H   H32       1.0  0.76542  0.62715  0.36431  1.0000
  H   H33       1.0  0.22420  0.72046  0.20888  1.0000
  H   H34       1.0  0.27633  0.51110  0.79070  1.0000
  H   H35       1.0  0.77580  0.27955  0.79112  1.0000
  H   H36       1.0  0.72367  0.48890  0.20930  1.0000
  H   H37       1.0  0.47304  0.87066  0.41600  1.0000
  H   H38       1.0  0.02781  0.45234  0.58259  1.0000
  H   H39       1.0  0.52696  0.12934  0.58400  1.0000
  H   H40       1.0  0.97219  0.54766  0.41741  1.0000
  H   H41       1.0  0.34551  0.94391  0.36075  1.0000
  H   H42       1.0  0.15483  0.58075  0.63774  1.0000
  H   H43       1.0  0.65449  0.05609  0.63924  1.0000
  H   H44       1.0  0.84517  0.41924  0.36226  1.0000
  H   H45       1.0  0.41936  0.12803  0.24939  1.0000
  H   H46       1.0  0.08016  0.88048  0.75129  1.0000
  H   H47       1.0  0.58064  0.87197  0.75061  1.0000
  H   H48       1.0  0.91984  0.11951  0.24871  1.0000
  H   H49       1.0  0.43707  0.12049  0.39206  1.0000
  H   H50       1.0  0.06409  0.72935  0.60837  1.0000
  H   H51       1.0  0.56293  0.87950  0.60793  1.0000
  H   H52       1.0  0.93590  0.27064  0.39162  1.0000
  H   H53       1.0  0.61679  0.52105  0.40727  1.0000
  H   H54       1.0  0.88253  0.11496  0.59273  1.0000
  H   H55       1.0  0.38321  0.47894  0.59273  1.0000
  H   H56       1.0  0.11747  0.88505  0.40728  1.0000
  H   H57       1.0  0.72200  0.47659  0.51382  1.0000
  H   H58       1.0  0.77789  0.96365  0.48502  1.0000
  H   H59       1.0  0.27800  0.52341  0.48617  1.0000
  H   H60       1.0  0.22211  0.03635  0.51498  1.0000
  H   H61       1.0  0.34709  0.29606  0.38321  1.0000
  H   H62       1.0  0.15299  0.91196  0.61592  1.0000
  H   H63       1.0  0.65291  0.70394  0.61678  1.0000
  H   H64       1.0  0.84701  0.08804  0.38408  1.0000
  H   H65       1.0  0.37960  0.40147  0.31997  1.0000
  H   H66       1.0  0.11990  0.08158  0.68026  1.0000
  H   H67       1.0  0.62040  0.59852  0.68002  1.0000
  H   H68       1.0  0.88010  0.91842  0.31975  1.0000
  C   C1        1.0  0.45303  0.83963  0.22688  1.0000
  C   C2        1.0  0.04734  0.61287  0.77148  1.0000
  C   C3        1.0  0.54697  0.16037  0.77311  1.0000
  C   C4        1.0  0.95265  0.38713  0.22852  1.0000
  C   C5        1.0  0.52067  0.71386  0.18356  1.0000
  C   C6        1.0  0.97971  0.53152  0.81470  1.0000
  C   C7        1.0  0.47933  0.28614  0.81643  1.0000
  C   C8        1.0  0.02029  0.46848  0.18530  1.0000
  C   C9        1.0  0.42946  0.58769  0.13779  1.0000
  C   C10       1.0  0.07106  0.45109  0.86089  1.0000
  C   C11       1.0  0.57053  0.41231  0.86220  1.0000
  C   C12       1.0  0.92894  0.54891  0.13911  1.0000
  C   C13       1.0  0.36940  0.60131  0.24042  1.0000
  C   C14       1.0  0.13183  0.36063  0.75869  1.0000
  C   C15       1.0  0.63060  0.39869  0.75957  1.0000
  C   C16       1.0  0.86817  0.63937  0.24132  1.0000
  C   C17       1.0  0.30506  0.72865  0.28674  1.0000
  C   C18       1.0  0.19599  0.44070  0.71253  1.0000
  C   C19       1.0  0.69494  0.27136  0.71326  1.0000
  C   C20       1.0  0.80401  0.55931  0.28747  1.0000
  C   C21       1.0  0.39634  0.85523  0.33211  1.0000
  C   C22       1.0  0.10426  0.52150  0.66644  1.0000
  C   C23       1.0  0.60366  0.14477  0.66789  1.0000
  C   C24       1.0  0.89574  0.47850  0.33356  1.0000
  C   C25       1.0  0.48913  0.12655  0.32972  1.0000
  C   C26       1.0  0.01116  0.79811  0.67031  1.0000
  C   C27       1.0  0.51087  0.87345  0.67027  1.0000
  C   C28       1.0  0.98885  0.20188  0.32969  1.0000
  C   C29       1.0  0.58678  0.25253  0.40105  1.0000
  C   C30       1.0  0.91336  0.85298  0.59901  1.0000
  C   C31       1.0  0.41322  0.74746  0.59895  1.0000
  C   C32       1.0  0.08665  0.14703  0.40100  1.0000
  C   C33       1.0  0.62488  0.49561  0.48447  1.0000
  C   C34       1.0  0.87500  0.01175  0.51513  1.0000
  C   C35       1.0  0.37512  0.50438  0.51552  1.0000
  C   C36       1.0  0.12500  0.98825  0.48488  1.0000
  C   C37       1.0  0.40530  0.38653  0.40429  1.0000
  C   C38       1.0  0.09454  0.98189  0.59544  1.0000
  C   C39       1.0  0.59470  0.61346  0.59571  1.0000
  C   C40       1.0  0.90546  0.01811  0.40457  1.0000
  S   S1        1.0  0.57176  0.98015  0.27244  1.0000
  S   S2        1.0  0.92856  0.70874  0.72617  1.0000
  S   S3        1.0  0.42824  0.01985  0.72755  1.0000
  S   S4        1.0  0.07144  0.29126  0.27383  1.0000
  I   I1        1.0  0.61784  0.20075  0.10668  1.0000
  I   I2        1.0  0.88020  0.09524  0.89525  1.0000
  I   I3        1.0  0.38216  0.79925  0.89331  1.0000
  I   I4        1.0  0.11980  0.90476  0.10474  1.0000
  I   I5        1.0  0.75141  0.79074  0.00020  1.0000
  I   I6        1.0  0.24860  0.20926  0.99980  1.0000
  N   N1        1.0  0.53976  0.37224  0.43565  1.0000
  N   N2        1.0  0.96014  0.93666  0.56368  1.0000
  N   N3        1.0  0.46023  0.62775  0.56434  1.0000
  N   N4        1.0  0.03986  0.06334  0.43632  1.0000
  O   O1        1.0  0.70238  0.24461  0.42555  1.0000
  O   O2        1.0  0.79778  0.82191  0.57522  1.0000
  O   O3        1.0  0.29762  0.75538  0.57445  1.0000
  O   O4        1.0  0.20222  0.17810  0.42478  1.0000
