data_image0
_chemical_formula_structural       Cu4H32C48N12O32
_chemical_formula_sum              "Cu4 H32 C48 N12 O32"
_cell_length_a       8.14182
_cell_length_b       11.1058
_cell_length_c       14.2529
_cell_angle_alpha    94.6189
_cell_angle_beta     89.9983
_cell_angle_gamma    90.0003

_space_group_name_H-M_alt    "P 1"
_space_group_IT_number       1

loop_
  _space_group_symop_operation_xyz
  'x, y, z'

loop_
  _atom_site_type_symbol
  _atom_site_label
  _atom_site_symmetry_multiplicity
  _atom_site_fract_x
  _atom_site_fract_y
  _atom_site_fract_z
  _atom_site_occupancy
  Cu  Cu1       1.0  0.91869  0.19418  0.14851  1.0000
  Cu  Cu2       1.0  0.41865  0.30591  0.35151  1.0000
  Cu  Cu3       1.0  0.08138  0.80584  0.85145  1.0000
  Cu  Cu4       1.0  0.58133  0.69425  0.64856  1.0000
  H   H1        1.0  0.01750  0.13461  0.70083  1.0000
  H   H2        1.0  0.51752  0.36540  0.79913  1.0000
  H   H3        1.0  0.98247  0.86546  0.29913  1.0000
  H   H4        1.0  0.48246  0.63455  0.20082  1.0000
  H   H5        1.0  0.82707  0.12740  0.41835  1.0000
  H   H6        1.0  0.32710  0.37261  0.08167  1.0000
  H   H7        1.0  0.17287  0.87258  0.58172  1.0000
  H   H8        1.0  0.67290  0.62741  0.91830  1.0000
  H   H9        1.0  0.18755  0.04125  0.21776  1.0000
  H   H10       1.0  0.68758  0.45879  0.28225  1.0000
  H   H11       1.0  0.81242  0.95870  0.78219  1.0000
  H   H12       1.0  0.31246  0.54133  0.71781  1.0000
  H   H13       1.0  0.45276  0.96584  0.16201  1.0000
  H   H14       1.0  0.95277  0.53414  0.33801  1.0000
  H   H15       1.0  0.54722  0.03413  0.83794  1.0000
  H   H16       1.0  0.04724  0.46586  0.66209  1.0000
  H   H17       1.0  0.32760  0.08901  0.88884  1.0000
  H   H18       1.0  0.82763  0.41101  0.61115  1.0000
  H   H19       1.0  0.67238  0.91102  0.11112  1.0000
  H   H20       1.0  0.17240  0.58900  0.38888  1.0000
  H   H21       1.0  0.06773  0.16501  0.95968  1.0000
  H   H22       1.0  0.56773  0.33505  0.54035  1.0000
  H   H23       1.0  0.93224  0.83501  0.04029  1.0000
  H   H24       1.0  0.43226  0.66503  0.45973  1.0000
  H   H25       1.0  0.04128  0.43028  0.11503  1.0000
  H   H26       1.0  0.54127  0.06974  0.38497  1.0000
  H   H27       1.0  0.95883  0.56969  0.88499  1.0000
  H   H28       1.0  0.45882  0.93033  0.61500  1.0000
  H   H29       1.0  0.12336  0.37475  0.20330  1.0000
  H   H30       1.0  0.62341  0.12524  0.29671  1.0000
  H   H31       1.0  0.87673  0.62519  0.79671  1.0000
  H   H32       1.0  0.37679  0.87480  0.70329  1.0000
  C   C1        1.0  0.07427  0.18978  0.43526  1.0000
  C   C2        1.0  0.57430  0.31021  0.06476  1.0000
  C   C3        1.0  0.92570  0.81015  0.56474  1.0000
  C   C4        1.0  0.42574  0.68985  0.93527  1.0000
  C   C5        1.0  0.20818  0.22102  0.49942  1.0000
  C   C6        1.0  0.70821  0.27896  0.00059  1.0000
  C   C7        1.0  0.79177  0.77888  0.50059  1.0000
  C   C8        1.0  0.29179  0.72110  0.99942  1.0000
  C   C9        1.0  0.18226  0.19048  0.59546  1.0000
  C   C10       1.0  0.68228  0.30951  0.90454  1.0000
  C   C11       1.0  0.81771  0.80948  0.40454  1.0000
  C   C12       1.0  0.31772  0.69051  0.09545  1.0000
  C   C13       1.0  0.03346  0.14921  0.62683  1.0000
  C   C14       1.0  0.53349  0.35077  0.87314  1.0000
  C   C15       1.0  0.96648  0.85080  0.37315  1.0000
  C   C16       1.0  0.46650  0.64919  0.12681  1.0000
  C   C17       1.0  0.90442  0.13060  0.56302  1.0000
  C   C18       1.0  0.40448  0.36939  0.93698  1.0000
  C   C19       1.0  0.09549  0.86942  0.43700  1.0000
  C   C20       1.0  0.59554  0.63056  0.06299  1.0000
  C   C21       1.0  0.92704  0.14616  0.46786  1.0000
  C   C22       1.0  0.42707  0.35383  0.03215  1.0000
  C   C23       1.0  0.07293  0.85382  0.53216  1.0000
  C   C24       1.0  0.57296  0.64618  0.96784  1.0000
  C   C25       1.0  0.08319  0.20906  0.33327  1.0000
  C   C26       1.0  0.58321  0.29093  0.16675  1.0000
  C   C27       1.0  0.91684  0.79085  0.66671  1.0000
  C   C28       1.0  0.41686  0.70913  0.83330  1.0000
  C   C29       1.0  0.22388  0.05236  0.14583  1.0000
  C   C30       1.0  0.72388  0.44763  0.35418  1.0000
  C   C31       1.0  0.77610  0.94760  0.85412  1.0000
  C   C32       1.0  0.27610  0.55238  0.64587  1.0000
  C   C33       1.0  0.37415  0.00836  0.11249  1.0000
  C   C34       1.0  0.87414  0.49163  0.38751  1.0000
  C   C35       1.0  0.62583  0.99162  0.88745  1.0000
  C   C36       1.0  0.12582  0.50837  0.61255  1.0000
  C   C37       1.0  0.41948  0.02108  0.01883  1.0000
  C   C38       1.0  0.91947  0.47893  0.48118  1.0000
  C   C39       1.0  0.58048  0.97892  0.98112  1.0000
  C   C40       1.0  0.08047  0.52109  0.51888  1.0000
  C   C41       1.0  0.30426  0.07611  0.96254  1.0000
  C   C42       1.0  0.80425  0.42391  0.53746  1.0000
  C   C43       1.0  0.69572  0.92390  0.03741  1.0000
  C   C44       1.0  0.19572  0.57610  0.46259  1.0000
  C   C45       1.0  0.15739  0.11973  0.00121  1.0000
  C   C46       1.0  0.65738  0.38028  0.49879  1.0000
  C   C47       1.0  0.84259  0.88027  0.99875  1.0000
  C   C48       1.0  0.34260  0.61973  0.50125  1.0000
  N   N1        1.0  0.31322  0.20343  0.66537  1.0000
  N   N2        1.0  0.81326  0.29657  0.83462  1.0000
  N   N3        1.0  0.68675  0.79657  0.33461  1.0000
  N   N4        1.0  0.18677  0.70344  0.16536  1.0000
  N   N5        1.0  0.74531  0.09605  0.59659  1.0000
  N   N6        1.0  0.24538  0.40395  0.90342  1.0000
  N   N7        1.0  0.25458  0.90399  0.40344  1.0000
  N   N8        1.0  0.75462  0.59600  0.09656  1.0000
  N   N9        1.0  0.11785  0.10971  0.09223  1.0000
  N   N10       1.0  0.61783  0.39029  0.40778  1.0000
  N   N11       1.0  0.88214  0.89027  0.90773  1.0000
  N   N12       1.0  0.38213  0.60973  0.59227  1.0000
  O   O1        1.0  0.96914  0.16081  0.28138  1.0000
  O   O2        1.0  0.46911  0.33914  0.21863  1.0000
  O   O3        1.0  0.03093  0.83908  0.71859  1.0000
  O   O4        1.0  0.53089  0.66086  0.78141  1.0000
  O   O5        1.0  0.19810  0.27171  0.30002  1.0000
  O   O6        1.0  0.69814  0.22830  0.20001  1.0000
  O   O7        1.0  0.80196  0.72820  0.69997  1.0000
  O   O8        1.0  0.30201  0.77183  0.80005  1.0000
  O   O9        1.0  0.34270  0.27027  0.47609  1.0000
  O   O10       1.0  0.84270  0.22967  0.02393  1.0000
  O   O11       1.0  0.65730  0.72956  0.52394  1.0000
  O   O12       1.0  0.15731  0.77039  0.97606  1.0000
  O   O13       1.0  0.42236  0.27975  0.65687  1.0000
  O   O14       1.0  0.92239  0.22025  0.84311  1.0000
  O   O15       1.0  0.57759  0.72028  0.34313  1.0000
  O   O16       1.0  0.07762  0.77973  0.15684  1.0000
  O   O17       1.0  0.30719  0.13648  0.73144  1.0000
  O   O18       1.0  0.80725  0.36351  0.76854  1.0000
  O   O19       1.0  0.69276  0.86348  0.26853  1.0000
  O   O20       1.0  0.19281  0.63652  0.23145  1.0000
  O   O21       1.0  0.72436  0.09643  0.68293  1.0000
  O   O22       1.0  0.22442  0.40358  0.81708  1.0000
  O   O23       1.0  0.27549  0.90362  0.31710  1.0000
  O   O24       1.0  0.77554  0.59639  0.18290  1.0000
  O   O25       1.0  0.63515  0.06786  0.53750  1.0000
  O   O26       1.0  0.13522  0.43213  0.96252  1.0000
  O   O27       1.0  0.36473  0.93218  0.46254  1.0000
  O   O28       1.0  0.86479  0.56780  0.03747  1.0000
  O   O29       1.0  0.02009  0.38485  0.16960  1.0000
  O   O30       1.0  0.52011  0.11514  0.33038  1.0000
  O   O31       1.0  0.98000  0.61512  0.83042  1.0000
  O   O32       1.0  0.48002  0.88487  0.66955  1.0000
