data_image0
_chemical_formula_structural       Zn2H26C22N10O8
_chemical_formula_sum              "Zn2 H26 C22 N10 O8"
_cell_length_a       8.22666
_cell_length_b       8.69746
_cell_length_c       9.95965
_cell_angle_alpha    89.9999
_cell_angle_beta     90
_cell_angle_gamma    106.084

_space_group_name_H-M_alt    "P 1"
_space_group_IT_number       1

loop_
  _space_group_symop_operation_xyz
  'x, y, z'

loop_
  _atom_site_type_symbol
  _atom_site_label
  _atom_site_symmetry_multiplicity
  _atom_site_fract_x
  _atom_site_fract_y
  _atom_site_fract_z
  _atom_site_occupancy
  Zn  Zn1       1.0  0.40804  0.55740  0.42125  1.0000
  Zn  Zn2       1.0  0.59197  0.44260  0.92125  1.0000
  H   H1        1.0  0.64036  0.46637  0.29193  1.0000
  H   H2        1.0  0.35964  0.53363  0.79193  1.0000
  H   H3        1.0  0.54652  0.17425  0.42879  1.0000
  H   H4        1.0  0.45348  0.82575  0.92879  1.0000
  H   H5        1.0  0.52014  0.21476  0.25848  1.0000
  H   H6        1.0  0.47986  0.78524  0.75848  1.0000
  H   H7        1.0  0.80862  0.56525  0.47256  1.0000
  H   H8        1.0  0.19138  0.43474  0.97256  1.0000
  H   H9        1.0  0.78480  0.35784  0.49394  1.0000
  H   H10       1.0  0.21521  0.64216  0.99395  1.0000
  H   H11       1.0  0.64334  0.76206  0.18159  1.0000
  H   H12       1.0  0.35666  0.23794  0.68159  1.0000
  H   H13       1.0  0.65969  0.88992  0.59159  1.0000
  H   H14       1.0  0.34031  0.11008  0.09159  1.0000
  H   H15       1.0  0.91004  0.11678  0.45281  1.0000
  H   H16       1.0  0.08996  0.88323  0.95281  1.0000
  H   H17       1.0  0.70903  0.11052  0.97037  1.0000
  H   H18       1.0  0.29097  0.88948  0.47037  1.0000
  H   H19       1.0  0.89172  0.57158  0.13937  1.0000
  H   H20       1.0  0.10827  0.42842  0.63937  1.0000
  H   H21       1.0  0.03717  0.36113  0.27590  1.0000
  H   H22       1.0  0.96283  0.63887  0.77590  1.0000
  H   H23       1.0  0.04402  0.06992  0.21332  1.0000
  H   H24       1.0  0.95598  0.93009  0.71333  1.0000
  H   H25       1.0  0.89154  0.96492  0.09025  1.0000
  H   H26       1.0  0.10846  0.03508  0.59025  1.0000
  C   C1        1.0  0.30562  0.20895  0.38146  1.0000
  C   C2        1.0  0.69438  0.79105  0.88146  1.0000
  C   C3        1.0  0.49810  0.25132  0.36086  1.0000
  C   C4        1.0  0.50190  0.74868  0.86086  1.0000
  C   C5        1.0  0.63080  0.45911  0.62513  1.0000
  C   C6        1.0  0.36920  0.54089  0.12513  1.0000
  C   C7        1.0  0.71521  0.44905  0.48952  1.0000
  C   C8        1.0  0.28479  0.55095  0.98952  1.0000
  C   C9        1.0  0.67574  0.82716  0.27521  1.0000
  C   C10       1.0  0.32426  0.17284  0.77520  1.0000
  C   C11       1.0  0.69040  0.89708  0.48541  1.0000
  C   C12       1.0  0.30960  0.10292  0.98540  1.0000
  C   C13       1.0  0.81418  0.01111  0.41948  1.0000
  C   C14       1.0  0.18582  0.98889  0.91948  1.0000
  C   C15       1.0  0.77009  0.20820  0.03751  1.0000
  C   C16       1.0  0.22992  0.79180  0.53752  1.0000
  C   C17       1.0  0.87186  0.44379  0.12795  1.0000
  C   C18       1.0  0.12814  0.55621  0.62795  1.0000
  C   C19       1.0  0.94392  0.34206  0.19597  1.0000
  C   C20       1.0  0.05608  0.65794  0.69597  1.0000
  C   C21       1.0  0.91292  0.04503  0.17742  1.0000
  C   C22       1.0  0.08707  0.95497  0.67742  1.0000
  N   N1        1.0  0.58970  0.42026  0.38166  1.0000
  N   N2        1.0  0.41030  0.57974  0.88166  1.0000
  N   N3        1.0  0.80311  0.96485  0.28618  1.0000
  N   N4        1.0  0.19689  0.03515  0.78618  1.0000
  N   N5        1.0  0.60490  0.78273  0.39419  1.0000
  N   N6        1.0  0.39510  0.21727  0.89419  1.0000
  N   N7        1.0  0.87820  0.19317  0.13723  1.0000
  N   N8        1.0  0.12180  0.80683  0.63723  1.0000
  N   N9        1.0  0.76391  0.35881  0.03022  1.0000
  N   N10       1.0  0.23609  0.64120  0.53022  1.0000
  O   O1        1.0  0.23920  0.31602  0.42481  1.0000
  O   O2        1.0  0.76080  0.68398  0.92480  1.0000
  O   O3        1.0  0.22573  0.06628  0.35460  1.0000
  O   O4        1.0  0.77427  0.93372  0.85460  1.0000
  O   O5        1.0  0.50364  0.51509  0.62392  1.0000
  O   O6        1.0  0.49637  0.48491  0.12392  1.0000
  O   O7        1.0  0.69254  0.41163  0.72880  1.0000
  O   O8        1.0  0.30746  0.58837  0.22880  1.0000
