data_image0
_chemical_formula_structural       Cu2H22C28N10Cl2
_chemical_formula_sum              "Cu2 H22 C28 N10 Cl2"
_cell_length_a       8.21439
_cell_length_b       9.50625
_cell_length_c       9.58421
_cell_angle_alpha    72.2264
_cell_angle_beta     72.8315
_cell_angle_gamma    67.0046

_space_group_name_H-M_alt    "P 1"
_space_group_IT_number       1

loop_
  _space_group_symop_operation_xyz
  'x, y, z'

loop_
  _atom_site_type_symbol
  _atom_site_label
  _atom_site_symmetry_multiplicity
  _atom_site_fract_x
  _atom_site_fract_y
  _atom_site_fract_z
  _atom_site_occupancy
  Cu  Cu1       1.0  0.23716  0.13387  0.15356  1.0000
  Cu  Cu2       1.0  0.76284  0.86613  0.84644  1.0000
  H   H1        1.0  0.13478  0.38405  0.48905  1.0000
  H   H2        1.0  0.86522  0.61595  0.51095  1.0000
  H   H3        1.0  0.25547  0.26289  0.36007  1.0000
  H   H4        1.0  0.74453  0.73711  0.63994  1.0000
  H   H5        1.0  0.64397  0.57272  0.10041  1.0000
  H   H6        1.0  0.35603  0.42729  0.89959  1.0000
  H   H7        1.0  0.69560  0.46709  0.92394  1.0000
  H   H8        1.0  0.30441  0.53291  0.07605  1.0000
  H   H9        1.0  0.77669  0.33197  0.71482  1.0000
  H   H10       1.0  0.22331  0.66803  0.28518  1.0000
  H   H11       1.0  0.05901  0.09825  0.69735  1.0000
  H   H12       1.0  0.94100  0.90175  0.30265  1.0000
  H   H13       1.0  0.25412  0.01430  0.88364  1.0000
  H   H14       1.0  0.74588  0.98570  0.11637  1.0000
  H   H15       1.0  0.51197  0.82189  0.13149  1.0000
  H   H16       1.0  0.48803  0.17811  0.86850  1.0000
  H   H17       1.0  0.56852  0.59504  0.58860  1.0000
  H   H18       1.0  0.43148  0.40496  0.41139  1.0000
  H   H19       1.0  0.29733  0.81386  0.67016  1.0000
  H   H20       1.0  0.70267  0.18613  0.32984  1.0000
  H   H21       1.0  0.14255  0.02640  0.47417  1.0000
  H   H22       1.0  0.85745  0.97359  0.52584  1.0000
  C   C1        1.0  0.99704  0.38101  0.34327  1.0000
  C   C2        1.0  0.00295  0.61900  0.65673  1.0000
  C   C3        1.0  0.72267  0.56340  0.30153  1.0000
  C   C4        1.0  0.27733  0.43660  0.69847  1.0000
  C   C5        1.0  0.74286  0.51391  0.17215  1.0000
  C   C6        1.0  0.25714  0.48610  0.82785  1.0000
  C   C7        1.0  0.89444  0.38453  0.14088  1.0000
  C   C8        1.0  0.10556  0.61548  0.85912  1.0000
  C   C9        1.0  0.93216  0.31160  0.01430  1.0000
  C   C10       1.0  0.06784  0.68839  0.98570  1.0000
  C   C11       1.0  0.81706  0.36540  0.91319  1.0000
  C   C12       1.0  0.18293  0.63459  0.08681  1.0000
  C   C13       1.0  0.86245  0.29023  0.79655  1.0000
  C   C14       1.0  0.13755  0.70978  0.20345  1.0000
  C   C15       1.0  0.01948  0.16107  0.78613  1.0000
  C   C16       1.0  0.98053  0.83893  0.21387  1.0000
  C   C17       1.0  0.12904  0.11393  0.88959  1.0000
  C   C18       1.0  0.87096  0.88607  0.11041  1.0000
  C   C19       1.0  0.46791  0.81457  0.25206  1.0000
  C   C20       1.0  0.53209  0.18543  0.74794  1.0000
  C   C21       1.0  0.56115  0.68984  0.35364  1.0000
  C   C22       1.0  0.43885  0.31016  0.64635  1.0000
  C   C23       1.0  0.49907  0.68986  0.50663  1.0000
  C   C24       1.0  0.50094  0.31014  0.49336  1.0000
  C   C25       1.0  0.34679  0.81073  0.55211  1.0000
  C   C26       1.0  0.65321  0.18927  0.44789  1.0000
  C   C27       1.0  0.26125  0.92871  0.44405  1.0000
  C   C28       1.0  0.73875  0.07129  0.55596  1.0000
  N   N1        1.0  0.01801  0.31552  0.22881  1.0000
  N   N2        1.0  0.98199  0.68448  0.77119  1.0000
  N   N3        1.0  0.84899  0.49802  0.38690  1.0000
  N   N4        1.0  0.15101  0.50199  0.61310  1.0000
  N   N5        1.0  0.13351  0.32176  0.41804  1.0000
  N   N6        1.0  0.86649  0.67824  0.58196  1.0000
  N   N7        1.0  0.08899  0.18838  0.00081  1.0000
  N   N8        1.0  0.91101  0.81161  0.99919  1.0000
  N   N9        1.0  0.32186  0.93313  0.29573  1.0000
  N   N10       1.0  0.67814  0.06687  0.70427  1.0000
  Cl  Cl1       1.0  0.47396  0.22212  0.12860  1.0000
  Cl  Cl2       1.0  0.52604  0.77788  0.87140  1.0000
