data_image0
_chemical_formula_structural       Eu2H18C46N8O12F36
_chemical_formula_sum              "Eu2 H18 C46 N8 O12 F36"
_cell_length_a       10.8621
_cell_length_b       12.3507
_cell_length_c       14.1563
_cell_angle_alpha    109.386
_cell_angle_beta     93.1812
_cell_angle_gamma    115.311

_space_group_name_H-M_alt    "P 1"
_space_group_IT_number       1

loop_
  _space_group_symop_operation_xyz
  'x, y, z'

loop_
  _atom_site_type_symbol
  _atom_site_label
  _atom_site_symmetry_multiplicity
  _atom_site_fract_x
  _atom_site_fract_y
  _atom_site_fract_z
  _atom_site_occupancy
  Eu  Eu1       1.0  0.47692  0.47615  0.74131  1.0000
  Eu  Eu2       1.0  0.52308  0.52385  0.25869  1.0000
  H   H1        1.0  0.67504  0.34155  0.11049  1.0000
  H   H2        1.0  0.32496  0.65845  0.88951  1.0000
  H   H3        1.0  0.26327  0.58715  0.36257  1.0000
  H   H4        1.0  0.73673  0.41285  0.63743  1.0000
  H   H5        1.0  0.32110  0.65530  0.68554  1.0000
  H   H6        1.0  0.67890  0.34470  0.31446  1.0000
  H   H7        1.0  0.79121  0.32378  0.95945  1.0000
  H   H8        1.0  0.20879  0.67622  0.04055  1.0000
  H   H9        1.0  0.73683  0.41143  0.83287  1.0000
  H   H10       1.0  0.26318  0.58857  0.16713  1.0000
  H   H11       1.0  0.87108  0.92900  0.89522  1.0000
  H   H12       1.0  0.12892  0.07100  0.10478  1.0000
  H   H13       1.0  0.98665  0.22441  0.76536  1.0000
  H   H14       1.0  0.01335  0.77559  0.23464  1.0000
  H   H15       1.0  0.20543  0.67204  0.53420  1.0000
  H   H16       1.0  0.79457  0.32796  0.46580  1.0000
  H   H17       1.0  0.28927  0.01038  0.51255  1.0000
  H   H18       1.0  0.71073  0.98962  0.48745  1.0000
  C   C1        1.0  0.64778  0.80982  0.84647  1.0000
  C   C2        1.0  0.35222  0.19018  0.15353  1.0000
  C   C3        1.0  0.78565  0.83025  0.86108  1.0000
  C   C4        1.0  0.21435  0.16975  0.13892  1.0000
  C   C5        1.0  0.81473  0.72540  0.83335  1.0000
  C   C6        1.0  0.18527  0.27460  0.16664  1.0000
  C   C7        1.0  0.96951  0.75587  0.85415  1.0000
  C   C8        1.0  0.03049  0.24413  0.14585  1.0000
  C   C9        1.0  0.62306  0.92982  0.88352  1.0000
  C   C10       1.0  0.37694  0.07018  0.11648  1.0000
  C   C11       1.0  0.19693  0.25220  0.79360  1.0000
  C   C12       1.0  0.80307  0.74780  0.20640  1.0000
  C   C13       1.0  0.09443  0.28240  0.76398  1.0000
  C   C14       1.0  0.90557  0.71760  0.23602  1.0000
  C   C15       1.0  0.12723  0.38219  0.72815  1.0000
  C   C16       1.0  0.87277  0.61781  0.27185  1.0000
  C   C17       1.0  0.00075  0.39317  0.68554  1.0000
  C   C18       1.0  0.99925  0.60683  0.31446  1.0000
  C   C19       1.0  0.15467  0.14245  0.83392  1.0000
  C   C20       1.0  0.84533  0.85755  0.16608  1.0000
  C   C21       1.0  0.27983  0.18744  0.53331  1.0000
  C   C22       1.0  0.72017  0.81256  0.46669  1.0000
  C   C23       1.0  0.33665  0.11444  0.55748  1.0000
  C   C24       1.0  0.66335  0.88556  0.44252  1.0000
  C   C25       1.0  0.45621  0.17493  0.63690  1.0000
  C   C26       1.0  0.54379  0.82507  0.36310  1.0000
  C   C27       1.0  0.50912  0.08873  0.66405  1.0000
  C   C28       1.0  0.49088  0.91127  0.33595  1.0000
  C   C29       1.0  0.16082  0.12067  0.43623  1.0000
  C   C30       1.0  0.83918  0.87933  0.56377  1.0000
  C   C31       1.0  0.69102  0.41401  0.89938  1.0000
  C   C32       1.0  0.30898  0.58599  0.10062  1.0000
  C   C33       1.0  0.72174  0.36718  0.96947  1.0000
  C   C34       1.0  0.27826  0.63282  0.03053  1.0000
  C   C35       1.0  0.65869  0.37717  0.05257  1.0000
  C   C36       1.0  0.34130  0.62283  0.94743  1.0000
  C   C37       1.0  0.54812  0.47134  0.99336  1.0000
  C   C38       1.0  0.45188  0.52866  0.00664  1.0000
  C   C39       1.0  0.33889  0.62044  0.60900  1.0000
  C   C40       1.0  0.66111  0.37956  0.39100  1.0000
  C   C41       1.0  0.27608  0.63006  0.52586  1.0000
  C   C42       1.0  0.72391  0.36994  0.47414  1.0000
  C   C43       1.0  0.30806  0.58423  0.43181  1.0000
  C   C44       1.0  0.69194  0.41577  0.56819  1.0000
  C   C45       1.0  0.45127  0.52787  0.50556  1.0000
  C   C46       1.0  0.54873  0.47213  0.49444  1.0000
  N   N1        1.0  0.60067  0.46236  0.90921  1.0000
  N   N2        1.0  0.39933  0.53764  0.09079  1.0000
  N   N3        1.0  0.57545  0.43331  0.06684  1.0000
  N   N4        1.0  0.42455  0.56669  0.93316  1.0000
  N   N5        1.0  0.42326  0.56564  0.59845  1.0000
  N   N6        1.0  0.57674  0.43436  0.40155  1.0000
  N   N7        1.0  0.39924  0.53673  0.42191  1.0000
  N   N8        1.0  0.60076  0.46327  0.57809  1.0000
  O   O1        1.0  0.53674  0.70201  0.80929  1.0000
  O   O2        1.0  0.46326  0.29799  0.19071  1.0000
  O   O3        1.0  0.72855  0.60500  0.79144  1.0000
  O   O4        1.0  0.27145  0.39500  0.20856  1.0000
  O   O5        1.0  0.32389  0.30323  0.78993  1.0000
  O   O6        1.0  0.67611  0.69677  0.21007  1.0000
  O   O7        1.0  0.24585  0.46384  0.72631  1.0000
  O   O8        1.0  0.75415  0.53616  0.27369  1.0000
  O   O9        1.0  0.31554  0.30631  0.58130  1.0000
  O   O10       1.0  0.68446  0.69369  0.41870  1.0000
  O   O11       1.0  0.52958  0.29511  0.69232  1.0000
  O   O12       1.0  0.47042  0.70489  0.30768  1.0000
  F   F1        1.0  0.05989  0.88377  0.91082  1.0000
  F   F2        1.0  0.94011  0.11623  0.08918  1.0000
  F   F3        1.0  0.00885  0.72108  0.76366  1.0000
  F   F4        1.0  0.99116  0.27892  0.23634  1.0000
  F   F5        1.0  0.98816  0.68619  0.90611  1.0000
  F   F6        1.0  0.01184  0.31381  0.09389  1.0000
  F   F7        1.0  0.50716  0.90774  0.82197  1.0000
  F   F8        1.0  0.49284  0.09226  0.17803  1.0000
  F   F9        1.0  0.60176  0.95422  0.98093  1.0000
  F   F10       1.0  0.39824  0.04578  0.01907  1.0000
  F   F11       1.0  0.73228  0.04044  0.88547  1.0000
  F   F12       1.0  0.26772  0.95956  0.11453  1.0000
  F   F13       1.0  0.03988  0.49424  0.65586  1.0000
  F   F14       1.0  0.96012  0.50576  0.34414  1.0000
  F   F15       1.0  0.92427  0.40978  0.75789  1.0000
  F   F16       1.0  0.07573  0.59022  0.24211  1.0000
  F   F17       1.0  0.91187  0.28249  0.60203  1.0000
  F   F18       1.0  0.08813  0.71751  0.39797  1.0000
  F   F19       1.0  0.02625  0.10606  0.85674  1.0000
  F   F20       1.0  0.97375  0.89394  0.14326  1.0000
  F   F21       1.0  0.24938  0.18224  0.92137  1.0000
  F   F22       1.0  0.75062  0.81776  0.07863  1.0000
  F   F23       1.0  0.15191  0.03468  0.76318  1.0000
  F   F24       1.0  0.84809  0.96532  0.23682  1.0000
  F   F25       1.0  0.04658  0.13301  0.46014  1.0000
  F   F26       1.0  0.95342  0.86699  0.53986  1.0000
  F   F27       1.0  0.20445  0.17887  0.36871  1.0000
  F   F28       1.0  0.79555  0.82113  0.63129  1.0000
  F   F29       1.0  0.11880  0.99140  0.38570  1.0000
  F   F30       1.0  0.88120  0.00860  0.61430  1.0000
  F   F31       1.0  0.49947  0.09871  0.76169  1.0000
  F   F32       1.0  0.50053  0.90129  0.23831  1.0000
  F   F33       1.0  0.64663  0.12923  0.66078  1.0000
  F   F34       1.0  0.35337  0.87077  0.33922  1.0000
  F   F35       1.0  0.43624  0.95988  0.60054  1.0000
  F   F36       1.0  0.56376  0.04012  0.39946  1.0000
