data_image0
_chemical_formula_structural       Cu4H22C28N10Cl4
_chemical_formula_sum              "Cu4 H22 C28 N10 Cl4"
_cell_length_a       8.04312
_cell_length_b       9.46974
_cell_length_c       10.9723
_cell_angle_alpha    66.9705
_cell_angle_beta     85.8663
_cell_angle_gamma    67.3393

_space_group_name_H-M_alt    "P 1"
_space_group_IT_number       1

loop_
  _space_group_symop_operation_xyz
  'x, y, z'

loop_
  _atom_site_type_symbol
  _atom_site_label
  _atom_site_symmetry_multiplicity
  _atom_site_fract_x
  _atom_site_fract_y
  _atom_site_fract_z
  _atom_site_occupancy
  Cu  Cu1       1.0  0.50045  0.23541  0.69356  1.0000
  Cu  Cu2       1.0  0.49955  0.76459  0.30644  1.0000
  Cu  Cu3       1.0  0.75562  0.46358  0.50675  1.0000
  Cu  Cu4       1.0  0.24436  0.53643  0.49324  1.0000
  H   H1        1.0  0.55712  0.51735  0.89488  1.0000
  H   H2        1.0  0.44288  0.48265  0.10512  1.0000
  H   H3        1.0  0.58055  0.43694  0.77136  1.0000
  H   H4        1.0  0.41945  0.56306  0.22864  1.0000
  H   H5        1.0  0.18472  0.07978  0.10819  1.0000
  H   H6        1.0  0.81529  0.92021  0.89181  1.0000
  H   H7        1.0  0.15317  0.93427  0.01788  1.0000
  H   H8        1.0  0.84684  0.06572  0.98213  1.0000
  H   H9        1.0  0.13798  0.76088  0.89963  1.0000
  H   H10       1.0  0.86202  0.23910  0.10038  1.0000
  H   H11       1.0  0.28481  0.78712  0.68569  1.0000
  H   H12       1.0  0.71518  0.21288  0.31432  1.0000
  H   H13       1.0  0.44289  0.98272  0.60138  1.0000
  H   H14       1.0  0.55710  0.01727  0.39863  1.0000
  H   H15       1.0  0.93724  0.63473  0.30343  1.0000
  H   H16       1.0  0.06275  0.36528  0.69656  1.0000
  H   H17       1.0  0.12337  0.57808  0.12495  1.0000
  H   H18       1.0  0.87663  0.42193  0.87504  1.0000
  H   H19       1.0  0.17185  0.06650  0.31626  1.0000
  H   H20       1.0  0.82814  0.93351  0.68374  1.0000
  H   H21       1.0  0.98449  0.14514  0.48873  1.0000
  H   H22       1.0  0.01549  0.85487  0.51127  1.0000
  C   C1        1.0  0.41529  0.37043  0.91079  1.0000
  C   C2        1.0  0.58471  0.62956  0.08921  1.0000
  C   C3        1.0  0.25310  0.28794  0.08853  1.0000
  C   C4        1.0  0.74690  0.71206  0.91147  1.0000
  C   C5        1.0  0.24579  0.16638  0.04915  1.0000
  C   C6        1.0  0.75421  0.83362  0.95085  1.0000
  C   C7        1.0  0.31445  0.16454  0.92873  1.0000
  C   C8        1.0  0.68556  0.83545  0.07128  1.0000
  C   C9        1.0  0.30198  0.05355  0.86912  1.0000
  C   C10       1.0  0.69804  0.94645  0.13088  1.0000
  C   C11       1.0  0.21245  0.94501  0.92386  1.0000
  C   C12       1.0  0.78757  0.05499  0.07615  1.0000
  C   C13       1.0  0.20451  0.84806  0.85825  1.0000
  C   C14       1.0  0.79551  0.15193  0.14176  1.0000
  C   C15       1.0  0.28462  0.86257  0.73920  1.0000
  C   C16       1.0  0.71539  0.13743  0.26080  1.0000
  C   C17       1.0  0.37395  0.97080  0.69195  1.0000
  C   C18       1.0  0.62605  0.02919  0.30806  1.0000
  C   C19       1.0  0.99098  0.51082  0.30235  1.0000
  C   C20       1.0  0.00900  0.48920  0.69764  1.0000
  C   C21       1.0  0.09515  0.47822  0.20297  1.0000
  C   C22       1.0  0.90485  0.52178  0.79703  1.0000
  C   C23       1.0  0.15822  0.31867  0.20141  1.0000
  C   C24       1.0  0.84178  0.68133  0.79859  1.0000
  C   C25       1.0  0.12123  0.19492  0.30812  1.0000
  C   C26       1.0  0.87876  0.80509  0.69187  1.0000
  C   C27       1.0  0.01671  0.23712  0.40446  1.0000
  C   C28       1.0  0.98328  0.76289  0.59554  1.0000
  N   N1        1.0  0.39251  0.27121  0.85598  1.0000
  N   N2        1.0  0.60749  0.72878  0.14401  1.0000
  N   N3        1.0  0.33947  0.38807  0.02070  1.0000
  N   N4        1.0  0.66053  0.61193  0.97930  1.0000
  N   N5        1.0  0.51566  0.45761  0.84966  1.0000
  N   N6        1.0  0.48435  0.54239  0.15034  1.0000
  N   N7        1.0  0.38574  0.06244  0.75581  1.0000
  N   N8        1.0  0.61427  0.93754  0.24420  1.0000
  N   N9        1.0  0.94578  0.39400  0.40034  1.0000
  N   N10       1.0  0.05421  0.60601  0.59965  1.0000
  Cl  Cl1       1.0  0.79816  0.21071  0.70516  1.0000
  Cl  Cl2       1.0  0.20183  0.78929  0.29484  1.0000
  Cl  Cl3       1.0  0.45397  0.32455  0.46515  1.0000
  Cl  Cl4       1.0  0.54601  0.67545  0.53486  1.0000
