data_image0
_chemical_formula_structural       Zn4P4H36C44O12
_chemical_formula_sum              "Zn4 P4 H36 C44 O12"
_cell_length_a       5.14497
_cell_length_b       10.3714
_cell_length_c       19.4622
_cell_angle_alpha    91.676
_cell_angle_beta     90.0002
_cell_angle_gamma    90.0007

_space_group_name_H-M_alt    "P 1"
_space_group_IT_number       1

loop_
  _space_group_symop_operation_xyz
  'x, y, z'

loop_
  _atom_site_type_symbol
  _atom_site_label
  _atom_site_symmetry_multiplicity
  _atom_site_fract_x
  _atom_site_fract_y
  _atom_site_fract_z
  _atom_site_occupancy
  Zn  Zn1       1.0  0.22266  0.35360  0.49622  1.0000
  Zn  Zn2       1.0  0.72266  0.14640  0.50378  1.0000
  Zn  Zn3       1.0  0.77733  0.64640  0.50378  1.0000
  Zn  Zn4       1.0  0.27733  0.85360  0.49622  1.0000
  P   P1        1.0  0.25813  0.59237  0.41081  1.0000
  P   P2        1.0  0.75814  0.90764  0.58920  1.0000
  P   P3        1.0  0.74186  0.40763  0.58919  1.0000
  P   P4        1.0  0.24185  0.09237  0.41081  1.0000
  H   H1        1.0  0.07471  0.74139  0.21262  1.0000
  H   H2        1.0  0.57471  0.75861  0.78738  1.0000
  H   H3        1.0  0.92529  0.25861  0.78738  1.0000
  H   H4        1.0  0.42528  0.24140  0.21262  1.0000
  H   H5        1.0  0.02258  0.61527  0.30777  1.0000
  H   H6        1.0  0.52258  0.88475  0.69223  1.0000
  H   H7        1.0  0.97742  0.38474  0.69223  1.0000
  H   H8        1.0  0.47741  0.11526  0.30777  1.0000
  H   H9        1.0  0.24964  0.74009  0.32129  1.0000
  H   H10       1.0  0.74963  0.75991  0.67872  1.0000
  H   H11       1.0  0.75037  0.25991  0.67872  1.0000
  H   H12       1.0  0.25036  0.24009  0.32128  1.0000
  H   H13       1.0  0.60190  0.44554  0.34150  1.0000
  H   H14       1.0  0.10193  0.05447  0.65851  1.0000
  H   H15       1.0  0.39810  0.55446  0.65851  1.0000
  H   H16       1.0  0.89807  0.94554  0.34149  1.0000
  H   H17       1.0  0.91006  0.35296  0.25708  1.0000
  H   H18       1.0  0.41010  0.14703  0.74293  1.0000
  H   H19       1.0  0.08992  0.64703  0.74293  1.0000
  H   H20       1.0  0.58991  0.85297  0.25706  1.0000
  H   H21       1.0  0.07198  0.80693  0.09367  1.0000
  H   H22       1.0  0.57196  0.69307  0.90633  1.0000
  H   H23       1.0  0.92803  0.19306  0.90632  1.0000
  H   H24       1.0  0.42803  0.30695  0.09367  1.0000
  H   H25       1.0  0.91274  0.42513  0.13692  1.0000
  H   H26       1.0  0.41278  0.07485  0.86309  1.0000
  H   H27       1.0  0.08724  0.57485  0.86309  1.0000
  H   H28       1.0  0.58724  0.92515  0.13691  1.0000
  H   H29       1.0  0.72238  0.55664  0.04683  1.0000
  H   H30       1.0  0.22239  0.94336  0.95318  1.0000
  H   H31       1.0  0.27764  0.44335  0.95318  1.0000
  H   H32       1.0  0.77763  0.05665  0.04682  1.0000
  H   H33       1.0  0.39357  0.71571  0.00900  1.0000
  H   H34       1.0  0.89356  0.78428  0.99100  1.0000
  H   H35       1.0  0.60645  0.28428  0.99100  1.0000
  H   H36       1.0  0.10645  0.21573  0.00899  1.0000
  C   C1        1.0  0.41040  0.56955  0.27070  1.0000
  C   C2        1.0  0.91041  0.93046  0.72930  1.0000
  C   C3        1.0  0.58959  0.43045  0.72930  1.0000
  C   C4        1.0  0.08958  0.06955  0.27070  1.0000
  C   C5        1.0  0.58616  0.55587  0.15204  1.0000
  C   C6        1.0  0.08618  0.94412  0.84796  1.0000
  C   C7        1.0  0.41384  0.44412  0.84796  1.0000
  C   C8        1.0  0.91383  0.05588  0.15203  1.0000
  C   C9        1.0  0.21885  0.70033  0.17736  1.0000
  C   C10       1.0  0.71885  0.79967  0.82264  1.0000
  C   C11       1.0  0.78116  0.29966  0.82264  1.0000
  C   C12       1.0  0.28114  0.20034  0.17736  1.0000
  C   C13       1.0  0.40228  0.60923  0.20074  1.0000
  C   C14       1.0  0.90229  0.89076  0.79926  1.0000
  C   C15       1.0  0.59771  0.39076  0.79926  1.0000
  C   C16       1.0  0.09770  0.10925  0.20074  1.0000
  C   C17       1.0  0.22670  0.63438  0.32186  1.0000
  C   C18       1.0  0.72670  0.86563  0.67814  1.0000
  C   C19       1.0  0.77331  0.36562  0.67814  1.0000
  C   C20       1.0  0.27329  0.13438  0.32186  1.0000
  C   C21       1.0  0.58944  0.47660  0.28864  1.0000
  C   C22       1.0  0.08945  0.02341  0.71136  1.0000
  C   C23       1.0  0.41056  0.52341  0.71136  1.0000
  C   C24       1.0  0.91054  0.97659  0.28863  1.0000
  C   C25       1.0  0.76878  0.42379  0.24039  1.0000
  C   C26       1.0  0.26881  0.07620  0.75961  1.0000
  C   C27       1.0  0.23120  0.57620  0.75961  1.0000
  C   C28       1.0  0.73119  0.92380  0.24038  1.0000
  C   C29       1.0  0.21622  0.73712  0.10984  1.0000
  C   C30       1.0  0.71621  0.76288  0.89016  1.0000
  C   C31       1.0  0.78379  0.26287  0.89016  1.0000
  C   C32       1.0  0.28379  0.23713  0.10984  1.0000
  C   C33       1.0  0.77032  0.46360  0.17360  1.0000
  C   C34       1.0  0.27036  0.03639  0.82640  1.0000
  C   C35       1.0  0.22966  0.53639  0.82641  1.0000
  C   C36       1.0  0.72964  0.96361  0.17359  1.0000
  C   C37       1.0  0.57986  0.59689  0.08309  1.0000
  C   C38       1.0  0.07988  0.90311  0.91691  1.0000
  C   C39       1.0  0.42013  0.40310  0.91691  1.0000
  C   C40       1.0  0.92014  0.09689  0.08309  1.0000
  C   C41       1.0  0.39816  0.68532  0.06214  1.0000
  C   C42       1.0  0.89817  0.81467  0.93786  1.0000
  C   C43       1.0  0.60185  0.31466  0.93786  1.0000
  C   C44       1.0  0.10186  0.18534  0.06214  1.0000
  O   O1        1.0  0.10146  0.69714  0.45468  1.0000
  O   O2        1.0  0.60147  0.80287  0.54532  1.0000
  O   O3        1.0  0.89853  0.30286  0.54532  1.0000
  O   O4        1.0  0.39853  0.19714  0.45468  1.0000
  O   O5        1.0  0.54474  0.59908  0.43053  1.0000
  O   O6        1.0  0.04475  0.90092  0.56947  1.0000
  O   O7        1.0  0.45525  0.40091  0.56947  1.0000
  O   O8        1.0  0.95524  0.09908  0.43053  1.0000
  O   O9        1.0  0.13066  0.46006  0.42033  1.0000
  O   O10       1.0  0.63068  0.03995  0.57967  1.0000
  O   O11       1.0  0.86933  0.53995  0.57967  1.0000
  O   O12       1.0  0.36931  0.96006  0.42033  1.0000
