data_image0
_chemical_formula_structural       Bi2H16C20N2O20
_chemical_formula_sum              "Bi2 H16 C20 N2 O20"
_cell_length_a       5.03946
_cell_length_b       9.97236
_cell_length_c       15.2985
_cell_angle_alpha    89.9996
_cell_angle_beta     100.615
_cell_angle_gamma    90.0006

_space_group_name_H-M_alt    "P 1"
_space_group_IT_number       1

loop_
  _space_group_symop_operation_xyz
  'x, y, z'

loop_
  _atom_site_type_symbol
  _atom_site_label
  _atom_site_symmetry_multiplicity
  _atom_site_fract_x
  _atom_site_fract_y
  _atom_site_fract_z
  _atom_site_occupancy
  Bi  Bi1       1.0  0.36802  0.86147  0.97626  1.0000
  Bi  Bi2       1.0  0.86798  0.13854  0.47626  1.0000
  H   H1        1.0  0.40350  0.34815  0.00687  1.0000
  H   H2        1.0  0.90350  0.65184  0.50687  1.0000
  H   H3        1.0  0.03295  0.13574  0.19801  1.0000
  H   H4        1.0  0.53294  0.86426  0.69801  1.0000
  H   H5        1.0  0.96516  0.56546  0.17849  1.0000
  H   H6        1.0  0.46515  0.43453  0.67849  1.0000
  H   H7        1.0  0.81410  0.45695  0.37588  1.0000
  H   H8        1.0  0.31410  0.54305  0.87588  1.0000
  H   H9        1.0  0.87448  0.77148  0.09563  1.0000
  H   H10       1.0  0.37445  0.22852  0.59563  1.0000
  H   H11       1.0  0.84984  0.79484  0.24176  1.0000
  H   H12       1.0  0.34983  0.20515  0.74176  1.0000
  H   H13       1.0  0.49785  0.83355  0.21085  1.0000
  H   H14       1.0  0.99784  0.16645  0.71085  1.0000
  H   H15       1.0  0.74701  0.95561  0.19602  1.0000
  H   H16       1.0  0.24699  0.04439  0.69602  1.0000
  C   C1        1.0  0.18135  0.47015  0.08579  1.0000
  C   C2        1.0  0.68135  0.52985  0.58578  1.0000
  C   C3        1.0  0.28310  0.34912  0.05913  1.0000
  C   C4        1.0  0.78310  0.65088  0.55913  1.0000
  C   C5        1.0  0.22820  0.22873  0.09883  1.0000
  C   C6        1.0  0.72818  0.77127  0.59883  1.0000
  C   C7        1.0  0.07625  0.22916  0.16659  1.0000
  C   C8        1.0  0.57623  0.77083  0.66659  1.0000
  C   C9        1.0  0.98756  0.35080  0.19668  1.0000
  C   C10       1.0  0.48754  0.64920  0.69668  1.0000
  C   C11       1.0  0.03705  0.47126  0.15560  1.0000
  C   C12       1.0  0.53703  0.52873  0.65560  1.0000
  C   C13       1.0  0.23630  0.59645  0.04088  1.0000
  C   C14       1.0  0.73628  0.40355  0.54089  1.0000
  C   C15       1.0  0.32362  0.10044  0.06560  1.0000
  C   C16       1.0  0.82360  0.89956  0.56559  1.0000
  C   C17       1.0  0.85849  0.34901  0.27654  1.0000
  C   C18       1.0  0.35850  0.65098  0.77655  1.0000
  C   C19       1.0  0.69750  0.84841  0.19395  1.0000
  C   C20       1.0  0.19749  0.15158  0.69395  1.0000
  N   N1        1.0  0.85022  0.97511  0.87671  1.0000
  N   N2        1.0  0.35018  0.02489  0.37671  1.0000
  O   O1        1.0  0.15156  0.70909  0.06623  1.0000
  O   O2        1.0  0.65155  0.29092  0.56623  1.0000
  O   O3        1.0  0.37431  0.59350  0.97911  1.0000
  O   O4        1.0  0.87431  0.40650  0.47912  1.0000
  O   O5        1.0  0.51707  0.09821  0.02322  1.0000
  O   O6        1.0  0.01705  0.90180  0.52321  1.0000
  O   O7        1.0  0.19356  0.99218  0.07795  1.0000
  O   O8        1.0  0.69353  0.00781  0.57795  1.0000
  O   O9        1.0  0.78273  0.24397  0.30738  1.0000
  O   O10       1.0  0.28273  0.75603  0.80738  1.0000
  O   O11       1.0  0.84467  0.46982  0.31312  1.0000
  O   O12       1.0  0.34465  0.53018  0.81312  1.0000
  O   O13       1.0  0.69008  0.79425  0.10587  1.0000
  O   O14       1.0  0.19006  0.20575  0.60587  1.0000
  O   O15       1.0  0.86335  0.86410  0.92379  1.0000
  O   O16       1.0  0.36331  0.13591  0.42379  1.0000
  O   O17       1.0  0.62819  0.01821  0.84002  1.0000
  O   O18       1.0  0.12815  0.98180  0.34002  1.0000
  O   O19       1.0  0.07163  0.03216  0.87260  1.0000
  O   O20       1.0  0.57158  0.96785  0.37260  1.0000
