data_image0
_chemical_formula_structural       Cd3H14C22S6N16
_chemical_formula_sum              "Cd3 H14 C22 S6 N16"
_cell_length_a       8.59543
_cell_length_b       8.68354
_cell_length_c       11.6941
_cell_angle_alpha    77.9087
_cell_angle_beta     76.0632
_cell_angle_gamma    87.4248

_space_group_name_H-M_alt    "P 1"
_space_group_IT_number       1

loop_
  _space_group_symop_operation_xyz
  'x, y, z'

loop_
  _atom_site_type_symbol
  _atom_site_label
  _atom_site_symmetry_multiplicity
  _atom_site_fract_x
  _atom_site_fract_y
  _atom_site_fract_z
  _atom_site_occupancy
  Cd  Cd1       1.0  0.96393  0.72691  0.31407  1.0000
  Cd  Cd2       1.0  0.03607  0.27309  0.68593  1.0000
  Cd  Cd3       1.0  0.50000  0.50000  0.00000  1.0000
  H   H1        1.0  0.59253  0.67223  0.43452  1.0000
  H   H2        1.0  0.40747  0.32777  0.56548  1.0000
  H   H3        1.0  0.32957  0.81564  0.45095  1.0000
  H   H4        1.0  0.67043  0.18435  0.54904  1.0000
  H   H5        1.0  0.33122  0.10377  0.35723  1.0000
  H   H6        1.0  0.66878  0.89623  0.64277  1.0000
  H   H7        1.0  0.59410  0.23621  0.24891  1.0000
  H   H8        1.0  0.40590  0.76378  0.75109  1.0000
  H   H9        1.0  0.88222  0.22768  0.19224  1.0000
  H   H10       1.0  0.11777  0.77232  0.80777  1.0000
  H   H11       1.0  0.29590  0.90707  0.08426  1.0000
  H   H12       1.0  0.70410  0.09293  0.91575  1.0000
  H   H13       1.0  0.11903  0.33553  0.18853  1.0000
  H   H14       1.0  0.88097  0.66446  0.81147  1.0000
  C   C1        1.0  0.13036  0.65508  0.04257  1.0000
  C   C2        1.0  0.86965  0.34493  0.95742  1.0000
  C   C3        1.0  0.07667  0.63516  0.56855  1.0000
  C   C4        1.0  0.92336  0.36483  0.43145  1.0000
  C   C5        1.0  0.35059  0.61852  0.25760  1.0000
  C   C6        1.0  0.64940  0.38147  0.74241  1.0000
  C   C7        1.0  0.58704  0.79713  0.39466  1.0000
  C   C8        1.0  0.41296  0.20286  0.60534  1.0000
  C   C9        1.0  0.44123  0.87776  0.40382  1.0000
  C   C10       1.0  0.55877  0.12224  0.59618  1.0000
  C   C11       1.0  0.44252  0.03704  0.35123  1.0000
  C   C12       1.0  0.55747  0.96296  0.64877  1.0000
  C   C13       1.0  0.58872  0.11172  0.29167  1.0000
  C   C14       1.0  0.41128  0.88828  0.70834  1.0000
  C   C15       1.0  0.72941  0.02366  0.28671  1.0000
  C   C16       1.0  0.27059  0.97634  0.71330  1.0000
  C   C17       1.0  0.88355  0.10007  0.22536  1.0000
  C   C18       1.0  0.11645  0.89994  0.77464  1.0000
  C   C19       1.0  0.28986  0.02848  0.09499  1.0000
  C   C20       1.0  0.71014  0.97151  0.90501  1.0000
  C   C21       1.0  0.19667  0.24953  0.14848  1.0000
  C   C22       1.0  0.80333  0.75047  0.85152  1.0000
  S   S1        1.0  0.93829  0.66597  0.09977  1.0000
  S   S2        1.0  0.06172  0.33405  0.90022  1.0000
  S   S3        1.0  0.98996  0.80325  0.53292  1.0000
  S   S4        1.0  0.01005  0.19677  0.46707  1.0000
  S   S5        1.0  0.52732  0.54182  0.22366  1.0000
  S   S6        1.0  0.47268  0.45817  0.77635  1.0000
  N   N1        1.0  0.26932  0.64831  0.99883  1.0000
  N   N2        1.0  0.73068  0.35170  0.00116  1.0000
  N   N3        1.0  0.14387  0.51489  0.59361  1.0000
  N   N4        1.0  0.85613  0.48514  0.40637  1.0000
  N   N5        1.0  0.22443  0.67939  0.28178  1.0000
  N   N6        1.0  0.77557  0.32060  0.71822  1.0000
  N   N7        1.0  0.72718  0.86835  0.33764  1.0000
  N   N8        1.0  0.27282  0.13165  0.66237  1.0000
  N   N9        1.0  0.01277  0.01754  0.20981  1.0000
  N   N10       1.0  0.98723  0.98246  0.79020  1.0000
  N   N11       1.0  0.15526  0.09605  0.15603  1.0000
  N   N12       1.0  0.84474  0.90395  0.84398  1.0000
  N   N13       1.0  0.40578  0.13334  0.05232  1.0000
  N   N14       1.0  0.59422  0.86665  0.94769  1.0000
  N   N15       1.0  0.34678  0.27124  0.08747  1.0000
  N   N16       1.0  0.65322  0.72876  0.91253  1.0000
