data_image0
_chemical_formula_structural       Cd4H28C32I8N20
_chemical_formula_sum              "Cd4 H28 C32 I8 N20"
_cell_length_a       9.38257
_cell_length_b       9.6508
_cell_length_c       15.1044
_cell_angle_alpha    90.0001
_cell_angle_beta     90
_cell_angle_gamma    108.082

_space_group_name_H-M_alt    "P 1"
_space_group_IT_number       1

loop_
  _space_group_symop_operation_xyz
  'x, y, z'

loop_
  _atom_site_type_symbol
  _atom_site_label
  _atom_site_symmetry_multiplicity
  _atom_site_fract_x
  _atom_site_fract_y
  _atom_site_fract_z
  _atom_site_occupancy
  Cd  Cd1       1.0  0.04840  0.39843  0.89142  1.0000
  Cd  Cd2       1.0  0.45160  0.10157  0.39142  1.0000
  Cd  Cd3       1.0  0.95160  0.60157  0.10858  1.0000
  Cd  Cd4       1.0  0.54840  0.89843  0.60858  1.0000
  H   H1        1.0  0.13616  0.96863  0.89835  1.0000
  H   H2        1.0  0.36384  0.53137  0.39834  1.0000
  H   H3        1.0  0.86384  0.03137  0.10166  1.0000
  H   H4        1.0  0.63616  0.46862  0.60166  1.0000
  H   H5        1.0  0.77854  0.14095  0.77460  1.0000
  H   H6        1.0  0.72146  0.35905  0.27460  1.0000
  H   H7        1.0  0.22146  0.85905  0.22540  1.0000
  H   H8        1.0  0.27854  0.64095  0.72540  1.0000
  H   H9        1.0  0.32520  0.01059  0.00540  1.0000
  H   H10       1.0  0.17480  0.48940  0.50539  1.0000
  H   H11       1.0  0.67480  0.98941  0.99461  1.0000
  H   H12       1.0  0.82520  0.51059  0.49461  1.0000
  H   H13       1.0  0.47360  0.42566  0.14067  1.0000
  H   H14       1.0  0.02640  0.07434  0.64067  1.0000
  H   H15       1.0  0.52639  0.57434  0.85933  1.0000
  H   H16       1.0  0.97360  0.92565  0.35933  1.0000
  H   H17       1.0  0.01201  0.82764  0.79871  1.0000
  H   H18       1.0  0.48799  0.67236  0.29871  1.0000
  H   H19       1.0  0.98799  0.17237  0.20128  1.0000
  H   H20       1.0  0.51201  0.32764  0.70129  1.0000
  H   H21       1.0  0.29132  0.50393  0.05014  1.0000
  H   H22       1.0  0.20869  0.99608  0.55014  1.0000
  H   H23       1.0  0.70868  0.49608  0.94986  1.0000
  H   H24       1.0  0.79131  0.00391  0.44986  1.0000
  H   H25       1.0  0.49454  0.17297  0.11860  1.0000
  H   H26       1.0  0.00546  0.32703  0.61859  1.0000
  H   H27       1.0  0.50545  0.82703  0.88141  1.0000
  H   H28       1.0  0.99454  0.67297  0.38141  1.0000
  C   C1        1.0  0.12065  0.07589  0.90709  1.0000
  C   C2        1.0  0.37935  0.42412  0.40709  1.0000
  C   C3        1.0  0.87935  0.92412  0.09292  1.0000
  C   C4        1.0  0.62065  0.57588  0.59292  1.0000
  C   C5        1.0  0.22144  0.17325  0.96990  1.0000
  C   C6        1.0  0.27855  0.32675  0.46989  1.0000
  C   C7        1.0  0.77855  0.82675  0.03011  1.0000
  C   C8        1.0  0.72145  0.67325  0.53011  1.0000
  C   C9        1.0  0.80906  0.04167  0.76624  1.0000
  C   C10       1.0  0.69094  0.45833  0.26624  1.0000
  C   C11       1.0  0.19094  0.95833  0.23376  1.0000
  C   C12       1.0  0.30907  0.54166  0.73376  1.0000
  C   C13       1.0  0.32220  0.12116  0.01757  1.0000
  C   C14       1.0  0.17779  0.37884  0.51757  1.0000
  C   C15       1.0  0.67779  0.87885  0.98243  1.0000
  C   C16       1.0  0.82221  0.62115  0.48243  1.0000
  C   C17       1.0  0.40438  0.35031  0.09278  1.0000
  C   C18       1.0  0.09563  0.14969  0.59277  1.0000
  C   C19       1.0  0.59562  0.64969  0.90723  1.0000
  C   C20       1.0  0.90438  0.85030  0.40722  1.0000
  C   C21       1.0  0.93109  0.88114  0.77854  1.0000
  C   C22       1.0  0.56891  0.61886  0.27853  1.0000
  C   C23       1.0  0.06891  0.11887  0.22146  1.0000
  C   C24       1.0  0.43110  0.38113  0.72146  1.0000
  C   C25       1.0  0.30219  0.39525  0.04201  1.0000
  C   C26       1.0  0.19782  0.10476  0.54201  1.0000
  C   C27       1.0  0.69781  0.60476  0.95799  1.0000
  C   C28       1.0  0.80218  0.89524  0.45799  1.0000
  C   C29       1.0  0.41575  0.21137  0.08015  1.0000
  C   C30       1.0  0.08425  0.28864  0.58015  1.0000
  C   C31       1.0  0.58425  0.78864  0.91985  1.0000
  C   C32       1.0  0.91574  0.71137  0.41985  1.0000
  I   I1        1.0  0.16971  0.70039  0.96166  1.0000
  I   I2        1.0  0.33029  0.79961  0.46165  1.0000
  I   I3        1.0  0.83029  0.29962  0.03834  1.0000
  I   I4        1.0  0.66971  0.20038  0.53834  1.0000
  I   I5        1.0  0.85645  0.45190  0.76030  1.0000
  I   I6        1.0  0.64355  0.04810  0.26030  1.0000
  I   I7        1.0  0.14355  0.54812  0.23970  1.0000
  I   I8        1.0  0.35644  0.95187  0.73969  1.0000
  N   N1        1.0  0.92711  0.01567  0.80887  1.0000
  N   N2        1.0  0.57289  0.48433  0.30887  1.0000
  N   N3        1.0  0.07289  0.98433  0.19113  1.0000
  N   N4        1.0  0.42711  0.51567  0.69113  1.0000
  N   N5        1.0  0.21311  0.30965  0.98161  1.0000
  N   N6        1.0  0.28689  0.19035  0.48161  1.0000
  N   N7        1.0  0.78689  0.69036  0.01840  1.0000
  N   N8        1.0  0.71311  0.80964  0.51839  1.0000
  N   N9        1.0  0.74664  0.93097  0.71336  1.0000
  N   N10       1.0  0.75336  0.56903  0.21336  1.0000
  N   N11       1.0  0.25336  0.06904  0.28664  1.0000
  N   N12       1.0  0.24664  0.43096  0.78664  1.0000
  N   N13       1.0  0.01765  0.11452  0.86694  1.0000
  N   N14       1.0  0.48235  0.38548  0.36694  1.0000
  N   N15       1.0  0.98235  0.88548  0.13306  1.0000
  N   N16       1.0  0.51765  0.61452  0.63306  1.0000
  N   N17       1.0  0.82298  0.82969  0.72075  1.0000
  N   N18       1.0  0.67702  0.67031  0.22075  1.0000
  N   N19       1.0  0.17702  0.17032  0.27925  1.0000
  N   N20       1.0  0.32298  0.32969  0.77925  1.0000
