data_image0
_chemical_formula_structural       Cd2H42C32N14O10
_chemical_formula_sum              "Cd2 H42 C32 N14 O10"
_cell_length_a       8.85868
_cell_length_b       9.58432
_cell_length_c       12.655
_cell_angle_alpha    103.521
_cell_angle_beta     90
_cell_angle_gamma    90

_space_group_name_H-M_alt    "P 1"
_space_group_IT_number       1

loop_
  _space_group_symop_operation_xyz
  'x, y, z'

loop_
  _atom_site_type_symbol
  _atom_site_label
  _atom_site_symmetry_multiplicity
  _atom_site_fract_x
  _atom_site_fract_y
  _atom_site_fract_z
  _atom_site_occupancy
  Cd  Cd1       1.0  0.26178  0.35154  0.21421  1.0000
  Cd  Cd2       1.0  0.76177  0.64846  0.78579  1.0000
  H   H1        1.0  0.01026  0.94722  0.43995  1.0000
  H   H2        1.0  0.51026  0.05278  0.56004  1.0000
  H   H3        1.0  0.47413  0.51165  0.62352  1.0000
  H   H4        1.0  0.97413  0.48835  0.37648  1.0000
  H   H5        1.0  0.86484  0.41358  0.19396  1.0000
  H   H6        1.0  0.36484  0.58642  0.80604  1.0000
  H   H7        1.0  0.96601  0.05646  0.85648  1.0000
  H   H8        1.0  0.46602  0.94354  0.14352  1.0000
  H   H9        1.0  0.93057  0.75052  0.33009  1.0000
  H   H10       1.0  0.43057  0.24948  0.66991  1.0000
  H   H11       1.0  0.87691  0.70829  0.19347  1.0000
  H   H12       1.0  0.37691  0.29172  0.80653  1.0000
  H   H13       1.0  0.95367  0.95730  0.23444  1.0000
  H   H14       1.0  0.45367  0.04270  0.76556  1.0000
  H   H15       1.0  0.09281  0.85661  0.14860  1.0000
  H   H16       1.0  0.59281  0.14340  0.85139  1.0000
  H   H17       1.0  0.26524  0.86901  0.30080  1.0000
  H   H18       1.0  0.76524  0.13099  0.69920  1.0000
  H   H19       1.0  0.22260  0.02088  0.66813  1.0000
  H   H20       1.0  0.72260  0.97912  0.33187  1.0000
  H   H21       1.0  0.03243  0.01007  0.61888  1.0000
  H   H22       1.0  0.53243  0.98993  0.38112  1.0000
  H   H23       1.0  0.12971  0.17824  0.65266  1.0000
  H   H24       1.0  0.62971  0.82176  0.34734  1.0000
  H   H25       1.0  0.34476  0.69833  0.36520  1.0000
  H   H26       1.0  0.84475  0.30167  0.63480  1.0000
  H   H27       1.0  0.47746  0.75139  0.57298  1.0000
  H   H28       1.0  0.97746  0.24861  0.42702  1.0000
  H   H29       1.0  0.36055  0.31217  0.47015  1.0000
  H   H30       1.0  0.86056  0.68784  0.52985  1.0000
  H   H31       1.0  0.62459  0.47637  0.30696  1.0000
  H   H32       1.0  0.12459  0.52363  0.69303  1.0000
  H   H33       1.0  0.80478  0.25083  0.00564  1.0000
  H   H34       1.0  0.30478  0.74916  0.99436  1.0000
  H   H35       1.0  0.49040  0.21781  0.00544  1.0000
  H   H36       1.0  0.99040  0.78219  0.99456  1.0000
  H   H37       1.0  0.15299  0.46709  0.99345  1.0000
  H   H38       1.0  0.65299  0.53291  0.00655  1.0000
  H   H39       1.0  0.97313  0.30964  0.82686  1.0000
  H   H40       1.0  0.47313  0.69036  0.17314  1.0000
  H   H41       1.0  0.13112  0.03863  0.02337  1.0000
  H   H42       1.0  0.63112  0.96136  0.97663  1.0000
  C   C1        1.0  0.08143  0.60922  0.22425  1.0000
  C   C2        1.0  0.58143  0.39078  0.77575  1.0000
  C   C3        1.0  0.97572  0.73746  0.24723  1.0000
  C   C4        1.0  0.47571  0.26254  0.75277  1.0000
  C   C5        1.0  0.04355  0.87678  0.23034  1.0000
  C   C6        1.0  0.54355  0.12322  0.76966  1.0000
  C   C7        1.0  0.16984  0.94401  0.30921  1.0000
  C   C8        1.0  0.66984  0.05600  0.69079  1.0000
  C   C9        1.0  0.22485  0.07614  0.27057  1.0000
  C   C10       1.0  0.72485  0.92386  0.72943  1.0000
  C   C11       1.0  0.20618  0.04134  0.50455  1.0000
  C   C12       1.0  0.70617  0.95866  0.49545  1.0000
  C   C13       1.0  0.14183  0.06263  0.61739  1.0000
  C   C14       1.0  0.64183  0.93737  0.38261  1.0000
  C   C15       1.0  0.36739  0.62673  0.41803  1.0000
  C   C16       1.0  0.86739  0.37327  0.58197  1.0000
  C   C17       1.0  0.43070  0.65553  0.52009  1.0000
  C   C18       1.0  0.93070  0.34447  0.47991  1.0000
  C   C19       1.0  0.37256  0.42454  0.46847  1.0000
  C   C20       1.0  0.87256  0.57546  0.53153  1.0000
  C   C21       1.0  0.62883  0.40968  0.22496  1.0000
  C   C22       1.0  0.12883  0.59032  0.77503  1.0000
  C   C23       1.0  0.72068  0.28956  0.06757  1.0000
  C   C24       1.0  0.22068  0.71044  0.93243  1.0000
  C   C25       1.0  0.56609  0.27536  0.06788  1.0000
  C   C26       1.0  0.06609  0.72464  0.93211  1.0000
  C   C27       1.0  0.12384  0.35407  0.97370  1.0000
  C   C28       1.0  0.62384  0.64593  0.02630  1.0000
  C   C29       1.0  0.03727  0.27694  0.88986  1.0000
  C   C30       1.0  0.53727  0.72306  0.11014  1.0000
  C   C31       1.0  0.11469  0.13442  0.99317  1.0000
  C   C32       1.0  0.61469  0.86559  0.00683  1.0000
  N   N1        1.0  0.11696  0.97746  0.42130  1.0000
  N   N2        1.0  0.61697  0.02254  0.57870  1.0000
  N   N3        1.0  0.33145  0.48245  0.38677  1.0000
  N   N4        1.0  0.83145  0.51755  0.61323  1.0000
  N   N5        1.0  0.43299  0.52643  0.55015  1.0000
  N   N6        1.0  0.93299  0.47357  0.44985  1.0000
  N   N7        1.0  0.51033  0.35085  0.16630  1.0000
  N   N8        1.0  0.01033  0.64915  0.83370  1.0000
  N   N9        1.0  0.75795  0.37458  0.16770  1.0000
  N   N10       1.0  0.25795  0.62542  0.83230  1.0000
  N   N11       1.0  0.17156  0.26386  0.03788  1.0000
  N   N12       1.0  0.67156  0.73614  0.96212  1.0000
  N   N13       1.0  0.03320  0.13820  0.90317  1.0000
  N   N14       1.0  0.53320  0.86180  0.09683  1.0000
  O   O1        1.0  0.02892  0.49205  0.24564  1.0000
  O   O2        1.0  0.52892  0.50795  0.75436  1.0000
  O   O3        1.0  0.21149  0.61629  0.18693  1.0000
  O   O4        1.0  0.71149  0.38371  0.81308  1.0000
  O   O5        1.0  0.33686  0.06316  0.20671  1.0000
  O   O6        1.0  0.83686  0.93684  0.79329  1.0000
  O   O7        1.0  0.14614  0.18996  0.29860  1.0000
  O   O8        1.0  0.64614  0.81005  0.70140  1.0000
  O   O9        1.0  0.33763  0.08248  0.48935  1.0000
  O   O10       1.0  0.83764  0.91752  0.51065  1.0000
