data_image0
_chemical_formula_structural       MnH24C36S4N12Cl2
_chemical_formula_sum              "Mn1 H24 C36 S4 N12 Cl2"
_cell_length_a       8.09612
_cell_length_b       10.0892
_cell_length_c       11.7566
_cell_angle_alpha    99.7476
_cell_angle_beta     107.385
_cell_angle_gamma    96.0026

_space_group_name_H-M_alt    "P 1"
_space_group_IT_number       1

loop_
  _space_group_symop_operation_xyz
  'x, y, z'

loop_
  _atom_site_type_symbol
  _atom_site_label
  _atom_site_symmetry_multiplicity
  _atom_site_fract_x
  _atom_site_fract_y
  _atom_site_fract_z
  _atom_site_occupancy
  Mn  Mn1       1.0  0.50000  0.00000  0.50000  1.0000
  H   H1        1.0  0.32245  0.74591  0.55398  1.0000
  H   H2        1.0  0.67755  0.25409  0.44601  1.0000
  H   H3        1.0  0.34151  0.39556  0.29482  1.0000
  H   H4        1.0  0.65850  0.60444  0.70518  1.0000
  H   H5        1.0  0.10873  0.89924  0.37439  1.0000
  H   H6        1.0  0.89127  0.10076  0.62561  1.0000
  H   H7        1.0  0.47962  0.55673  0.19542  1.0000
  H   H8        1.0  0.52039  0.44327  0.80458  1.0000
  H   H9        1.0  0.53395  0.80523  0.28216  1.0000
  H   H10       1.0  0.46605  0.19477  0.71783  1.0000
  H   H11       1.0  0.18372  0.28231  0.36342  1.0000
  H   H12       1.0  0.81628  0.71770  0.63658  1.0000
  H   H13       1.0  0.86605  0.95027  0.21146  1.0000
  H   H14       1.0  0.13395  0.04973  0.78854  1.0000
  H   H15       1.0  0.93707  0.10344  0.07494  1.0000
  H   H16       1.0  0.06293  0.89655  0.92505  1.0000
  H   H17       1.0  0.05361  0.15197  0.48740  1.0000
  H   H18       1.0  0.94638  0.84803  0.51260  1.0000
  H   H19       1.0  0.48204  0.13770  0.28689  1.0000
  H   H20       1.0  0.51796  0.86230  0.71311  1.0000
  H   H21       1.0  0.54087  0.18304  0.13058  1.0000
  H   H22       1.0  0.45913  0.81697  0.86943  1.0000
  H   H23       1.0  0.59314  0.32483  0.98557  1.0000
  H   H24       1.0  0.40685  0.67517  0.01443  1.0000
  C   C1        1.0  0.35821  0.70089  0.47578  1.0000
  C   C2        1.0  0.64179  0.29911  0.52422  1.0000
  C   C3        1.0  0.23367  0.47402  0.49543  1.0000
  C   C4        1.0  0.76633  0.52598  0.50457  1.0000
  C   C5        1.0  0.36322  0.50502  0.32958  1.0000
  C   C6        1.0  0.63679  0.49498  0.67042  1.0000
  C   C7        1.0  0.13546  0.96635  0.31661  1.0000
  C   C8        1.0  0.86454  0.03365  0.68340  1.0000
  C   C9        1.0  0.43917  0.59382  0.27390  1.0000
  C   C10       1.0  0.56084  0.40618  0.72610  1.0000
  C   C11       1.0  0.47166  0.73313  0.32194  1.0000
  C   C12       1.0  0.52835  0.26687  0.67806  1.0000
  C   C13       1.0  0.31902  0.55969  0.43228  1.0000
  C   C14       1.0  0.68098  0.44031  0.56771  1.0000
  C   C15       1.0  0.17414  0.33400  0.44943  1.0000
  C   C16       1.0  0.82586  0.66600  0.55057  1.0000
  C   C17       1.0  0.00031  0.99409  0.22300  1.0000
  C   C18       1.0  0.99969  0.00591  0.77701  1.0000
  C   C19       1.0  0.03860  0.07744  0.14820  1.0000
  C   C20       1.0  0.96140  0.92256  0.85180  1.0000
  C   C21       1.0  0.09991  0.26149  0.51753  1.0000
  C   C22       1.0  0.90009  0.73851  0.48247  1.0000
  C   C23       1.0  0.13644  0.45550  0.65619  1.0000
  C   C24       1.0  0.86356  0.54451  0.34381  1.0000
  C   C25       1.0  0.34347  0.09872  0.26611  1.0000
  C   C26       1.0  0.65653  0.90128  0.73389  1.0000
  C   C27       1.0  0.21565  0.12712  0.16727  1.0000
  C   C28       1.0  0.78435  0.87288  0.83273  1.0000
  C   C29       1.0  0.18166  0.34018  0.94416  1.0000
  C   C30       1.0  0.81833  0.65982  0.05583  1.0000
  C   C31       1.0  0.26515  0.20913  0.08604  1.0000
  C   C32       1.0  0.73484  0.79087  0.91396  1.0000
  C   C33       1.0  0.43507  0.22774  0.07725  1.0000
  C   C34       1.0  0.56493  0.77226  0.92275  1.0000
  C   C35       1.0  0.46392  0.30635  0.99636  1.0000
  C   C36       1.0  0.53607  0.69365  0.00363  1.0000
  S   S1        1.0  0.00048  0.40622  0.85931  1.0000
  S   S2        1.0  0.99952  0.59378  0.14068  1.0000
  S   S3        1.0  0.11014  0.54952  0.79062  1.0000
  S   S4        1.0  0.88985  0.45047  0.20938  1.0000
  N   N1        1.0  0.43516  0.78775  0.42387  1.0000
  N   N2        1.0  0.56484  0.21225  0.57613  1.0000
  N   N3        1.0  0.21305  0.53548  0.60057  1.0000
  N   N4        1.0  0.78695  0.46452  0.39943  1.0000
  N   N5        1.0  0.08047  0.32141  0.62270  1.0000
  N   N6        1.0  0.91953  0.67859  0.37730  1.0000
  N   N7        1.0  0.30612  0.02276  0.34255  1.0000
  N   N8        1.0  0.69388  0.97724  0.65746  1.0000
  N   N9        1.0  0.13781  0.26653  0.01849  1.0000
  N   N10       1.0  0.86218  0.73347  0.98150  1.0000
  N   N11       1.0  0.33802  0.36331  0.92815  1.0000
  N   N12       1.0  0.66197  0.63669  0.07185  1.0000
  Cl  Cl1       1.0  0.28745  0.98497  0.59896  1.0000
  Cl  Cl2       1.0  0.71255  0.01503  0.40104  1.0000
