data_image0
_chemical_formula_structural       Cu4H56C68N4O16
_chemical_formula_sum              "Cu4 H56 C68 N4 O16"
_cell_length_a       9.70889
_cell_length_b       11.0841
_cell_length_c       18.453
_cell_angle_alpha    97.1329
_cell_angle_beta     90
_cell_angle_gamma    90

_space_group_name_H-M_alt    "P 1"
_space_group_IT_number       1

loop_
  _space_group_symop_operation_xyz
  'x, y, z'

loop_
  _atom_site_type_symbol
  _atom_site_label
  _atom_site_symmetry_multiplicity
  _atom_site_fract_x
  _atom_site_fract_y
  _atom_site_fract_z
  _atom_site_occupancy
  Cu  Cu1       1.0  0.13276  0.48317  0.99938  1.0000
  Cu  Cu2       1.0  0.63113  0.51668  0.50064  1.0000
  Cu  Cu3       1.0  0.86726  0.51683  0.00062  1.0000
  Cu  Cu4       1.0  0.36887  0.48332  0.49936  1.0000
  H   H1        1.0  0.34395  0.63570  0.94759  1.0000
  H   H2        1.0  0.84392  0.36429  0.55242  1.0000
  H   H3        1.0  0.65605  0.36430  0.05242  1.0000
  H   H4        1.0  0.15608  0.63571  0.44758  1.0000
  H   H5        1.0  0.33465  0.32153  0.10981  1.0000
  H   H6        1.0  0.83463  0.67847  0.39019  1.0000
  H   H7        1.0  0.66536  0.67847  0.89019  1.0000
  H   H8        1.0  0.16536  0.32153  0.60981  1.0000
  H   H9        1.0  0.46433  0.22711  0.06348  1.0000
  H   H10       1.0  0.96431  0.77289  0.43652  1.0000
  H   H11       1.0  0.53568  0.77289  0.93652  1.0000
  H   H12       1.0  0.03568  0.22711  0.56349  1.0000
  H   H13       1.0  0.30271  0.25233  0.02025  1.0000
  H   H14       1.0  0.80268  0.74767  0.47975  1.0000
  H   H15       1.0  0.69730  0.74766  0.97975  1.0000
  H   H16       1.0  0.19731  0.25232  0.52025  1.0000
  H   H17       1.0  0.23921  0.60454  0.79338  1.0000
  H   H18       1.0  0.73922  0.39543  0.70661  1.0000
  H   H19       1.0  0.76078  0.39545  0.20661  1.0000
  H   H20       1.0  0.26079  0.60456  0.29339  1.0000
  H   H21       1.0  0.25019  0.67843  0.67058  1.0000
  H   H22       1.0  0.75023  0.32156  0.82945  1.0000
  H   H23       1.0  0.74980  0.32157  0.32941  1.0000
  H   H24       1.0  0.24978  0.67845  0.17055  1.0000
  H   H25       1.0  0.03434  0.71450  0.60504  1.0000
  H   H26       1.0  0.53434  0.28552  0.89497  1.0000
  H   H27       1.0  0.96565  0.28551  0.39496  1.0000
  H   H28       1.0  0.46567  0.71449  0.10504  1.0000
  H   H29       1.0  0.80676  0.66935  0.65832  1.0000
  H   H30       1.0  0.30674  0.33065  0.84172  1.0000
  H   H31       1.0  0.19323  0.33065  0.34168  1.0000
  H   H32       1.0  0.69327  0.66935  0.15828  1.0000
  H   H33       1.0  0.79735  0.59649  0.78072  1.0000
  H   H34       1.0  0.29737  0.40352  0.71928  1.0000
  H   H35       1.0  0.20264  0.40351  0.21928  1.0000
  H   H36       1.0  0.70264  0.59648  0.28072  1.0000
  H   H37       1.0  0.16378  0.09837  0.91824  1.0000
  H   H38       1.0  0.66378  0.90162  0.58175  1.0000
  H   H39       1.0  0.83623  0.90163  0.08175  1.0000
  H   H40       1.0  0.33621  0.09837  0.41825  1.0000
  H   H41       1.0  0.12286  0.87679  0.87994  1.0000
  H   H42       1.0  0.62288  0.12328  0.62008  1.0000
  H   H43       1.0  0.87714  0.12321  0.12006  1.0000
  H   H44       1.0  0.37712  0.87672  0.37992  1.0000
  H   H45       1.0  0.88387  0.79720  0.86933  1.0000
  H   H46       1.0  0.38387  0.20279  0.63067  1.0000
  H   H47       1.0  0.11614  0.20280  0.13066  1.0000
  H   H48       1.0  0.61613  0.79721  0.36933  1.0000
  H   H49       1.0  0.68515  0.93820  0.89442  1.0000
  H   H50       1.0  0.18511  0.06185  0.60559  1.0000
  H   H51       1.0  0.31485  0.06181  0.10558  1.0000
  H   H52       1.0  0.81489  0.93815  0.39441  1.0000
  H   H53       1.0  0.72725  0.15913  0.93203  1.0000
  H   H54       1.0  0.22726  0.84087  0.56797  1.0000
  H   H55       1.0  0.27276  0.84087  0.06797  1.0000
  H   H56       1.0  0.77273  0.15914  0.43204  1.0000
  C   C1        1.0  0.41512  0.57487  0.97093  1.0000
  C   C2        1.0  0.91511  0.42513  0.52907  1.0000
  C   C3        1.0  0.58488  0.42513  0.02908  1.0000
  C   C4        1.0  0.08489  0.57487  0.47093  1.0000
  C   C5        1.0  0.44317  0.40231  0.02723  1.0000
  C   C6        1.0  0.94316  0.59768  0.47277  1.0000
  C   C7        1.0  0.55683  0.59769  0.97277  1.0000
  C   C8        1.0  0.05684  0.40232  0.52723  1.0000
  C   C9        1.0  0.38363  0.29405  0.05661  1.0000
  C   C10       1.0  0.88361  0.70596  0.44339  1.0000
  C   C11       1.0  0.61638  0.70595  0.94339  1.0000
  C   C12       1.0  0.11639  0.29404  0.55661  1.0000
  C   C13       1.0  0.01113  0.55688  0.86917  1.0000
  C   C14       1.0  0.51114  0.44299  0.63100  1.0000
  C   C15       1.0  0.98884  0.44312  0.13083  1.0000
  C   C16       1.0  0.48887  0.55700  0.36899  1.0000
  C   C17       1.0  0.01767  0.59720  0.79458  1.0000
  C   C18       1.0  0.51770  0.40269  0.70544  1.0000
  C   C19       1.0  0.98232  0.40279  0.20542  1.0000
  C   C20       1.0  0.48231  0.59730  0.29456  1.0000
  C   C21       1.0  0.14544  0.62009  0.76352  1.0000
  C   C22       1.0  0.64548  0.37986  0.73651  1.0000
  C   C23       1.0  0.85454  0.37990  0.23648  1.0000
  C   C24       1.0  0.35453  0.62013  0.26348  1.0000
  C   C25       1.0  0.15117  0.66201  0.69538  1.0000
  C   C26       1.0  0.65122  0.33800  0.80465  1.0000
  C   C27       1.0  0.84881  0.33799  0.30462  1.0000
  C   C28       1.0  0.34879  0.66200  0.19534  1.0000
  C   C29       1.0  0.02936  0.68131  0.65817  1.0000
  C   C30       1.0  0.52936  0.31869  0.84184  1.0000
  C   C31       1.0  0.97063  0.31870  0.34183  1.0000
  C   C32       1.0  0.47065  0.68132  0.15816  1.0000
  C   C33       1.0  0.90164  0.65705  0.68819  1.0000
  C   C34       1.0  0.40163  0.34291  0.81183  1.0000
  C   C35       1.0  0.09835  0.34295  0.31181  1.0000
  C   C36       1.0  0.59838  0.65709  0.18817  1.0000
  C   C37       1.0  0.89592  0.61548  0.75640  1.0000
  C   C38       1.0  0.39593  0.38447  0.74362  1.0000
  C   C39       1.0  0.10407  0.38452  0.24360  1.0000
  C   C40       1.0  0.60408  0.61553  0.25638  1.0000
  C   C41       1.0  0.97117  0.27366  0.95218  1.0000
  C   C42       1.0  0.47108  0.72666  0.54787  1.0000
  C   C43       1.0  0.02882  0.72634  0.04782  1.0000
  C   C44       1.0  0.52892  0.27334  0.45213  1.0000
  C   C45       1.0  0.94785  0.14158  0.92721  1.0000
  C   C46       1.0  0.44785  0.85850  0.57277  1.0000
  C   C47       1.0  0.05216  0.85842  0.07279  1.0000
  C   C48       1.0  0.55215  0.14150  0.42723  1.0000
  C   C49       1.0  0.05956  0.06221  0.91241  1.0000
  C   C50       1.0  0.55956  0.93786  0.58760  1.0000
  C   C51       1.0  0.94045  0.93780  0.08759  1.0000
  C   C52       1.0  0.44044  0.06214  0.41240  1.0000
  C   C53       1.0  0.03614  0.93877  0.89129  1.0000
  C   C54       1.0  0.53617  0.06129  0.60872  1.0000
  C   C55       1.0  0.96386  0.06123  0.10871  1.0000
  C   C56       1.0  0.46383  0.93871  0.39128  1.0000
  C   C57       1.0  0.90162  0.89389  0.88506  1.0000
  C   C58       1.0  0.40161  0.10612  0.61494  1.0000
  C   C59       1.0  0.09839  0.10611  0.11494  1.0000
  C   C60       1.0  0.59839  0.89388  0.38506  1.0000
  C   C61       1.0  0.79018  0.97299  0.89939  1.0000
  C   C62       1.0  0.29014  0.02705  0.60062  1.0000
  C   C63       1.0  0.20983  0.02701  0.10061  1.0000
  C   C64       1.0  0.70986  0.97295  0.39938  1.0000
  C   C65       1.0  0.81295  0.09640  0.92031  1.0000
  C   C66       1.0  0.31293  0.90367  0.57969  1.0000
  C   C67       1.0  0.18706  0.90361  0.07969  1.0000
  C   C68       1.0  0.68707  0.09634  0.42031  1.0000
  N   N1        1.0  0.35883  0.47949  0.99768  1.0000
  N   N2        1.0  0.85883  0.52050  0.50231  1.0000
  N   N3        1.0  0.64117  0.52051  0.00233  1.0000
  N   N4        1.0  0.14116  0.47950  0.49769  1.0000
  O   O1        1.0  0.12466  0.52803  0.89717  1.0000
  O   O2        1.0  0.62444  0.47212  0.60268  1.0000
  O   O3        1.0  0.87534  0.47197  0.10282  1.0000
  O   O4        1.0  0.37557  0.52787  0.39732  1.0000
  O   O5        1.0  0.89235  0.55705  0.89876  1.0000
  O   O6        1.0  0.39245  0.44313  0.60112  1.0000
  O   O7        1.0  0.10764  0.44294  0.10125  1.0000
  O   O8        1.0  0.60756  0.55687  0.39888  1.0000
  O   O9        1.0  0.09556  0.30956  0.96066  1.0000
  O   O10       1.0  0.59541  0.69006  0.53927  1.0000
  O   O11       1.0  0.90445  0.69043  0.03934  1.0000
  O   O12       1.0  0.40459  0.30994  0.46073  1.0000
  O   O13       1.0  0.86348  0.33936  0.96348  1.0000
  O   O14       1.0  0.36360  0.66044  0.53653  1.0000
  O   O15       1.0  0.13653  0.66064  0.03652  1.0000
  O   O16       1.0  0.63640  0.33957  0.46347  1.0000
