data_image0
_chemical_formula_structural       Cu2H24C32N2O8
_chemical_formula_sum              "Cu2 H24 C32 N2 O8"
_cell_length_a       9.64971
_cell_length_b       9.84413
_cell_length_c       10.7831
_cell_angle_alpha    89.8181
_cell_angle_beta     82.4486
_cell_angle_gamma    61.2127

_space_group_name_H-M_alt    "P 1"
_space_group_IT_number       1

loop_
  _space_group_symop_operation_xyz
  'x, y, z'

loop_
  _atom_site_type_symbol
  _atom_site_label
  _atom_site_symmetry_multiplicity
  _atom_site_fract_x
  _atom_site_fract_y
  _atom_site_fract_z
  _atom_site_occupancy
  Cu  Cu1       1.0  0.62669  0.50753  0.50860  1.0000
  Cu  Cu2       1.0  0.37331  0.49247  0.49140  1.0000
  H   H1        1.0  0.93504  0.04482  0.61039  1.0000
  H   H2        1.0  0.06495  0.95518  0.38960  1.0000
  H   H3        1.0  0.05178  0.78994  0.70749  1.0000
  H   H4        1.0  0.94823  0.21006  0.29250  1.0000
  H   H5        1.0  0.88330  0.66581  0.76724  1.0000
  H   H6        1.0  0.11670  0.33419  0.23274  1.0000
  H   H7        1.0  0.60568  0.78578  0.71686  1.0000
  H   H8        1.0  0.39431  0.21424  0.28314  1.0000
  H   H9        1.0  0.48982  0.04165  0.62149  1.0000
  H   H10       1.0  0.51018  0.95836  0.37851  1.0000
  H   H11       1.0  0.53112  0.69566  0.89630  1.0000
  H   H12       1.0  0.46885  0.30436  0.10371  1.0000
  H   H13       1.0  0.43580  0.77049  0.12487  1.0000
  H   H14       1.0  0.56418  0.22953  0.87513  1.0000
  H   H15       1.0  0.20685  0.74382  0.22873  1.0000
  H   H16       1.0  0.79316  0.25616  0.77128  1.0000
  H   H17       1.0  0.06265  0.65318  0.10324  1.0000
  H   H18       1.0  0.93737  0.34677  0.89678  1.0000
  H   H19       1.0  0.15566  0.58418  0.87374  1.0000
  H   H20       1.0  0.84433  0.41581  0.12628  1.0000
  H   H21       1.0  0.93580  0.33064  0.63105  1.0000
  H   H22       1.0  0.06422  0.66934  0.36895  1.0000
  H   H23       1.0  0.79283  0.67973  0.38418  1.0000
  H   H24       1.0  0.20720  0.32026  0.61582  1.0000
  C   C1        1.0  0.63132  0.21781  0.56329  1.0000
  C   C2        1.0  0.36868  0.78218  0.43670  1.0000
  C   C3        1.0  0.70432  0.06019  0.61302  1.0000
  C   C4        1.0  0.29568  0.93981  0.38697  1.0000
  C   C5        1.0  0.86328  0.98827  0.63595  1.0000
  C   C6        1.0  0.13672  0.01172  0.36404  1.0000
  C   C7        1.0  0.92773  0.84664  0.69112  1.0000
  C   C8        1.0  0.07227  0.15336  0.30887  1.0000
  C   C9        1.0  0.83333  0.77626  0.72331  1.0000
  C   C10       1.0  0.16667  0.22374  0.27668  1.0000
  C   C11       1.0  0.67642  0.84460  0.69711  1.0000
  C   C12       1.0  0.32358  0.15540  0.30288  1.0000
  C   C13       1.0  0.61194  0.98646  0.64221  1.0000
  C   C14       1.0  0.38805  0.01355  0.35778  1.0000
  C   C15       1.0  0.40624  0.58831  0.73500  1.0000
  C   C16       1.0  0.59375  0.41171  0.26501  1.0000
  C   C17       1.0  0.34814  0.63667  0.87130  1.0000
  C   C18       1.0  0.65183  0.36334  0.12870  1.0000
  C   C19       1.0  0.42709  0.68932  0.94200  1.0000
  C   C20       1.0  0.57289  0.31071  0.05800  1.0000
  C   C21       1.0  0.37423  0.72981  0.06978  1.0000
  C   C22       1.0  0.62576  0.27020  0.93023  1.0000
  C   C23       1.0  0.24387  0.71603  0.12811  1.0000
  C   C24       1.0  0.75613  0.28396  0.87190  1.0000
  C   C25       1.0  0.16448  0.66417  0.05792  1.0000
  C   C26       1.0  0.83553  0.33581  0.94209  1.0000
  C   C27       1.0  0.21566  0.62547  0.92981  1.0000
  C   C28       1.0  0.78433  0.37453  0.07020  1.0000
  C   C29       1.0  0.96534  0.40664  0.57303  1.0000
  C   C30       1.0  0.03468  0.59334  0.42697  1.0000
  C   C31       1.0  0.88667  0.59920  0.43530  1.0000
  C   C32       1.0  0.11336  0.40078  0.56470  1.0000
  N   N1        1.0  0.85254  0.50583  0.50848  1.0000
  N   N2        1.0  0.14748  0.49415  0.49152  1.0000
  O   O1        1.0  0.71498  0.28703  0.55372  1.0000
  O   O2        1.0  0.28504  0.71296  0.44625  1.0000
  O   O3        1.0  0.48955  0.27320  0.53734  1.0000
  O   O4        1.0  0.51045  0.72681  0.46268  1.0000
  O   O5        1.0  0.53957  0.57921  0.68917  1.0000
  O   O6        1.0  0.46043  0.42077  0.31084  1.0000
  O   O7        1.0  0.31756  0.55854  0.67448  1.0000
  O   O8        1.0  0.68242  0.44149  0.32552  1.0000
