data_image0
_chemical_formula_structural       Zn3H32C30S2N6O16
_chemical_formula_sum              "Zn3 H32 C30 S2 N6 O16"
_cell_length_a       7.6252
_cell_length_b       8.07489
_cell_length_c       16.4615
_cell_angle_alpha    92.9222
_cell_angle_beta     101.696
_cell_angle_gamma    114.41

_space_group_name_H-M_alt    "P 1"
_space_group_IT_number       1

loop_
  _space_group_symop_operation_xyz
  'x, y, z'

loop_
  _atom_site_type_symbol
  _atom_site_label
  _atom_site_symmetry_multiplicity
  _atom_site_fract_x
  _atom_site_fract_y
  _atom_site_fract_z
  _atom_site_occupancy
  Zn  Zn1       1.0  0.50000  0.00000  0.50000  1.0000
  Zn  Zn2       1.0  0.28349  0.21718  0.39272  1.0000
  Zn  Zn3       1.0  0.71651  0.78283  0.60728  1.0000
  H   H1        1.0  0.21583  0.24667  0.78859  1.0000
  H   H2        1.0  0.78417  0.75333  0.21141  1.0000
  H   H3        1.0  0.24789  0.33484  0.94114  1.0000
  H   H4        1.0  0.75211  0.66515  0.05886  1.0000
  H   H5        1.0  0.28725  0.86664  0.89432  1.0000
  H   H6        1.0  0.71275  0.13335  0.10568  1.0000
  H   H7        1.0  0.25806  0.78210  0.74266  1.0000
  H   H8        1.0  0.74194  0.21790  0.25735  1.0000
  H   H9        1.0  0.39367  0.63178  0.16210  1.0000
  H   H10       1.0  0.60634  0.36823  0.83790  1.0000
  H   H11       1.0  0.42688  0.71528  0.31337  1.0000
  H   H12       1.0  0.57313  0.28473  0.68663  1.0000
  H   H13       1.0  0.19018  0.05999  0.02418  1.0000
  H   H14       1.0  0.80982  0.94001  0.97582  1.0000
  H   H15       1.0  0.13751  0.32781  0.08038  1.0000
  H   H16       1.0  0.86249  0.67219  0.91961  1.0000
  H   H17       1.0  0.17464  0.39101  0.23552  1.0000
  H   H18       1.0  0.82536  0.60899  0.76448  1.0000
  H   H19       1.0  0.91626  0.94271  0.37456  1.0000
  H   H20       1.0  0.08375  0.05729  0.62544  1.0000
  H   H21       1.0  0.91027  0.11886  0.42023  1.0000
  H   H22       1.0  0.08974  0.88114  0.57977  1.0000
  H   H23       1.0  0.73521  0.26538  0.43527  1.0000
  H   H24       1.0  0.26479  0.73462  0.56473  1.0000
  H   H25       1.0  0.86573  0.26349  0.52377  1.0000
  H   H26       1.0  0.13427  0.73651  0.47623  1.0000
  H   H27       1.0  0.39805  0.58665  0.44369  1.0000
  H   H28       1.0  0.60195  0.41335  0.55631  1.0000
  H   H29       1.0  0.16549  0.48840  0.39548  1.0000
  H   H30       1.0  0.83451  0.51160  0.60452  1.0000
  H   H31       1.0  0.34747  0.21465  0.54914  1.0000
  H   H32       1.0  0.65252  0.78535  0.45086  1.0000
  C   C1        1.0  0.23490  0.50921  0.75742  1.0000
  C   C2        1.0  0.76510  0.49079  0.24258  1.0000
  C   C3        1.0  0.23054  0.38149  0.81215  1.0000
  C   C4        1.0  0.76946  0.61851  0.18785  1.0000
  C   C5        1.0  0.24753  0.43013  0.89664  1.0000
  C   C6        1.0  0.75246  0.56987  0.10336  1.0000
  C   C7        1.0  0.26532  0.60409  0.92654  1.0000
  C   C8        1.0  0.73468  0.39591  0.07346  1.0000
  C   C9        1.0  0.26923  0.73103  0.87031  1.0000
  C   C10       1.0  0.73077  0.26897  0.12969  1.0000
  C   C11       1.0  0.25409  0.68394  0.78617  1.0000
  C   C12       1.0  0.74591  0.31605  0.21383  1.0000
  C   C13       1.0  0.29356  0.83174  0.12067  1.0000
  C   C14       1.0  0.70644  0.16826  0.87933  1.0000
  C   C15       1.0  0.35777  0.74186  0.18267  1.0000
  C   C16       1.0  0.64224  0.25814  0.81733  1.0000
  C   C17       1.0  0.37754  0.78902  0.26746  1.0000
  C   C18       1.0  0.62246  0.21099  0.73255  1.0000
  C   C19       1.0  0.33330  0.93173  0.29563  1.0000
  C   C20       1.0  0.66669  0.06827  0.70437  1.0000
  C   C21       1.0  0.27486  0.03174  0.23313  1.0000
  C   C22       1.0  0.72514  0.96827  0.76686  1.0000
  C   C23       1.0  0.25542  0.98358  0.14646  1.0000
  C   C24       1.0  0.74458  0.01641  0.85354  1.0000
  C   C25       1.0  0.20321  0.09286  0.09077  1.0000
  C   C26       1.0  0.79679  0.90714  0.90923  1.0000
  C   C27       1.0  0.17361  0.23900  0.12162  1.0000
  C   C28       1.0  0.82639  0.76099  0.87838  1.0000
  C   C29       1.0  0.19559  0.27629  0.20860  1.0000
  C   C30       1.0  0.80440  0.72371  0.79140  1.0000
  S   S1        1.0  0.20690  0.45024  0.64921  1.0000
  S   S2        1.0  0.79310  0.54976  0.35079  1.0000
  N   N1        1.0  0.24445  0.17587  0.26211  1.0000
  N   N2        1.0  0.75555  0.82414  0.73788  1.0000
  N   N3        1.0  0.26743  0.78666  0.03555  1.0000
  N   N4        1.0  0.73257  0.21334  0.96445  1.0000
  N   N5        1.0  0.28283  0.63994  0.01294  1.0000
  N   N6        1.0  0.71717  0.36006  0.98706  1.0000
  O   O1        1.0  0.34302  0.98029  0.37358  1.0000
  O   O2        1.0  0.65698  0.01971  0.62642  1.0000
  O   O3        1.0  0.43223  0.22259  0.51067  1.0000
  O   O4        1.0  0.56777  0.77742  0.48933  1.0000
  O   O5        1.0  0.24273  0.28598  0.63867  1.0000
  O   O6        1.0  0.75727  0.71401  0.36133  1.0000
  O   O7        1.0  0.35023  0.61067  0.62180  1.0000
  O   O8        1.0  0.64976  0.38933  0.37820  1.0000
  O   O9        1.0  0.99978  0.41322  0.60832  1.0000
  O   O10       1.0  0.00022  0.58678  0.39168  1.0000
  O   O11       1.0  0.98188  0.07878  0.38462  1.0000
  O   O12       1.0  0.01813  0.92122  0.61538  1.0000
  O   O13       1.0  0.77551  0.18271  0.47011  1.0000
  O   O14       1.0  0.22449  0.81729  0.52989  1.0000
  O   O15       1.0  0.28742  0.46991  0.40626  1.0000
  O   O16       1.0  0.71258  0.53009  0.59374  1.0000
