data_image0
_chemical_formula_structural       Cd8H56C16S4O60
_chemical_formula_sum              "Cd8 H56 C16 S4 O60"
_cell_length_a       8.0839
_cell_length_b       9.27818
_cell_length_c       20.946
_cell_angle_alpha    90
_cell_angle_beta     90
_cell_angle_gamma    90

_space_group_name_H-M_alt    "P 1"
_space_group_IT_number       1

loop_
  _space_group_symop_operation_xyz
  'x, y, z'

loop_
  _atom_site_type_symbol
  _atom_site_label
  _atom_site_symmetry_multiplicity
  _atom_site_fract_x
  _atom_site_fract_y
  _atom_site_fract_z
  _atom_site_occupancy
  Cd  Cd1       1.0  0.48018  0.41292  0.28365  1.0000
  Cd  Cd2       1.0  0.01980  0.58708  0.78365  1.0000
  Cd  Cd3       1.0  0.51981  0.91291  0.21635  1.0000
  Cd  Cd4       1.0  0.98018  0.08708  0.71635  1.0000
  Cd  Cd5       1.0  0.63423  0.38187  0.00914  1.0000
  Cd  Cd6       1.0  0.86578  0.61813  0.50914  1.0000
  Cd  Cd7       1.0  0.36578  0.88187  0.49086  1.0000
  Cd  Cd8       1.0  0.13423  0.11813  0.99086  1.0000
  H   H1        1.0  0.47580  0.63798  0.37853  1.0000
  H   H2        1.0  0.02419  0.36202  0.87853  1.0000
  H   H3        1.0  0.52419  0.13799  0.12147  1.0000
  H   H4        1.0  0.97580  0.86202  0.62147  1.0000
  H   H5        1.0  0.65001  0.55353  0.38451  1.0000
  H   H6        1.0  0.84998  0.44647  0.88451  1.0000
  H   H7        1.0  0.34998  0.05354  0.11549  1.0000
  H   H8        1.0  0.15002  0.94646  0.61549  1.0000
  H   H9        1.0  0.59880  0.55335  0.87194  1.0000
  H   H10       1.0  0.90120  0.44665  0.37194  1.0000
  H   H11       1.0  0.40120  0.05335  0.62806  1.0000
  H   H12       1.0  0.09879  0.94665  0.12806  1.0000
  H   H13       1.0  0.59633  0.38766  0.85987  1.0000
  H   H14       1.0  0.90367  0.61234  0.35987  1.0000
  H   H15       1.0  0.40367  0.88766  0.64013  1.0000
  H   H16       1.0  0.09632  0.11234  0.14013  1.0000
  H   H17       1.0  0.77411  0.49511  0.20733  1.0000
  H   H18       1.0  0.72588  0.50489  0.70733  1.0000
  H   H19       1.0  0.22589  0.99511  0.29267  1.0000
  H   H20       1.0  0.27411  0.00489  0.79267  1.0000
  H   H21       1.0  0.81124  0.35866  0.25277  1.0000
  H   H22       1.0  0.68875  0.64133  0.75276  1.0000
  H   H23       1.0  0.18876  0.85866  0.24724  1.0000
  H   H24       1.0  0.31124  0.14133  0.74723  1.0000
  H   H25       1.0  0.83666  0.57292  0.08481  1.0000
  H   H26       1.0  0.66335  0.42707  0.58481  1.0000
  H   H27       1.0  0.16335  0.07293  0.41519  1.0000
  H   H28       1.0  0.33666  0.92707  0.91519  1.0000
  H   H29       1.0  0.94406  0.46245  0.04560  1.0000
  H   H30       1.0  0.55596  0.53754  0.54560  1.0000
  H   H31       1.0  0.05595  0.96246  0.45440  1.0000
  H   H32       1.0  0.44406  0.03755  0.95440  1.0000
  H   H33       1.0  0.78903  0.20370  0.10644  1.0000
  H   H34       1.0  0.71096  0.79628  0.60644  1.0000
  H   H35       1.0  0.21097  0.70371  0.39356  1.0000
  H   H36       1.0  0.28903  0.29629  0.89356  1.0000
  H   H37       1.0  0.70281  0.31283  0.15451  1.0000
  H   H38       1.0  0.79719  0.68716  0.65451  1.0000
  H   H39       1.0  0.29719  0.81284  0.34549  1.0000
  H   H40       1.0  0.20281  0.18716  0.84549  1.0000
  H   H41       1.0  0.48676  0.65544  0.07348  1.0000
  H   H42       1.0  0.01325  0.34455  0.57349  1.0000
  H   H43       1.0  0.51324  0.15545  0.42652  1.0000
  H   H44       1.0  0.98676  0.84455  0.92651  1.0000
  H   H45       1.0  0.25664  0.32101  0.19025  1.0000
  H   H46       1.0  0.24336  0.67899  0.69026  1.0000
  H   H47       1.0  0.74337  0.82101  0.30975  1.0000
  H   H48       1.0  0.75663  0.17900  0.80974  1.0000
  H   H49       1.0  0.21111  0.60439  0.06032  1.0000
  H   H50       1.0  0.28890  0.39562  0.56033  1.0000
  H   H51       1.0  0.78889  0.10439  0.43967  1.0000
  H   H52       1.0  0.71111  0.89562  0.93967  1.0000
  H   H53       1.0  0.16572  0.52942  0.16309  1.0000
  H   H54       1.0  0.33430  0.47058  0.66310  1.0000
  H   H55       1.0  0.83430  0.02943  0.33691  1.0000
  H   H56       1.0  0.66570  0.97060  0.83691  1.0000
  C   C1        1.0  0.25310  0.38009  0.04597  1.0000
  C   C2        1.0  0.24691  0.61990  0.54596  1.0000
  C   C3        1.0  0.74692  0.88011  0.45404  1.0000
  C   C4        1.0  0.75310  0.11992  0.95403  1.0000
  C   C5        1.0  0.30270  0.52284  0.07503  1.0000
  C   C6        1.0  0.19732  0.47717  0.57503  1.0000
  C   C7        1.0  0.69731  0.02284  0.42497  1.0000
  C   C8        1.0  0.80270  0.97716  0.92496  1.0000
  C   C9        1.0  0.29584  0.51178  0.14903  1.0000
  C   C10       1.0  0.20417  0.48823  0.64905  1.0000
  C   C11       1.0  0.70417  0.01177  0.35096  1.0000
  C   C12       1.0  0.79582  0.98822  0.85096  1.0000
  C   C13       1.0  0.39268  0.63745  0.17826  1.0000
  C   C14       1.0  0.10734  0.36254  0.67826  1.0000
  C   C15       1.0  0.60734  0.13746  0.32174  1.0000
  C   C16       1.0  0.89263  0.86254  0.82174  1.0000
  S   S1        1.0  0.10036  0.26149  0.29588  1.0000
  S   S2        1.0  0.39964  0.73852  0.79588  1.0000
  S   S3        1.0  0.89964  0.76147  0.20412  1.0000
  S   S4        1.0  0.60036  0.23851  0.70412  1.0000
  O   O1        1.0  0.21243  0.38247  0.31359  1.0000
  O   O2        1.0  0.28757  0.61754  0.81359  1.0000
  O   O3        1.0  0.78759  0.88245  0.18642  1.0000
  O   O4        1.0  0.71243  0.11754  0.68641  1.0000
  O   O5        1.0  0.14594  0.12773  0.33202  1.0000
  O   O6        1.0  0.35405  0.87226  0.83202  1.0000
  O   O7        1.0  0.85405  0.62773  0.16798  1.0000
  O   O8        1.0  0.64594  0.37226  0.66798  1.0000
  O   O9        1.0  0.11010  0.23206  0.22564  1.0000
  O   O10       1.0  0.38988  0.76795  0.72564  1.0000
  O   O11       1.0  0.88988  0.73206  0.27436  1.0000
  O   O12       1.0  0.61010  0.26794  0.77436  1.0000
  O   O13       1.0  0.92789  0.30415  0.31366  1.0000
  O   O14       1.0  0.57211  0.69584  0.81367  1.0000
  O   O15       1.0  0.07212  0.80415  0.18633  1.0000
  O   O16       1.0  0.42787  0.19585  0.68633  1.0000
  O   O17       1.0  0.53064  0.54292  0.37606  1.0000
  O   O18       1.0  0.96935  0.45709  0.87607  1.0000
  O   O19       1.0  0.46935  0.04292  0.12394  1.0000
  O   O20       1.0  0.03064  0.95708  0.62393  1.0000
  O   O21       1.0  0.62472  0.45903  0.89278  1.0000
  O   O22       1.0  0.87527  0.54097  0.39279  1.0000
  O   O23       1.0  0.37527  0.95902  0.60722  1.0000
  O   O24       1.0  0.12471  0.04097  0.10722  1.0000
  O   O25       1.0  0.72684  0.40055  0.22275  1.0000
  O   O26       1.0  0.77315  0.59944  0.72275  1.0000
  O   O27       1.0  0.27316  0.90055  0.27725  1.0000
  O   O28       1.0  0.22683  0.09945  0.77725  1.0000
  O   O29       1.0  0.84659  0.52781  0.04189  1.0000
  O   O30       1.0  0.65342  0.47220  0.54189  1.0000
  O   O31       1.0  0.15342  0.02781  0.45811  1.0000
  O   O32       1.0  0.34659  0.97219  0.95811  1.0000
  O   O33       1.0  0.68965  0.26193  0.11194  1.0000
  O   O34       1.0  0.81035  0.73807  0.61194  1.0000
  O   O35       1.0  0.31035  0.76193  0.38807  1.0000
  O   O36       1.0  0.18965  0.23807  0.88807  1.0000
  O   O37       1.0  0.35981  0.30301  0.01703  1.0000
  O   O38       1.0  0.14020  0.69698  0.51704  1.0000
  O   O39       1.0  0.64021  0.80303  0.48297  1.0000
  O   O40       1.0  0.85980  0.19698  0.98297  1.0000
  O   O41       1.0  0.10410  0.33932  0.05200  1.0000
  O   O42       1.0  0.39591  0.66068  0.55201  1.0000
  O   O43       1.0  0.89592  0.83933  0.44800  1.0000
  O   O44       1.0  0.60409  0.16069  0.94799  1.0000
  O   O45       1.0  0.46202  0.56338  0.05103  1.0000
  O   O46       1.0  0.03800  0.43662  0.55104  1.0000
  O   O47       1.0  0.53801  0.06338  0.44896  1.0000
  O   O48       1.0  0.96202  0.93663  0.94895  1.0000
  O   O49       1.0  0.35397  0.37749  0.17319  1.0000
  O   O50       1.0  0.14601  0.62252  0.67320  1.0000
  O   O51       1.0  0.64602  0.87747  0.32681  1.0000
  O   O52       1.0  0.85396  0.12252  0.82680  1.0000
  O   O53       1.0  0.41788  0.74696  0.14288  1.0000
  O   O54       1.0  0.08213  0.25303  0.64290  1.0000
  O   O55       1.0  0.58213  0.24698  0.35711  1.0000
  O   O56       1.0  0.91784  0.75303  0.85711  1.0000
  O   O57       1.0  0.44170  0.63173  0.23560  1.0000
  O   O58       1.0  0.05831  0.36826  0.73561  1.0000
  O   O59       1.0  0.55830  0.13174  0.26440  1.0000
  O   O60       1.0  0.94169  0.86827  0.76440  1.0000
