data_image0
_chemical_formula_structural       Zn4H48C40N16O16
_chemical_formula_sum              "Zn4 H48 C40 N16 O16"
_cell_length_a       7.7963
_cell_length_b       12.8469
_cell_length_c       13.145
_cell_angle_alpha    90
_cell_angle_beta     90
_cell_angle_gamma    90

_space_group_name_H-M_alt    "P 1"
_space_group_IT_number       1

loop_
  _space_group_symop_operation_xyz
  'x, y, z'

loop_
  _atom_site_type_symbol
  _atom_site_label
  _atom_site_symmetry_multiplicity
  _atom_site_fract_x
  _atom_site_fract_y
  _atom_site_fract_z
  _atom_site_occupancy
  Zn  Zn1       1.0  0.97389  0.08314  0.21180  1.0000
  Zn  Zn2       1.0  0.52611  0.91686  0.71180  1.0000
  Zn  Zn3       1.0  0.47389  0.41686  0.78820  1.0000
  Zn  Zn4       1.0  0.02611  0.58314  0.28820  1.0000
  H   H1        1.0  0.60028  0.97540  0.20108  1.0000
  H   H2        1.0  0.89972  0.02460  0.70108  1.0000
  H   H3        1.0  0.10028  0.52460  0.79892  1.0000
  H   H4        1.0  0.39972  0.47540  0.29892  1.0000
  H   H5        1.0  0.61351  0.22640  0.44112  1.0000
  H   H6        1.0  0.88649  0.77360  0.94112  1.0000
  H   H7        1.0  0.11351  0.27360  0.55888  1.0000
  H   H8        1.0  0.38649  0.72640  0.05888  1.0000
  H   H9        1.0  0.80195  0.29763  0.46781  1.0000
  H   H10       1.0  0.69806  0.70237  0.96780  1.0000
  H   H11       1.0  0.30194  0.20237  0.53220  1.0000
  H   H12       1.0  0.19805  0.79763  0.03220  1.0000
  H   H13       1.0  0.04866  0.44078  0.05788  1.0000
  H   H14       1.0  0.45134  0.55922  0.55788  1.0000
  H   H15       1.0  0.54866  0.05922  0.94212  1.0000
  H   H16       1.0  0.95134  0.94078  0.44212  1.0000
  H   H17       1.0  0.85557  0.18574  0.62291  1.0000
  H   H18       1.0  0.64443  0.81426  0.12291  1.0000
  H   H19       1.0  0.35557  0.31426  0.37709  1.0000
  H   H20       1.0  0.14443  0.68574  0.87709  1.0000
  H   H21       1.0  0.65822  0.25216  0.62987  1.0000
  H   H22       1.0  0.84179  0.74783  0.12987  1.0000
  H   H23       1.0  0.15822  0.24783  0.37014  1.0000
  H   H24       1.0  0.34178  0.75217  0.87014  1.0000
  H   H25       1.0  0.56177  0.02234  0.38651  1.0000
  H   H26       1.0  0.93823  0.97766  0.88651  1.0000
  H   H27       1.0  0.06177  0.47766  0.61349  1.0000
  H   H28       1.0  0.43823  0.52234  0.11349  1.0000
  H   H29       1.0  0.30636  0.98405  0.10424  1.0000
  H   H30       1.0  0.19364  0.01594  0.60424  1.0000
  H   H31       1.0  0.80636  0.51595  0.89576  1.0000
  H   H32       1.0  0.69364  0.48405  0.39576  1.0000
  H   H33       1.0  0.21627  0.06901  0.40974  1.0000
  H   H34       1.0  0.28373  0.93099  0.90974  1.0000
  H   H35       1.0  0.71627  0.43099  0.59026  1.0000
  H   H36       1.0  0.78373  0.56901  0.09026  1.0000
  H   H37       1.0  0.94850  0.32953  0.20925  1.0000
  H   H38       1.0  0.55151  0.67047  0.70925  1.0000
  H   H39       1.0  0.44850  0.17047  0.79075  1.0000
  H   H40       1.0  0.05150  0.82953  0.29075  1.0000
  H   H41       1.0  0.12477  0.32544  0.90458  1.0000
  H   H42       1.0  0.37524  0.67456  0.40458  1.0000
  H   H43       1.0  0.62476  0.17456  0.09542  1.0000
  H   H44       1.0  0.87524  0.82544  0.59542  1.0000
  H   H45       1.0  0.07700  0.12191  0.97239  1.0000
  H   H46       1.0  0.42300  0.87809  0.47239  1.0000
  H   H47       1.0  0.57700  0.37809  0.02761  1.0000
  H   H48       1.0  0.92300  0.62191  0.52761  1.0000
  C   C1        1.0  0.74106  0.22076  0.47637  1.0000
  C   C2        1.0  0.75894  0.77924  0.97637  1.0000
  C   C3        1.0  0.24106  0.27924  0.52363  1.0000
  C   C4        1.0  0.25894  0.72076  0.02363  1.0000
  C   C5        1.0  0.63004  0.09094  0.60698  1.0000
  C   C6        1.0  0.86996  0.90906  0.10698  1.0000
  C   C7        1.0  0.13004  0.40906  0.39302  1.0000
  C   C8        1.0  0.36996  0.59094  0.89302  1.0000
  C   C9        1.0  0.72793  0.19104  0.58814  1.0000
  C   C10       1.0  0.77207  0.80896  0.08814  1.0000
  C   C11       1.0  0.22793  0.30896  0.41186  1.0000
  C   C12       1.0  0.27207  0.69104  0.91185  1.0000
  C   C13       1.0  0.84580  0.14443  0.41368  1.0000
  C   C14       1.0  0.65421  0.85557  0.91368  1.0000
  C   C15       1.0  0.34579  0.35557  0.58632  1.0000
  C   C16       1.0  0.15420  0.64443  0.08632  1.0000
  C   C17       1.0  0.45804  0.02166  0.33196  1.0000
  C   C18       1.0  0.04196  0.97834  0.83196  1.0000
  C   C19       1.0  0.95804  0.47834  0.66804  1.0000
  C   C20       1.0  0.54196  0.52166  0.16804  1.0000
  C   C21       1.0  0.32800  0.00163  0.18377  1.0000
  C   C22       1.0  0.17200  0.99836  0.68378  1.0000
  C   C23       1.0  0.82800  0.49837  0.81622  1.0000
  C   C24       1.0  0.67200  0.50163  0.31622  1.0000
  C   C25       1.0  0.28737  0.04494  0.34304  1.0000
  C   C26       1.0  0.21262  0.95506  0.84304  1.0000
  C   C27       1.0  0.78737  0.45506  0.65696  1.0000
  C   C28       1.0  0.71262  0.54494  0.15696  1.0000
  C   C29       1.0  0.99033  0.29986  0.13620  1.0000
  C   C30       1.0  0.50967  0.70014  0.63620  1.0000
  C   C31       1.0  0.49033  0.20014  0.86381  1.0000
  C   C32       1.0  0.00967  0.79986  0.36381  1.0000
  C   C33       1.0  0.08089  0.29541  0.97699  1.0000
  C   C34       1.0  0.41912  0.70459  0.47699  1.0000
  C   C35       1.0  0.58088  0.20460  0.02301  1.0000
  C   C36       1.0  0.91911  0.79540  0.52301  1.0000
  C   C37       1.0  0.05753  0.19531  0.01119  1.0000
  C   C38       1.0  0.44247  0.80469  0.51119  1.0000
  C   C39       1.0  0.55753  0.30469  0.98881  1.0000
  C   C40       1.0  0.94246  0.69531  0.48881  1.0000
  N   N1        1.0  0.20722  0.03220  0.24985  1.0000
  N   N2        1.0  0.29278  0.96780  0.74985  1.0000
  N   N3        1.0  0.70722  0.46780  0.75015  1.0000
  N   N4        1.0  0.79278  0.53220  0.25015  1.0000
  N   N5        1.0  0.48043  0.99445  0.23160  1.0000
  N   N6        1.0  0.01957  0.00555  0.73160  1.0000
  N   N7        1.0  0.98043  0.50555  0.76840  1.0000
  N   N8        1.0  0.51957  0.49445  0.26840  1.0000
  N   N9        1.0  0.00075  0.19918  0.11082  1.0000
  N   N10       1.0  0.49925  0.80082  0.61082  1.0000
  N   N11       1.0  0.50075  0.30082  0.88918  1.0000
  N   N12       1.0  0.99925  0.69918  0.38918  1.0000
  N   N13       1.0  0.03802  0.35977  0.05691  1.0000
  N   N14       1.0  0.46198  0.64023  0.55691  1.0000
  N   N15       1.0  0.53802  0.14023  0.94310  1.0000
  N   N16       1.0  0.96198  0.85977  0.44310  1.0000
  O   O1        1.0  0.68818  0.03228  0.68101  1.0000
  O   O2        1.0  0.81182  0.96772  0.18101  1.0000
  O   O3        1.0  0.18818  0.46772  0.31899  1.0000
  O   O4        1.0  0.31182  0.53228  0.81899  1.0000
  O   O5        1.0  0.49834  0.06837  0.55801  1.0000
  O   O6        1.0  0.00166  0.93163  0.05801  1.0000
  O   O7        1.0  0.99834  0.43162  0.44199  1.0000
  O   O8        1.0  0.50166  0.56837  0.94199  1.0000
  O   O9        1.0  0.85377  0.16540  0.31792  1.0000
  O   O10       1.0  0.64624  0.83460  0.81792  1.0000
  O   O11       1.0  0.35377  0.33460  0.68208  1.0000
  O   O12       1.0  0.14623  0.66540  0.18208  1.0000
  O   O13       1.0  0.91801  0.06842  0.45668  1.0000
  O   O14       1.0  0.58198  0.93158  0.95668  1.0000
  O   O15       1.0  0.41802  0.43158  0.54332  1.0000
  O   O16       1.0  0.08198  0.56842  0.04332  1.0000
