data_image0
_chemical_formula_structural       CdH32C34Br4N4O6
_chemical_formula_sum              "Cd1 H32 C34 Br4 N4 O6"
_cell_length_a       9.10908
_cell_length_b       9.42544
_cell_length_c       11.7913
_cell_angle_alpha    96.9524
_cell_angle_beta     97.6516
_cell_angle_gamma    117.139

_space_group_name_H-M_alt    "P 1"
_space_group_IT_number       1

loop_
  _space_group_symop_operation_xyz
  'x, y, z'

loop_
  _atom_site_type_symbol
  _atom_site_label
  _atom_site_symmetry_multiplicity
  _atom_site_fract_x
  _atom_site_fract_y
  _atom_site_fract_z
  _atom_site_occupancy
  Cd  Cd1       1.0  0.00000  0.00000  0.50000  1.0000
  H   H1        1.0  0.71265  0.14105  0.92814  1.0000
  H   H2        1.0  0.28736  0.85896  0.07186  1.0000
  H   H3        1.0  0.46450  0.17340  0.12625  1.0000
  H   H4        1.0  0.53550  0.82660  0.87375  1.0000
  H   H5        1.0  0.61723  0.37660  0.14629  1.0000
  H   H6        1.0  0.38277  0.62339  0.85371  1.0000
  H   H7        1.0  0.67272  0.63834  0.49201  1.0000
  H   H8        1.0  0.32729  0.36166  0.50799  1.0000
  H   H9        1.0  0.63367  0.87339  0.41261  1.0000
  H   H10       1.0  0.36634  0.12661  0.58739  1.0000
  H   H11       1.0  0.69515  0.92482  0.55844  1.0000
  H   H12       1.0  0.30485  0.07518  0.44156  1.0000
  H   H13       1.0  0.56400  0.34593  0.39723  1.0000
  H   H14       1.0  0.43600  0.65408  0.60277  1.0000
  H   H15       1.0  0.64346  0.13095  0.71734  1.0000
  H   H16       1.0  0.35655  0.86905  0.28266  1.0000
  H   H17       1.0  0.62056  0.13836  0.30497  1.0000
  H   H18       1.0  0.37943  0.86164  0.69503  1.0000
  H   H19       1.0  0.83269  0.18025  0.31402  1.0000
  H   H20       1.0  0.16731  0.81975  0.68598  1.0000
  H   H21       1.0  0.05492  0.48566  0.31924  1.0000
  H   H22       1.0  0.94508  0.51434  0.68077  1.0000
  H   H23       1.0  0.14284  0.77163  0.41634  1.0000
  H   H24       1.0  0.85717  0.22837  0.58366  1.0000
  H   H25       1.0  0.38248  0.34596  0.97739  1.0000
  H   H26       1.0  0.61753  0.65404  0.02261  1.0000
  H   H27       1.0  0.84104  0.29031  0.13120  1.0000
  H   H28       1.0  0.15896  0.70969  0.86881  1.0000
  H   H29       1.0  0.68581  0.08480  0.11059  1.0000
  H   H30       1.0  0.31419  0.91520  0.88941  1.0000
  H   H31       1.0  0.31501  0.31573  0.76187  1.0000
  H   H32       1.0  0.68500  0.68426  0.23813  1.0000
  C   C1        1.0  0.08827  0.15229  0.07506  1.0000
  C   C2        1.0  0.91172  0.84771  0.92493  1.0000
  C   C3        1.0  0.62630  0.18475  0.89642  1.0000
  C   C4        1.0  0.37371  0.81525  0.10358  1.0000
  C   C5        1.0  0.58461  0.25269  0.10250  1.0000
  C   C6        1.0  0.41540  0.74731  0.89750  1.0000
  C   C7        1.0  0.06104  0.01327  0.11974  1.0000
  C   C8        1.0  0.93895  0.98673  0.88026  1.0000
  C   C9        1.0  0.75345  0.59900  0.45262  1.0000
  C   C10       1.0  0.24655  0.40100  0.54738  1.0000
  C   C11       1.0  0.11522  0.02927  0.25072  1.0000
  C   C12       1.0  0.88476  0.97073  0.74927  1.0000
  C   C13       1.0  0.02661  0.13924  0.95676  1.0000
  C   C14       1.0  0.97338  0.86076  0.04324  1.0000
  C   C15       1.0  0.69390  0.43679  0.40040  1.0000
  C   C16       1.0  0.30610  0.56322  0.59961  1.0000
  C   C17       1.0  0.55263  0.24421  0.97270  1.0000
  C   C18       1.0  0.44737  0.75580  0.02730  1.0000
  C   C19       1.0  0.80066  0.39146  0.34908  1.0000
  C   C20       1.0  0.19934  0.60854  0.65092  1.0000
  C   C21       1.0  0.58694  0.17855  0.77694  1.0000
  C   C22       1.0  0.41306  0.82144  0.22306  1.0000
  C   C23       1.0  0.74120  0.22109  0.28479  1.0000
  C   C24       1.0  0.25880  0.77891  0.71521  1.0000
  C   C25       1.0  0.96553  0.51427  0.35594  1.0000
  C   C26       1.0  0.03447  0.48573  0.64406  1.0000
  C   C27       1.0  0.01537  0.67331  0.40937  1.0000
  C   C28       1.0  0.98463  0.32669  0.59064  1.0000
  C   C29       1.0  0.44155  0.29558  0.92241  1.0000
  C   C30       1.0  0.55845  0.70442  0.07758  1.0000
  C   C31       1.0  0.71914  0.20960  0.15168  1.0000
  C   C32       1.0  0.28086  0.79040  0.84832  1.0000
  C   C33       1.0  0.40588  0.28158  0.80212  1.0000
  C   C34       1.0  0.59413  0.71842  0.19788  1.0000
  Br  Br1       1.0  0.05883  0.32775  0.89712  1.0000
  Br  Br2       1.0  0.94118  0.67226  0.10288  1.0000
  Br  Br3       1.0  0.21363  0.35973  0.17789  1.0000
  Br  Br4       1.0  0.78636  0.64026  0.82211  1.0000
  N   N1        1.0  0.91094  0.71659  0.45599  1.0000
  N   N2        1.0  0.08906  0.28341  0.54401  1.0000
  N   N3        1.0  0.47739  0.22450  0.72893  1.0000
  N   N4        1.0  0.52262  0.77550  0.27108  1.0000
  O   O1        1.0  0.26707  0.06972  0.29178  1.0000
  O   O2        1.0  0.73291  0.93028  0.70821  1.0000
  O   O3        1.0  0.72095  0.95533  0.48265  1.0000
  O   O4        1.0  0.27905  0.04467  0.51735  1.0000
  O   O5        1.0  0.99540  0.00087  0.30381  1.0000
  O   O6        1.0  0.00458  0.99913  0.69618  1.0000
