data_image0
_chemical_formula_structural       Mn4H40C20O24
_chemical_formula_sum              "Mn4 H40 C20 O24"
_cell_length_a       7.58306
_cell_length_b       9.09192
_cell_length_c       12.1542
_cell_angle_alpha    90.0002
_cell_angle_beta     89.9997
_cell_angle_gamma    85.9017

_space_group_name_H-M_alt    "P 1"
_space_group_IT_number       1

loop_
  _space_group_symop_operation_xyz
  'x, y, z'

loop_
  _atom_site_type_symbol
  _atom_site_label
  _atom_site_symmetry_multiplicity
  _atom_site_fract_x
  _atom_site_fract_y
  _atom_site_fract_z
  _atom_site_occupancy
  Mn  Mn1       1.0  0.05707  0.27906  0.06472  1.0000
  Mn  Mn2       1.0  0.44292  0.72094  0.56472  1.0000
  Mn  Mn3       1.0  0.94293  0.72094  0.93527  1.0000
  Mn  Mn4       1.0  0.55706  0.27907  0.43528  1.0000
  H   H1        1.0  0.08309  0.66089  0.32533  1.0000
  H   H2        1.0  0.41692  0.33912  0.82533  1.0000
  H   H3        1.0  0.91691  0.33911  0.67468  1.0000
  H   H4        1.0  0.58309  0.66089  0.17467  1.0000
  H   H5        1.0  0.86185  0.62108  0.31885  1.0000
  H   H6        1.0  0.63815  0.37893  0.81886  1.0000
  H   H7        1.0  0.13814  0.37892  0.68114  1.0000
  H   H8        1.0  0.36185  0.62108  0.18115  1.0000
  H   H9        1.0  0.78106  0.85285  0.21659  1.0000
  H   H10       1.0  0.71895  0.14715  0.71660  1.0000
  H   H11       1.0  0.21895  0.14714  0.78339  1.0000
  H   H12       1.0  0.28107  0.85285  0.28341  1.0000
  H   H13       1.0  0.00292  0.89600  0.21143  1.0000
  H   H14       1.0  0.49707  0.10401  0.71144  1.0000
  H   H15       1.0  0.99708  0.10400  0.78856  1.0000
  H   H16       1.0  0.50292  0.89599  0.28857  1.0000
  H   H17       1.0  0.83390  0.82427  0.43236  1.0000
  H   H18       1.0  0.66609  0.17573  0.93237  1.0000
  H   H19       1.0  0.16607  0.17573  0.56762  1.0000
  H   H20       1.0  0.33391  0.82427  0.06764  1.0000
  H   H21       1.0  0.02131  0.92192  0.41046  1.0000
  H   H22       1.0  0.47870  0.07809  0.91047  1.0000
  H   H23       1.0  0.97867  0.07809  0.58953  1.0000
  H   H24       1.0  0.52130  0.92191  0.08954  1.0000
  H   H25       1.0  0.80466  0.15068  0.18612  1.0000
  H   H26       1.0  0.69533  0.84932  0.68612  1.0000
  H   H27       1.0  0.19533  0.84931  0.81387  1.0000
  H   H28       1.0  0.30467  0.15069  0.31388  1.0000
  H   H29       1.0  0.81611  0.07002  0.06713  1.0000
  H   H30       1.0  0.68389  0.92997  0.56714  1.0000
  H   H31       1.0  0.18389  0.92997  0.93286  1.0000
  H   H32       1.0  0.31611  0.07003  0.43286  1.0000
  H   H33       1.0  0.38894  0.40263  0.07235  1.0000
  H   H34       1.0  0.11106  0.59737  0.57236  1.0000
  H   H35       1.0  0.61105  0.59737  0.92764  1.0000
  H   H36       1.0  0.88894  0.40263  0.42765  1.0000
  H   H37       1.0  0.23206  0.51311  0.03357  1.0000
  H   H38       1.0  0.26794  0.48688  0.53359  1.0000
  H   H39       1.0  0.76794  0.48688  0.96642  1.0000
  H   H40       1.0  0.73206  0.51311  0.46642  1.0000
  C   C1        1.0  0.00515  0.58437  0.17130  1.0000
  C   C2        1.0  0.49487  0.41565  0.67129  1.0000
  C   C3        1.0  0.99487  0.41563  0.82871  1.0000
  C   C4        1.0  0.50514  0.58436  0.32870  1.0000
  C   C5        1.0  0.96377  0.67538  0.27313  1.0000
  C   C6        1.0  0.53624  0.32464  0.77314  1.0000
  C   C7        1.0  0.03624  0.32464  0.72686  1.0000
  C   C8        1.0  0.46377  0.67537  0.22687  1.0000
  C   C9        1.0  0.90743  0.83923  0.26083  1.0000
  C   C10       1.0  0.59257  0.16076  0.76085  1.0000
  C   C11       1.0  0.09257  0.16076  0.73915  1.0000
  C   C12       1.0  0.40742  0.83923  0.23917  1.0000
  C   C13       1.0  0.88926  0.90448  0.37670  1.0000
  C   C14       1.0  0.61075  0.09552  0.87671  1.0000
  C   C15       1.0  0.11074  0.09551  0.62328  1.0000
  C   C16       1.0  0.38925  0.90448  0.12331  1.0000
  C   C17       1.0  0.77856  0.04712  0.39157  1.0000
  C   C18       1.0  0.72142  0.95289  0.89157  1.0000
  C   C19       1.0  0.22142  0.95289  0.60842  1.0000
  C   C20       1.0  0.27856  0.04712  0.10844  1.0000
  O   O1        1.0  0.98884  0.44694  0.17918  1.0000
  O   O2        1.0  0.51119  0.55304  0.67918  1.0000
  O   O3        1.0  0.01119  0.55304  0.82082  1.0000
  O   O4        1.0  0.48883  0.44695  0.32082  1.0000
  O   O5        1.0  0.06453  0.64620  0.08448  1.0000
  O   O6        1.0  0.43548  0.35382  0.58450  1.0000
  O   O7        1.0  0.93549  0.35381  0.91550  1.0000
  O   O8        1.0  0.56453  0.64620  0.41551  1.0000
  O   O9        1.0  0.74700  0.14038  0.31480  1.0000
  O   O10       1.0  0.75300  0.85962  0.81481  1.0000
  O   O11       1.0  0.25299  0.85961  0.68517  1.0000
  O   O12       1.0  0.24699  0.14038  0.18520  1.0000
  O   O13       1.0  0.71308  0.07579  0.48795  1.0000
  O   O14       1.0  0.78692  0.92422  0.98796  1.0000
  O   O15       1.0  0.28690  0.92422  0.51204  1.0000
  O   O16       1.0  0.21309  0.07578  0.01205  1.0000
  O   O17       1.0  0.83384  0.16459  0.10649  1.0000
  O   O18       1.0  0.66615  0.83541  0.60649  1.0000
  O   O19       1.0  0.16616  0.83541  0.89350  1.0000
  O   O20       1.0  0.33384  0.16459  0.39351  1.0000
  O   O21       1.0  0.29436  0.41518  0.01800  1.0000
  O   O22       1.0  0.20564  0.58482  0.51801  1.0000
  O   O23       1.0  0.70564  0.58482  0.98199  1.0000
  O   O24       1.0  0.79435  0.41518  0.48199  1.0000
