data_image0
_chemical_formula_structural       Mn2H20C12O10
_chemical_formula_sum              "Mn2 H20 C12 O10"
_cell_length_a       4.66177
_cell_length_b       7.99455
_cell_length_c       10.3661
_cell_angle_alpha    108.115
_cell_angle_beta     90
_cell_angle_gamma    90

_space_group_name_H-M_alt    "P 1"
_space_group_IT_number       1

loop_
  _space_group_symop_operation_xyz
  'x, y, z'

loop_
  _atom_site_type_symbol
  _atom_site_label
  _atom_site_symmetry_multiplicity
  _atom_site_fract_x
  _atom_site_fract_y
  _atom_site_fract_z
  _atom_site_occupancy
  Mn  Mn1       1.0  0.82982  0.20036  0.57017  1.0000
  Mn  Mn2       1.0  0.32981  0.79963  0.42983  1.0000
  H   H1        1.0  0.00272  0.22078  0.25712  1.0000
  H   H2        1.0  0.50272  0.77922  0.74288  1.0000
  H   H3        1.0  0.16056  0.02019  0.16719  1.0000
  H   H4        1.0  0.66056  0.97981  0.83281  1.0000
  H   H5        1.0  0.61160  0.19216  0.13677  1.0000
  H   H6        1.0  0.11159  0.80785  0.86323  1.0000
  H   H7        1.0  0.41106  0.38728  0.20277  1.0000
  H   H8        1.0  0.91106  0.61272  0.79723  1.0000
  H   H9        1.0  0.23615  0.08022  0.95359  1.0000
  H   H10       1.0  0.73615  0.91978  0.04641  1.0000
  H   H11       1.0  0.04588  0.27745  0.01973  1.0000
  H   H12       1.0  0.54587  0.72255  0.98027  1.0000
  H   H13       1.0  0.46551  0.44803  0.97367  1.0000
  H   H14       1.0  0.96551  0.55197  0.02633  1.0000
  H   H15       1.0  0.66570  0.25558  0.91044  1.0000
  H   H16       1.0  0.16570  0.74442  0.08956  1.0000
  H   H17       1.0  0.26052  0.40872  0.60739  1.0000
  H   H18       1.0  0.76052  0.59128  0.39261  1.0000
  H   H19       1.0  0.04902  0.54928  0.57677  1.0000
  H   H20       1.0  0.54902  0.45072  0.42323  1.0000
  C   C1        1.0  0.34148  0.14066  0.35844  1.0000
  C   C2        1.0  0.84148  0.85934  0.64156  1.0000
  C   C3        1.0  0.21185  0.15554  0.22931  1.0000
  C   C4        1.0  0.71185  0.84447  0.77068  1.0000
  C   C5        1.0  0.39254  0.24592  0.14794  1.0000
  C   C6        1.0  0.89254  0.75408  0.85206  1.0000
  C   C7        1.0  0.26336  0.22135  0.00799  1.0000
  C   C8        1.0  0.76337  0.77865  0.99201  1.0000
  C   C9        1.0  0.44391  0.30542  0.92247  1.0000
  C   C10       1.0  0.94391  0.69457  0.07753  1.0000
  C   C11       1.0  0.33059  0.28478  0.78156  1.0000
  C   C12       1.0  0.83059  0.71521  0.21844  1.0000
  O   O1        1.0  0.58272  0.21275  0.39840  1.0000
  O   O2        1.0  0.08272  0.78725  0.60160  1.0000
  O   O3        1.0  0.19906  0.05409  0.42373  1.0000
  O   O4        1.0  0.69906  0.94591  0.57626  1.0000
  O   O5        1.0  0.49025  0.34323  0.70310  1.0000
  O   O6        1.0  0.99025  0.65677  0.29690  1.0000
  O   O7        1.0  0.08490  0.21778  0.74843  1.0000
  O   O8        1.0  0.58490  0.78222  0.25156  1.0000
  O   O9        1.0  0.08558  0.42207  0.55471  1.0000
  O   O10       1.0  0.58558  0.57793  0.44529  1.0000
