data_image0
_chemical_formula_structural       Cd2H30C34N2O12
_chemical_formula_sum              "Cd2 H30 C34 N2 O12"
_cell_length_a       7.70164
_cell_length_b       10.2632
_cell_length_c       11.537
_cell_angle_alpha    63.6221
_cell_angle_beta     82.3699
_cell_angle_gamma    72.5479

_space_group_name_H-M_alt    "P 1"
_space_group_IT_number       1

loop_
  _space_group_symop_operation_xyz
  'x, y, z'

loop_
  _atom_site_type_symbol
  _atom_site_label
  _atom_site_symmetry_multiplicity
  _atom_site_fract_x
  _atom_site_fract_y
  _atom_site_fract_z
  _atom_site_occupancy
  Cd  Cd1       1.0  0.24979  0.14402  0.71224  1.0000
  Cd  Cd2       1.0  0.75022  0.85598  0.28776  1.0000
  H   H1        1.0  0.32147  0.04735  0.48343  1.0000
  H   H2        1.0  0.17861  0.46823  0.48422  1.0000
  H   H3        1.0  0.67853  0.95264  0.51657  1.0000
  H   H4        1.0  0.82139  0.53177  0.51578  1.0000
  H   H5        1.0  0.33469  0.15659  0.24376  1.0000
  H   H6        1.0  0.16565  0.59937  0.24448  1.0000
  H   H7        1.0  0.66531  0.84340  0.75624  1.0000
  H   H8        1.0  0.83435  0.40063  0.75552  1.0000
  H   H9        1.0  0.21901  0.26865  0.05731  1.0000
  H   H10       1.0  0.28072  0.67439  0.05768  1.0000
  H   H11       1.0  0.78099  0.73135  0.94269  1.0000
  H   H12       1.0  0.71928  0.32560  0.94232  1.0000
  H   H13       1.0  0.24938  0.65040  0.70033  1.0000
  H   H14       1.0  0.75062  0.34960  0.29967  1.0000
  H   H15       1.0  0.90973  0.06992  0.59147  1.0000
  H   H16       1.0  0.59003  0.33807  0.59165  1.0000
  H   H17       1.0  0.09026  0.93008  0.40853  1.0000
  H   H18       1.0  0.40997  0.66193  0.40835  1.0000
  H   H19       1.0  0.90242  0.26619  0.51184  1.0000
  H   H20       1.0  0.59696  0.22165  0.51182  1.0000
  H   H21       1.0  0.09758  0.73381  0.48816  1.0000
  H   H22       1.0  0.40304  0.77836  0.48818  1.0000
  H   H23       1.0  0.90390  0.06786  0.90805  1.0000
  H   H24       1.0  0.59626  0.02376  0.90804  1.0000
  H   H25       1.0  0.09610  0.93213  0.09195  1.0000
  H   H26       1.0  0.40373  0.97624  0.09196  1.0000
  H   H27       1.0  0.90850  0.95170  0.82823  1.0000
  H   H28       1.0  0.59147  0.21970  0.82828  1.0000
  H   H29       1.0  0.09149  0.04830  0.17177  1.0000
  H   H30       1.0  0.40853  0.78030  0.17172  1.0000
  C   C1        1.0  0.29106  0.16901  0.42511  1.0000
  C   C2        1.0  0.20911  0.40523  0.42553  1.0000
  C   C3        1.0  0.70894  0.83098  0.57489  1.0000
  C   C4        1.0  0.79089  0.59477  0.57447  1.0000
  C   C5        1.0  0.29404  0.23218  0.29111  1.0000
  C   C6        1.0  0.20622  0.47646  0.29156  1.0000
  C   C7        1.0  0.70596  0.76781  0.70889  1.0000
  C   C8        1.0  0.79378  0.52354  0.70844  1.0000
  C   C9        1.0  0.24998  0.39001  0.22020  1.0000
  C   C10       1.0  0.75002  0.60998  0.77980  1.0000
  C   C11       1.0  0.24965  0.46147  0.07771  1.0000
  C   C12       1.0  0.75036  0.53853  0.92229  1.0000
  C   C13       1.0  0.23467  0.38275  0.00816  1.0000
  C   C14       1.0  0.26483  0.60962  0.00837  1.0000
  C   C15       1.0  0.76533  0.61725  0.99184  1.0000
  C   C16       1.0  0.73517  0.39038  0.99163  1.0000
  C   C17       1.0  0.23624  0.44934  0.87302  1.0000
  C   C18       1.0  0.26315  0.67828  0.87326  1.0000
  C   C19       1.0  0.76376  0.55066  0.12698  1.0000
  C   C20       1.0  0.73685  0.32172  0.12674  1.0000
  C   C21       1.0  0.24951  0.59768  0.80555  1.0000
  C   C22       1.0  0.75049  0.40232  0.19445  1.0000
  C   C23       1.0  0.22680  0.36046  0.80144  1.0000
  C   C24       1.0  0.27271  0.83863  0.80175  1.0000
  C   C25       1.0  0.77320  0.63954  0.19856  1.0000
  C   C26       1.0  0.72729  0.16137  0.19825  1.0000
  C   C27       1.0  0.85250  0.18023  0.59508  1.0000
  C   C28       1.0  0.64717  0.22423  0.59510  1.0000
  C   C29       1.0  0.14750  0.81978  0.40492  1.0000
  C   C30       1.0  0.35283  0.77578  0.40490  1.0000
  C   C31       1.0  0.85282  0.06568  0.82482  1.0000
  C   C32       1.0  0.64716  0.10915  0.82482  1.0000
  C   C33       1.0  0.14717  0.93432  0.17518  1.0000
  C   C34       1.0  0.35284  0.89085  0.17518  1.0000
  N   N1        1.0  0.25022  0.25365  0.49207  1.0000
  N   N2        1.0  0.74978  0.74635  0.50793  1.0000
  O   O1        1.0  0.19343  0.23139  0.86791  1.0000
  O   O2        1.0  0.30618  0.90119  0.86830  1.0000
  O   O3        1.0  0.80657  0.76862  0.13208  1.0000
  O   O4        1.0  0.69382  0.09881  0.13171  1.0000
  O   O5        1.0  0.25706  0.41250  0.68079  1.0000
  O   O6        1.0  0.24255  0.90727  0.68109  1.0000
  O   O7        1.0  0.74295  0.58751  0.31921  1.0000
  O   O8        1.0  0.75745  0.09272  0.31891  1.0000
  O   O9        1.0  0.91899  0.17340  0.70986  1.0000
  O   O10       1.0  0.58078  0.11636  0.70985  1.0000
  O   O11       1.0  0.08101  0.82661  0.29014  1.0000
  O   O12       1.0  0.41921  0.88365  0.29015  1.0000
