data_image0
_chemical_formula_structural       Gd2P4H34C32O22
_chemical_formula_sum              "Gd2 P4 H34 C32 O22"
_cell_length_a       5.59421
_cell_length_b       9.29231
_cell_length_c       18.3763
_cell_angle_alpha    104.517
_cell_angle_beta     92.0118
_cell_angle_gamma    96.5165

_space_group_name_H-M_alt    "P 1"
_space_group_IT_number       1

loop_
  _space_group_symop_operation_xyz
  'x, y, z'

loop_
  _atom_site_type_symbol
  _atom_site_label
  _atom_site_symmetry_multiplicity
  _atom_site_fract_x
  _atom_site_fract_y
  _atom_site_fract_z
  _atom_site_occupancy
  Gd  Gd1       1.0  0.11823  0.80482  0.00252  1.0000
  Gd  Gd2       1.0  0.88178  0.19518  0.99748  1.0000
  P   P1        1.0  0.38647  0.09827  0.10560  1.0000
  P   P2        1.0  0.61354  0.90172  0.89440  1.0000
  P   P3        1.0  0.25866  0.53217  0.10504  1.0000
  P   P4        1.0  0.74134  0.46783  0.89496  1.0000
  H   H1        1.0  0.60274  0.14480  0.31627  1.0000
  H   H2        1.0  0.39727  0.85520  0.68373  1.0000
  H   H3        1.0  0.48246  0.00458  0.40914  1.0000
  H   H4        1.0  0.51753  0.99543  0.59086  1.0000
  H   H5        1.0  0.77235  0.88096  0.29814  1.0000
  H   H6        1.0  0.22766  0.11904  0.70186  1.0000
  H   H7        1.0  0.88978  0.02464  0.20485  1.0000
  H   H8        1.0  0.11023  0.97536  0.79515  1.0000
  H   H9        1.0  0.50404  0.26187  0.22537  1.0000
  H   H10       1.0  0.49597  0.73813  0.77463  1.0000
  H   H11       1.0  0.20129  0.26762  0.19683  1.0000
  H   H12       1.0  0.79871  0.73238  0.80317  1.0000
  H   H13       1.0  0.53421  0.65351  0.31042  1.0000
  H   H14       1.0  0.46578  0.34649  0.68958  1.0000
  H   H15       1.0  0.47714  0.52049  0.41098  1.0000
  H   H16       1.0  0.52286  0.47951  0.58902  1.0000
  H   H17       1.0  0.74801  0.35879  0.32436  1.0000
  H   H18       1.0  0.25199  0.64121  0.67564  1.0000
  H   H19       1.0  0.80437  0.48647  0.22068  1.0000
  H   H20       1.0  0.19562  0.51353  0.77932  1.0000
  H   H21       1.0  0.35225  0.74659  0.20881  1.0000
  H   H22       1.0  0.64774  0.25341  0.79119  1.0000
  H   H23       1.0  0.03989  0.70159  0.18453  1.0000
  H   H24       1.0  0.96010  0.29841  0.81547  1.0000
  H   H25       1.0  0.17177  0.81268  0.51117  1.0000
  H   H26       1.0  0.82822  0.18732  0.48883  1.0000
  H   H27       1.0  0.54977  0.38858  0.10113  1.0000
  H   H28       1.0  0.45023  0.61142  0.89887  1.0000
  H   H29       1.0  0.20089  0.30305  0.52195  1.0000
  H   H30       1.0  0.79911  0.69695  0.47805  1.0000
  H   H31       1.0  0.72414  0.66894  0.08248  1.0000
  H   H32       1.0  0.27586  0.33106  0.91751  1.0000
  H   H33       1.0  0.66890  0.83623  0.08848  1.0000
  H   H34       1.0  0.33109  0.16377  0.91152  1.0000
  C   C1        1.0  0.25554  0.09526  0.25369  1.0000
  C   C2        1.0  0.74447  0.90473  0.74631  1.0000
  C   C3        1.0  0.42047  0.08648  0.31110  1.0000
  C   C4        1.0  0.57954  0.91352  0.68890  1.0000
  C   C5        1.0  0.35430  0.00815  0.36388  1.0000
  C   C6        1.0  0.64570  0.99185  0.63612  1.0000
  C   C7        1.0  0.11970  0.93404  0.35960  1.0000
  C   C8        1.0  0.88030  0.06596  0.64041  1.0000
  C   C9        1.0  0.95456  0.93883  0.30131  1.0000
  C   C10       1.0  0.04544  0.06117  0.69869  1.0000
  C   C11       1.0  0.02124  0.01957  0.24914  1.0000
  C   C12       1.0  0.97876  0.98043  0.75086  1.0000
  C   C13       1.0  0.33427  0.19139  0.20202  1.0000
  C   C14       1.0  0.66574  0.80860  0.79798  1.0000
  C   C15       1.0  0.05119  0.85409  0.41759  1.0000
  C   C16       1.0  0.94880  0.14590  0.58240  1.0000
  C   C17       1.0  0.17446  0.57626  0.25735  1.0000
  C   C18       1.0  0.82553  0.42375  0.74265  1.0000
  C   C19       1.0  0.36242  0.58610  0.31156  1.0000
  C   C20       1.0  0.63758  0.41390  0.68844  1.0000
  C   C21       1.0  0.33186  0.51247  0.36866  1.0000
  C   C22       1.0  0.66814  0.48754  0.63134  1.0000
  C   C23       1.0  0.11075  0.42833  0.37241  1.0000
  C   C24       1.0  0.88925  0.57167  0.62759  1.0000
  C   C25       1.0  0.92104  0.42031  0.31900  1.0000
  C   C26       1.0  0.07895  0.57969  0.68100  1.0000
  C   C27       1.0  0.95259  0.49247  0.26190  1.0000
  C   C28       1.0  0.04740  0.50753  0.73810  1.0000
  C   C29       1.0  0.20429  0.65359  0.19516  1.0000
  C   C30       1.0  0.79570  0.34641  0.80484  1.0000
  C   C31       1.0  0.06811  0.34666  0.43107  1.0000
  C   C32       1.0  0.93188  0.65334  0.56893  1.0000
  O   O1        1.0  0.45417  0.93910  0.09644  1.0000
  O   O2        1.0  0.54583  0.06090  0.90356  1.0000
  O   O3        1.0  0.14345  0.07167  0.05693  1.0000
  O   O4        1.0  0.85655  0.92834  0.94307  1.0000
  O   O5        1.0  0.58048  0.20505  0.08059  1.0000
  O   O6        1.0  0.41953  0.79494  0.91941  1.0000
  O   O7        1.0  0.21976  0.87414  0.47233  1.0000
  O   O8        1.0  0.78024  0.12586  0.52767  1.0000
  O   O9        1.0  0.85163  0.77605  0.41456  1.0000
  O   O10       1.0  0.14836  0.22395  0.58544  1.0000
  O   O11       1.0  0.25080  0.62163  0.04643  1.0000
  O   O12       1.0  0.74920  0.37837  0.95357  1.0000
  O   O13       1.0  0.53169  0.49871  0.11506  1.0000
  O   O14       1.0  0.46831  0.50129  0.88494  1.0000
  O   O15       1.0  0.08904  0.38661  0.08829  1.0000
  O   O16       1.0  0.91096  0.61339  0.91171  1.0000
  O   O17       1.0  0.24585  0.36360  0.48279  1.0000
  O   O18       1.0  0.75415  0.63641  0.51721  1.0000
  O   O19       1.0  0.87156  0.26679  0.43005  1.0000
  O   O20       1.0  0.12844  0.73322  0.56996  1.0000
  O   O21       1.0  0.79982  0.76863  0.08081  1.0000
  O   O22       1.0  0.20017  0.23137  0.91919  1.0000
