data_image0
_chemical_formula_structural       Tb2P4H34C32O22
_chemical_formula_sum              "Tb2 P4 H34 C32 O22"
_cell_length_a       5.58412
_cell_length_b       9.26875
_cell_length_c       18.4014
_cell_angle_alpha    104.318
_cell_angle_beta     92.0588
_cell_angle_gamma    96.5715

_space_group_name_H-M_alt    "P 1"
_space_group_IT_number       1

loop_
  _space_group_symop_operation_xyz
  'x, y, z'

loop_
  _atom_site_type_symbol
  _atom_site_label
  _atom_site_symmetry_multiplicity
  _atom_site_fract_x
  _atom_site_fract_y
  _atom_site_fract_z
  _atom_site_occupancy
  Tb  Tb1       1.0  0.11731  0.80518  0.00252  1.0000
  Tb  Tb2       1.0  0.88270  0.19483  0.99749  1.0000
  P   P1        1.0  0.38683  0.09715  0.10495  1.0000
  P   P2        1.0  0.61317  0.90285  0.89505  1.0000
  P   P3        1.0  0.25845  0.53177  0.10417  1.0000
  P   P4        1.0  0.74156  0.46824  0.89583  1.0000
  H   H1        1.0  0.60398  0.14436  0.31553  1.0000
  H   H2        1.0  0.39601  0.85564  0.68448  1.0000
  H   H3        1.0  0.48313  0.00484  0.40878  1.0000
  H   H4        1.0  0.51686  0.99515  0.59122  1.0000
  H   H5        1.0  0.77230  0.87960  0.29773  1.0000
  H   H6        1.0  0.22768  0.12040  0.70226  1.0000
  H   H7        1.0  0.89003  0.02281  0.20407  1.0000
  H   H8        1.0  0.10996  0.97720  0.79593  1.0000
  H   H9        1.0  0.50579  0.26077  0.22435  1.0000
  H   H10       1.0  0.49420  0.73924  0.77565  1.0000
  H   H11       1.0  0.20273  0.26693  0.19593  1.0000
  H   H12       1.0  0.79726  0.73307  0.80407  1.0000
  H   H13       1.0  0.53497  0.65296  0.30932  1.0000
  H   H14       1.0  0.46503  0.34705  0.69068  1.0000
  H   H15       1.0  0.47809  0.52019  0.41015  1.0000
  H   H16       1.0  0.52192  0.47981  0.58985  1.0000
  H   H17       1.0  0.74760  0.35707  0.32384  1.0000
  H   H18       1.0  0.25241  0.64293  0.67616  1.0000
  H   H19       1.0  0.80391  0.48433  0.21989  1.0000
  H   H20       1.0  0.19609  0.51567  0.78012  1.0000
  H   H21       1.0  0.35201  0.74581  0.20783  1.0000
  H   H22       1.0  0.64800  0.25419  0.79217  1.0000
  H   H23       1.0  0.03922  0.70044  0.18351  1.0000
  H   H24       1.0  0.96079  0.29956  0.81649  1.0000
  H   H25       1.0  0.17179  0.81273  0.51104  1.0000
  H   H26       1.0  0.82820  0.18725  0.48896  1.0000
  H   H27       1.0  0.55050  0.38850  0.10006  1.0000
  H   H28       1.0  0.44950  0.61150  0.89995  1.0000
  H   H29       1.0  0.20144  0.30373  0.52190  1.0000
  H   H30       1.0  0.79855  0.69627  0.47810  1.0000
  H   H31       1.0  0.72588  0.66903  0.08218  1.0000
  H   H32       1.0  0.27413  0.33097  0.91783  1.0000
  H   H33       1.0  0.66906  0.83631  0.08790  1.0000
  H   H34       1.0  0.33094  0.16369  0.91210  1.0000
  C   C1        1.0  0.25643  0.09418  0.25286  1.0000
  C   C2        1.0  0.74357  0.90583  0.74714  1.0000
  C   C3        1.0  0.42143  0.08586  0.31039  1.0000
  C   C4        1.0  0.57856  0.91414  0.68961  1.0000
  C   C5        1.0  0.35501  0.00783  0.36337  1.0000
  C   C6        1.0  0.64498  0.99217  0.63663  1.0000
  C   C7        1.0  0.12003  0.93334  0.35914  1.0000
  C   C8        1.0  0.87996  0.06666  0.64085  1.0000
  C   C9        1.0  0.95493  0.93748  0.30069  1.0000
  C   C10       1.0  0.04506  0.06252  0.69931  1.0000
  C   C11       1.0  0.02175  0.01816  0.24839  1.0000
  C   C12       1.0  0.97824  0.98184  0.75161  1.0000
  C   C13       1.0  0.33555  0.19037  0.20111  1.0000
  C   C14       1.0  0.66444  0.80964  0.79889  1.0000
  C   C15       1.0  0.05130  0.85354  0.41730  1.0000
  C   C16       1.0  0.94869  0.14645  0.58269  1.0000
  C   C17       1.0  0.17453  0.57492  0.25640  1.0000
  C   C18       1.0  0.82547  0.42508  0.74360  1.0000
  C   C19       1.0  0.36305  0.58515  0.31054  1.0000
  C   C20       1.0  0.63695  0.41485  0.68946  1.0000
  C   C21       1.0  0.33253  0.51181  0.36785  1.0000
  C   C22       1.0  0.66748  0.48818  0.63215  1.0000
  C   C23       1.0  0.11104  0.42741  0.37180  1.0000
  C   C24       1.0  0.88897  0.57259  0.62820  1.0000
  C   C25       1.0  0.92103  0.41866  0.31834  1.0000
  C   C26       1.0  0.07896  0.58135  0.68166  1.0000
  C   C27       1.0  0.95248  0.49073  0.26110  1.0000
  C   C28       1.0  0.04754  0.50927  0.73890  1.0000
  C   C29       1.0  0.20403  0.65245  0.19418  1.0000
  C   C30       1.0  0.79598  0.34756  0.80582  1.0000
  C   C31       1.0  0.06839  0.34627  0.43078  1.0000
  C   C32       1.0  0.93160  0.65372  0.56922  1.0000
  O   O1        1.0  0.45238  0.93721  0.09592  1.0000
  O   O2        1.0  0.54761  0.06280  0.90409  1.0000
  O   O3        1.0  0.14320  0.07122  0.05646  1.0000
  O   O4        1.0  0.85680  0.92878  0.94354  1.0000
  O   O5        1.0  0.58200  0.20345  0.07965  1.0000
  O   O6        1.0  0.41801  0.79655  0.92036  1.0000
  O   O7        1.0  0.21993  0.87423  0.47211  1.0000
  O   O8        1.0  0.78006  0.12576  0.52789  1.0000
  O   O9        1.0  0.85168  0.77481  0.41429  1.0000
  O   O10       1.0  0.14830  0.22518  0.58571  1.0000
  O   O11       1.0  0.24960  0.62201  0.04581  1.0000
  O   O12       1.0  0.75041  0.37800  0.95419  1.0000
  O   O13       1.0  0.53244  0.49869  0.11417  1.0000
  O   O14       1.0  0.46758  0.50131  0.88583  1.0000
  O   O15       1.0  0.08907  0.38562  0.08747  1.0000
  O   O16       1.0  0.91094  0.61438  0.91253  1.0000
  O   O17       1.0  0.24661  0.36384  0.48247  1.0000
  O   O18       1.0  0.75339  0.63616  0.51753  1.0000
  O   O19       1.0  0.87150  0.26628  0.42999  1.0000
  O   O20       1.0  0.12851  0.73372  0.57001  1.0000
  O   O21       1.0  0.80108  0.76913  0.08032  1.0000
  O   O22       1.0  0.19892  0.23087  0.91969  1.0000
