data_image0
_chemical_formula_structural       Nd2P4H34C32O22
_chemical_formula_sum              "Nd2 P4 H34 C32 O22"
_cell_length_a       5.63665
_cell_length_b       9.45999
_cell_length_c       18.3159
_cell_angle_alpha    105.212
_cell_angle_beta     91.9263
_cell_angle_gamma    96.051

_space_group_name_H-M_alt    "P 1"
_space_group_IT_number       1

loop_
  _space_group_symop_operation_xyz
  'x, y, z'

loop_
  _atom_site_type_symbol
  _atom_site_label
  _atom_site_symmetry_multiplicity
  _atom_site_fract_x
  _atom_site_fract_y
  _atom_site_fract_z
  _atom_site_occupancy
  Nd  Nd1       1.0  0.12294  0.80335  0.00284  1.0000
  Nd  Nd2       1.0  0.87704  0.19665  0.99715  1.0000
  P   P1        1.0  0.38410  0.10166  0.10881  1.0000
  P   P2        1.0  0.61590  0.89833  0.89119  1.0000
  P   P3        1.0  0.26027  0.53341  0.10934  1.0000
  P   P4        1.0  0.73974  0.46658  0.89066  1.0000
  H   H1        1.0  0.59676  0.14553  0.32029  1.0000
  H   H2        1.0  0.40323  0.85447  0.67971  1.0000
  H   H3        1.0  0.47830  0.00492  0.41156  1.0000
  H   H4        1.0  0.52171  0.99509  0.58844  1.0000
  H   H5        1.0  0.77547  0.88548  0.29937  1.0000
  H   H6        1.0  0.22452  0.11452  0.70064  1.0000
  H   H7        1.0  0.89140  0.02903  0.20751  1.0000
  H   H8        1.0  0.10860  0.97097  0.79249  1.0000
  H   H9        1.0  0.49792  0.26188  0.23001  1.0000
  H   H10       1.0  0.50209  0.73812  0.77000  1.0000
  H   H11       1.0  0.19740  0.26781  0.20173  1.0000
  H   H12       1.0  0.80262  0.73219  0.79827  1.0000
  H   H13       1.0  0.52702  0.65184  0.31586  1.0000
  H   H14       1.0  0.47298  0.34817  0.68415  1.0000
  H   H15       1.0  0.47001  0.51872  0.41507  1.0000
  H   H16       1.0  0.52997  0.48127  0.58493  1.0000
  H   H17       1.0  0.74953  0.36021  0.32599  1.0000
  H   H18       1.0  0.25046  0.63978  0.67401  1.0000
  H   H19       1.0  0.80561  0.48905  0.22391  1.0000
  H   H20       1.0  0.19439  0.51095  0.77609  1.0000
  H   H21       1.0  0.34781  0.74473  0.21469  1.0000
  H   H22       1.0  0.65219  0.25527  0.78531  1.0000
  H   H23       1.0  0.03837  0.70084  0.18953  1.0000
  H   H24       1.0  0.96164  0.29916  0.81047  1.0000
  H   H25       1.0  0.17084  0.81343  0.51150  1.0000
  H   H26       1.0  0.82915  0.18658  0.48850  1.0000
  H   H27       1.0  0.54294  0.38779  0.10709  1.0000
  H   H28       1.0  0.45708  0.61221  0.89291  1.0000
  H   H29       1.0  0.19742  0.30071  0.52307  1.0000
  H   H30       1.0  0.80257  0.69929  0.47692  1.0000
  H   H31       1.0  0.71428  0.67085  0.08447  1.0000
  H   H32       1.0  0.28573  0.32915  0.91553  1.0000
  H   H33       1.0  0.66798  0.83729  0.09254  1.0000
  H   H34       1.0  0.33203  0.16271  0.90746  1.0000
  C   C1        1.0  0.25326  0.09754  0.25715  1.0000
  C   C2        1.0  0.74673  0.90246  0.74285  1.0000
  C   C3        1.0  0.41662  0.08790  0.31450  1.0000
  C   C4        1.0  0.58337  0.91210  0.68550  1.0000
  C   C5        1.0  0.35115  0.00955  0.36644  1.0000
  C   C6        1.0  0.64884  0.99045  0.63357  1.0000
  C   C7        1.0  0.11907  0.93656  0.36139  1.0000
  C   C8        1.0  0.88094  0.06344  0.63861  1.0000
  C   C9        1.0  0.95568  0.94241  0.30308  1.0000
  C   C10       1.0  0.04431  0.05760  0.69692  1.0000
  C   C11       1.0  0.02165  0.02283  0.25168  1.0000
  C   C12       1.0  0.97834  0.97717  0.74832  1.0000
  C   C13       1.0  0.33033  0.19266  0.20620  1.0000
  C   C14       1.0  0.66968  0.80733  0.79380  1.0000
  C   C15       1.0  0.05137  0.85681  0.41861  1.0000
  C   C16       1.0  0.94863  0.14320  0.58139  1.0000
  C   C17       1.0  0.17147  0.57683  0.26185  1.0000
  C   C18       1.0  0.82853  0.42317  0.73815  1.0000
  C   C19       1.0  0.35720  0.58523  0.31624  1.0000
  C   C20       1.0  0.64281  0.41476  0.68376  1.0000
  C   C21       1.0  0.32640  0.51148  0.37256  1.0000
  C   C22       1.0  0.67359  0.48851  0.62744  1.0000
  C   C23       1.0  0.10777  0.42828  0.37518  1.0000
  C   C24       1.0  0.89222  0.57172  0.62481  1.0000
  C   C25       1.0  0.92040  0.42149  0.32154  1.0000
  C   C26       1.0  0.07960  0.57850  0.67846  1.0000
  C   C27       1.0  0.95196  0.49409  0.26530  1.0000
  C   C28       1.0  0.04805  0.50591  0.73470  1.0000
  C   C29       1.0  0.20180  0.65349  0.20017  1.0000
  C   C30       1.0  0.79821  0.34651  0.79983  1.0000
  C   C31       1.0  0.06576  0.34643  0.43293  1.0000
  C   C32       1.0  0.93423  0.65357  0.56707  1.0000
  O   O1        1.0  0.46207  0.94704  0.09864  1.0000
  O   O2        1.0  0.53794  0.05295  0.90136  1.0000
  O   O3        1.0  0.14220  0.07340  0.06029  1.0000
  O   O4        1.0  0.85780  0.92659  0.93971  1.0000
  O   O5        1.0  0.57069  0.20944  0.08422  1.0000
  O   O6        1.0  0.42930  0.79056  0.91577  1.0000
  O   O7        1.0  0.21809  0.87546  0.47364  1.0000
  O   O8        1.0  0.78192  0.12454  0.52635  1.0000
  O   O9        1.0  0.85411  0.77999  0.41478  1.0000
  O   O10       1.0  0.14590  0.22001  0.58522  1.0000
  O   O11       1.0  0.26011  0.62269  0.05135  1.0000
  O   O12       1.0  0.73991  0.37731  0.94865  1.0000
  O   O13       1.0  0.52887  0.49717  0.12042  1.0000
  O   O14       1.0  0.47114  0.50283  0.87958  1.0000
  O   O15       1.0  0.08928  0.39184  0.09049  1.0000
  O   O16       1.0  0.91072  0.60816  0.90951  1.0000
  O   O17       1.0  0.24180  0.36168  0.48477  1.0000
  O   O18       1.0  0.75819  0.63832  0.51523  1.0000
  O   O19       1.0  0.87135  0.26801  0.43111  1.0000
  O   O20       1.0  0.12863  0.73200  0.56890  1.0000
  O   O21       1.0  0.79427  0.76807  0.08444  1.0000
  O   O22       1.0  0.20574  0.23193  0.91556  1.0000
