data_image0
_chemical_formula_structural       Sm2P4H34C32O22
_chemical_formula_sum              "Sm2 P4 H34 C32 O22"
_cell_length_a       5.60988
_cell_length_b       9.38576
_cell_length_c       18.3582
_cell_angle_alpha    104.965
_cell_angle_beta     91.7669
_cell_angle_gamma    96.3837

_space_group_name_H-M_alt    "P 1"
_space_group_IT_number       1

loop_
  _space_group_symop_operation_xyz
  'x, y, z'

loop_
  _atom_site_type_symbol
  _atom_site_label
  _atom_site_symmetry_multiplicity
  _atom_site_fract_x
  _atom_site_fract_y
  _atom_site_fract_z
  _atom_site_occupancy
  Sm  Sm1       1.0  0.12079  0.80454  0.00289  1.0000
  Sm  Sm2       1.0  0.87922  0.19547  0.99711  1.0000
  P   P1        1.0  0.38405  0.10033  0.10732  1.0000
  P   P2        1.0  0.61595  0.89967  0.89269  1.0000
  P   P3        1.0  0.25832  0.53310  0.10718  1.0000
  P   P4        1.0  0.74168  0.46690  0.89282  1.0000
  H   H1        1.0  0.59760  0.14522  0.31823  1.0000
  H   H2        1.0  0.40239  0.85476  0.68177  1.0000
  H   H3        1.0  0.47776  0.00555  0.41036  1.0000
  H   H4        1.0  0.52223  0.99441  0.58963  1.0000
  H   H5        1.0  0.77184  0.88190  0.29890  1.0000
  H   H6        1.0  0.22812  0.11810  0.70109  1.0000
  H   H7        1.0  0.88825  0.02550  0.20648  1.0000
  H   H8        1.0  0.11173  0.97451  0.79352  1.0000
  H   H9        1.0  0.49781  0.26225  0.22803  1.0000
  H   H10       1.0  0.50219  0.73775  0.77197  1.0000
  H   H11       1.0  0.19621  0.26685  0.19961  1.0000
  H   H12       1.0  0.80380  0.73317  0.80039  1.0000
  H   H13       1.0  0.52722  0.65321  0.31266  1.0000
  H   H14       1.0  0.47279  0.34680  0.68735  1.0000
  H   H15       1.0  0.47217  0.52050  0.41259  1.0000
  H   H16       1.0  0.52784  0.47951  0.58741  1.0000
  H   H17       1.0  0.74736  0.35722  0.32552  1.0000
  H   H18       1.0  0.25266  0.64277  0.67448  1.0000
  H   H19       1.0  0.80161  0.48502  0.22259  1.0000
  H   H20       1.0  0.19840  0.51496  0.77740  1.0000
  H   H21       1.0  0.34302  0.74615  0.21225  1.0000
  H   H22       1.0  0.65697  0.25386  0.78776  1.0000
  H   H23       1.0  0.03299  0.69818  0.18674  1.0000
  H   H24       1.0  0.96701  0.30183  0.81326  1.0000
  H   H25       1.0  0.16949  0.81358  0.51131  1.0000
  H   H26       1.0  0.83051  0.18642  0.48869  1.0000
  H   H27       1.0  0.54485  0.38869  0.10408  1.0000
  H   H28       1.0  0.45516  0.61132  0.89592  1.0000
  H   H29       1.0  0.19977  0.30312  0.52262  1.0000
  H   H30       1.0  0.80024  0.69687  0.47738  1.0000
  H   H31       1.0  0.71766  0.67040  0.08337  1.0000
  H   H32       1.0  0.28234  0.32960  0.91663  1.0000
  H   H33       1.0  0.66809  0.83746  0.09067  1.0000
  H   H34       1.0  0.33192  0.16255  0.90933  1.0000
  C   C1        1.0  0.25221  0.09591  0.25550  1.0000
  C   C2        1.0  0.74777  0.90409  0.74450  1.0000
  C   C3        1.0  0.41638  0.08700  0.31275  1.0000
  C   C4        1.0  0.58361  0.91299  0.68724  1.0000
  C   C5        1.0  0.35035  0.00884  0.36510  1.0000
  C   C6        1.0  0.64965  0.99114  0.63489  1.0000
  C   C7        1.0  0.11711  0.93470  0.36048  1.0000
  C   C8        1.0  0.88288  0.06528  0.63952  1.0000
  C   C9        1.0  0.95305  0.93960  0.30228  1.0000
  C   C10       1.0  0.04693  0.06039  0.69772  1.0000
  C   C11       1.0  0.01934  0.02026  0.25057  1.0000
  C   C12       1.0  0.98064  0.97975  0.74943  1.0000
  C   C13       1.0  0.32980  0.19172  0.20432  1.0000
  C   C14       1.0  0.67021  0.80828  0.79568  1.0000
  C   C15       1.0  0.04927  0.85478  0.41800  1.0000
  C   C16       1.0  0.95073  0.14522  0.58199  1.0000
  C   C17       1.0  0.16939  0.57560  0.25958  1.0000
  C   C18       1.0  0.83062  0.42441  0.74042  1.0000
  C   C19       1.0  0.35695  0.58554  0.31362  1.0000
  C   C20       1.0  0.64305  0.41447  0.68638  1.0000
  C   C21       1.0  0.32723  0.51220  0.37039  1.0000
  C   C22       1.0  0.67277  0.48781  0.62961  1.0000
  C   C23       1.0  0.10791  0.42781  0.37382  1.0000
  C   C24       1.0  0.89210  0.57219  0.62618  1.0000
  C   C25       1.0  0.91891  0.41924  0.32045  1.0000
  C   C26       1.0  0.08110  0.58076  0.67955  1.0000
  C   C27       1.0  0.94937  0.49140  0.26375  1.0000
  C   C28       1.0  0.05065  0.50859  0.73625  1.0000
  C   C29       1.0  0.19845  0.65254  0.19770  1.0000
  C   C30       1.0  0.80156  0.34747  0.80230  1.0000
  C   C31       1.0  0.06688  0.34623  0.43201  1.0000
  C   C32       1.0  0.93313  0.65377  0.56799  1.0000
  O   O1        1.0  0.45743  0.94361  0.09742  1.0000
  O   O2        1.0  0.54257  0.05640  0.90258  1.0000
  O   O3        1.0  0.14168  0.07260  0.05876  1.0000
  O   O4        1.0  0.85832  0.92741  0.94124  1.0000
  O   O5        1.0  0.57409  0.20801  0.08250  1.0000
  O   O6        1.0  0.42591  0.79200  0.91750  1.0000
  O   O7        1.0  0.21684  0.87508  0.47284  1.0000
  O   O8        1.0  0.78314  0.12492  0.52716  1.0000
  O   O9        1.0  0.85131  0.77646  0.41451  1.0000
  O   O10       1.0  0.14867  0.22353  0.58548  1.0000
  O   O11       1.0  0.25564  0.62330  0.04934  1.0000
  O   O12       1.0  0.74436  0.37671  0.95066  1.0000
  O   O13       1.0  0.52934  0.49851  0.11779  1.0000
  O   O14       1.0  0.47067  0.50150  0.88221  1.0000
  O   O15       1.0  0.08803  0.38942  0.08896  1.0000
  O   O16       1.0  0.91197  0.61058  0.91104  1.0000
  O   O17       1.0  0.24373  0.36388  0.48384  1.0000
  O   O18       1.0  0.75627  0.63612  0.51616  1.0000
  O   O19       1.0  0.87227  0.26583  0.43046  1.0000
  O   O20       1.0  0.12773  0.73418  0.56954  1.0000
  O   O21       1.0  0.79626  0.76883  0.08267  1.0000
  O   O22       1.0  0.20374  0.23118  0.91734  1.0000
