data_image0
_chemical_formula_structural       Pr2P4H34C32O22
_chemical_formula_sum              "Pr2 P4 H34 C32 O22"
_cell_length_a       5.63722
_cell_length_b       9.53076
_cell_length_c       18.3124
_cell_angle_alpha    105.422
_cell_angle_beta     91.8434
_cell_angle_gamma    95.8553

_space_group_name_H-M_alt    "P 1"
_space_group_IT_number       1

loop_
  _space_group_symop_operation_xyz
  'x, y, z'

loop_
  _atom_site_type_symbol
  _atom_site_label
  _atom_site_symmetry_multiplicity
  _atom_site_fract_x
  _atom_site_fract_y
  _atom_site_fract_z
  _atom_site_occupancy
  Pr  Pr1       1.0  0.12539  0.80337  0.00326  1.0000
  Pr  Pr2       1.0  0.87462  0.19663  0.99674  1.0000
  P   P1        1.0  0.38198  0.10301  0.10993  1.0000
  P   P2        1.0  0.61802  0.89699  0.89007  1.0000
  P   P3        1.0  0.25890  0.53359  0.11066  1.0000
  P   P4        1.0  0.74111  0.46641  0.88934  1.0000
  H   H1        1.0  0.59329  0.14525  0.32144  1.0000
  H   H2        1.0  0.40671  0.85477  0.67856  1.0000
  H   H3        1.0  0.47540  0.00503  0.41218  1.0000
  H   H4        1.0  0.52460  0.99498  0.58782  1.0000
  H   H5        1.0  0.77437  0.88557  0.29935  1.0000
  H   H6        1.0  0.22562  0.11443  0.70065  1.0000
  H   H7        1.0  0.88950  0.02893  0.20813  1.0000
  H   H8        1.0  0.11050  0.97107  0.79187  1.0000
  H   H9        1.0  0.49347  0.26163  0.23170  1.0000
  H   H10       1.0  0.50652  0.73837  0.76830  1.0000
  H   H11       1.0  0.19305  0.26693  0.20338  1.0000
  H   H12       1.0  0.80695  0.73307  0.79662  1.0000
  H   H13       1.0  0.52015  0.65097  0.31677  1.0000
  H   H14       1.0  0.47986  0.34902  0.68323  1.0000
  H   H15       1.0  0.46694  0.51849  0.41580  1.0000
  H   H16       1.0  0.53307  0.48150  0.58420  1.0000
  H   H17       1.0  0.74797  0.35779  0.32681  1.0000
  H   H18       1.0  0.25203  0.64222  0.67319  1.0000
  H   H19       1.0  0.80028  0.48639  0.22508  1.0000
  H   H20       1.0  0.19973  0.51361  0.77492  1.0000
  H   H21       1.0  0.33629  0.74389  0.21679  1.0000
  H   H22       1.0  0.66373  0.25610  0.78321  1.0000
  H   H23       1.0  0.02870  0.69611  0.19014  1.0000
  H   H24       1.0  0.97132  0.30390  0.80986  1.0000
  H   H25       1.0  0.16926  0.81391  0.51141  1.0000
  H   H26       1.0  0.83076  0.18610  0.48859  1.0000
  H   H27       1.0  0.53820  0.38712  0.10922  1.0000
  H   H28       1.0  0.46182  0.61287  0.89078  1.0000
  H   H29       1.0  0.19757  0.30075  0.52365  1.0000
  H   H30       1.0  0.80242  0.69925  0.47635  1.0000
  H   H31       1.0  0.70764  0.67316  0.08365  1.0000
  H   H32       1.0  0.29237  0.32684  0.91635  1.0000
  H   H33       1.0  0.66908  0.84007  0.09407  1.0000
  H   H34       1.0  0.33092  0.15993  0.90593  1.0000
  C   C1        1.0  0.25067  0.09726  0.25797  1.0000
  C   C2        1.0  0.74933  0.90274  0.74203  1.0000
  C   C3        1.0  0.41383  0.08750  0.31528  1.0000
  C   C4        1.0  0.58617  0.91251  0.68472  1.0000
  C   C5        1.0  0.34871  0.00927  0.36692  1.0000
  C   C6        1.0  0.65129  0.99074  0.63308  1.0000
  C   C7        1.0  0.11717  0.93642  0.36155  1.0000
  C   C8        1.0  0.88282  0.06359  0.63845  1.0000
  C   C9        1.0  0.95411  0.94233  0.30327  1.0000
  C   C10       1.0  0.04588  0.05767  0.69673  1.0000
  C   C11       1.0  0.01973  0.02274  0.25222  1.0000
  C   C12       1.0  0.98027  0.97727  0.74778  1.0000
  C   C13       1.0  0.32693  0.19254  0.20754  1.0000
  C   C14       1.0  0.67307  0.80746  0.79246  1.0000
  C   C15       1.0  0.04970  0.85686  0.41853  1.0000
  C   C16       1.0  0.95027  0.14315  0.58147  1.0000
  C   C17       1.0  0.16511  0.57499  0.26289  1.0000
  C   C18       1.0  0.83491  0.42500  0.73712  1.0000
  C   C19       1.0  0.35144  0.58415  0.31718  1.0000
  C   C20       1.0  0.64858  0.41583  0.68282  1.0000
  C   C21       1.0  0.32292  0.51072  0.37336  1.0000
  C   C22       1.0  0.67708  0.48926  0.62664  1.0000
  C   C23       1.0  0.10568  0.42711  0.37591  1.0000
  C   C24       1.0  0.89431  0.57288  0.62409  1.0000
  C   C25       1.0  0.91771  0.41951  0.32238  1.0000
  C   C26       1.0  0.08228  0.58050  0.67762  1.0000
  C   C27       1.0  0.94708  0.49191  0.26633  1.0000
  C   C28       1.0  0.05294  0.50809  0.73367  1.0000
  C   C29       1.0  0.19399  0.65143  0.20141  1.0000
  C   C30       1.0  0.80603  0.34857  0.79859  1.0000
  C   C31       1.0  0.06505  0.34566  0.43352  1.0000
  C   C32       1.0  0.93492  0.65432  0.56647  1.0000
  O   O1        1.0  0.46412  0.95024  0.09948  1.0000
  O   O2        1.0  0.53588  0.04976  0.90053  1.0000
  O   O3        1.0  0.13997  0.07357  0.06154  1.0000
  O   O4        1.0  0.86004  0.92643  0.93846  1.0000
  O   O5        1.0  0.56546  0.21112  0.08531  1.0000
  O   O6        1.0  0.43455  0.78887  0.91469  1.0000
  O   O7        1.0  0.21571  0.87581  0.47370  1.0000
  O   O8        1.0  0.78427  0.12419  0.52629  1.0000
  O   O9        1.0  0.85346  0.77988  0.41436  1.0000
  O   O10       1.0  0.14652  0.22014  0.58564  1.0000
  O   O11       1.0  0.26510  0.62428  0.05361  1.0000
  O   O12       1.0  0.73491  0.37572  0.94640  1.0000
  O   O13       1.0  0.52550  0.49606  0.12286  1.0000
  O   O14       1.0  0.47450  0.50394  0.87714  1.0000
  O   O15       1.0  0.08699  0.39367  0.08999  1.0000
  O   O16       1.0  0.91302  0.60633  0.91002  1.0000
  O   O17       1.0  0.24096  0.36140  0.48542  1.0000
  O   O18       1.0  0.75902  0.63859  0.51458  1.0000
  O   O19       1.0  0.87171  0.26713  0.43155  1.0000
  O   O20       1.0  0.12827  0.73286  0.56845  1.0000
  O   O21       1.0  0.79229  0.76910  0.08529  1.0000
  O   O22       1.0  0.20772  0.23090  0.91471  1.0000
