data_image0
_chemical_formula_structural       La2P4H34C32O22
_chemical_formula_sum              "La2 P4 H34 C32 O22"
_cell_length_a       5.61029
_cell_length_b       9.69461
_cell_length_c       18.2144
_cell_angle_alpha    105.804
_cell_angle_beta     91.7681
_cell_angle_gamma    95.1743

_space_group_name_H-M_alt    "P 1"
_space_group_IT_number       1

loop_
  _space_group_symop_operation_xyz
  'x, y, z'

loop_
  _atom_site_type_symbol
  _atom_site_label
  _atom_site_symmetry_multiplicity
  _atom_site_fract_x
  _atom_site_fract_y
  _atom_site_fract_z
  _atom_site_occupancy
  La  La1       1.0  0.13106  0.80118  0.00382  1.0000
  La  La2       1.0  0.86893  0.19882  0.99618  1.0000
  P   P1        1.0  0.37221  0.10511  0.11222  1.0000
  P   P2        1.0  0.62779  0.89488  0.88777  1.0000
  P   P3        1.0  0.26400  0.53478  0.11174  1.0000
  P   P4        1.0  0.73599  0.46522  0.88826  1.0000
  H   H1        1.0  0.58570  0.14748  0.32632  1.0000
  H   H2        1.0  0.41430  0.85252  0.67367  1.0000
  H   H3        1.0  0.46850  0.00616  0.41541  1.0000
  H   H4        1.0  0.53151  0.99384  0.58458  1.0000
  H   H5        1.0  0.77043  0.88724  0.29919  1.0000
  H   H6        1.0  0.22959  0.11276  0.70081  1.0000
  H   H7        1.0  0.88517  0.03109  0.20939  1.0000
  H   H8        1.0  0.11484  0.96890  0.79061  1.0000
  H   H9        1.0  0.49037  0.25885  0.23527  1.0000
  H   H10       1.0  0.50963  0.74114  0.76473  1.0000
  H   H11       1.0  0.18872  0.26935  0.20862  1.0000
  H   H12       1.0  0.81128  0.73066  0.79137  1.0000
  H   H13       1.0  0.50833  0.64910  0.31725  1.0000
  H   H14       1.0  0.49167  0.35091  0.68275  1.0000
  H   H15       1.0  0.46263  0.51886  0.41665  1.0000
  H   H16       1.0  0.53736  0.48116  0.58335  1.0000
  H   H17       1.0  0.74481  0.35583  0.32775  1.0000
  H   H18       1.0  0.25520  0.64417  0.67226  1.0000
  H   H19       1.0  0.78916  0.48289  0.22588  1.0000
  H   H20       1.0  0.21082  0.51709  0.77412  1.0000
  H   H21       1.0  0.31357  0.74172  0.21909  1.0000
  H   H22       1.0  0.68642  0.25828  0.78090  1.0000
  H   H23       1.0  0.00888  0.68554  0.18824  1.0000
  H   H24       1.0  0.99110  0.31446  0.81176  1.0000
  H   H25       1.0  0.16502  0.81276  0.51159  1.0000
  H   H26       1.0  0.83498  0.18725  0.48841  1.0000
  H   H27       1.0  0.52562  0.37917  0.11335  1.0000
  H   H28       1.0  0.47436  0.62082  0.88665  1.0000
  H   H29       1.0  0.20103  0.30080  0.52411  1.0000
  H   H30       1.0  0.79899  0.69922  0.47590  1.0000
  H   H31       1.0  0.67230  0.68821  0.07487  1.0000
  H   H32       1.0  0.32771  0.31178  0.92513  1.0000
  H   H33       1.0  0.67791  0.85506  0.09772  1.0000
  H   H34       1.0  0.32209  0.14493  0.90227  1.0000
  C   C1        1.0  0.24484  0.09921  0.26101  1.0000
  C   C2        1.0  0.75517  0.90078  0.73900  1.0000
  C   C3        1.0  0.40699  0.08976  0.31910  1.0000
  C   C4        1.0  0.59303  0.91023  0.68090  1.0000
  C   C5        1.0  0.34209  0.01088  0.36984  1.0000
  C   C6        1.0  0.65791  0.98911  0.63016  1.0000
  C   C7        1.0  0.11171  0.93759  0.36297  1.0000
  C   C8        1.0  0.88830  0.06240  0.63703  1.0000
  C   C9        1.0  0.94955  0.94385  0.30408  1.0000
  C   C10       1.0  0.05047  0.05616  0.69592  1.0000
  C   C11       1.0  0.01500  0.02455  0.25384  1.0000
  C   C12       1.0  0.98501  0.97545  0.74616  1.0000
  C   C13       1.0  0.32181  0.19368  0.21113  1.0000
  C   C14       1.0  0.67818  0.80631  0.78886  1.0000
  C   C15       1.0  0.04446  0.85745  0.41916  1.0000
  C   C16       1.0  0.95553  0.14256  0.58085  1.0000
  C   C17       1.0  0.15317  0.57219  0.26358  1.0000
  C   C18       1.0  0.84684  0.42780  0.73642  1.0000
  C   C19       1.0  0.34148  0.58258  0.31793  1.0000
  C   C20       1.0  0.65852  0.41743  0.68207  1.0000
  C   C21       1.0  0.31706  0.51043  0.37429  1.0000
  C   C22       1.0  0.68294  0.48957  0.62571  1.0000
  C   C23       1.0  0.10233  0.42667  0.37689  1.0000
  C   C24       1.0  0.89768  0.57333  0.62312  1.0000
  C   C25       1.0  0.91263  0.41780  0.32327  1.0000
  C   C26       1.0  0.08739  0.58220  0.67674  1.0000
  C   C27       1.0  0.93770  0.48892  0.26700  1.0000
  C   C28       1.0  0.06229  0.51109  0.73300  1.0000
  C   C29       1.0  0.17895  0.64742  0.20197  1.0000
  C   C30       1.0  0.82104  0.35258  0.79802  1.0000
  C   C31       1.0  0.06531  0.34610  0.43439  1.0000
  C   C32       1.0  0.93468  0.65392  0.56563  1.0000
  O   O1        1.0  0.46212  0.95613  0.10151  1.0000
  O   O2        1.0  0.53788  0.04385  0.89848  1.0000
  O   O3        1.0  0.12720  0.07551  0.06518  1.0000
  O   O4        1.0  0.87278  0.92449  0.93482  1.0000
  O   O5        1.0  0.55208  0.21034  0.08587  1.0000
  O   O6        1.0  0.44792  0.78967  0.91412  1.0000
  O   O7        1.0  0.21062  0.87510  0.47461  1.0000
  O   O8        1.0  0.78939  0.12490  0.52539  1.0000
  O   O9        1.0  0.84902  0.78134  0.41424  1.0000
  O   O10       1.0  0.15099  0.21867  0.58576  1.0000
  O   O11       1.0  0.29878  0.63066  0.05789  1.0000
  O   O12       1.0  0.70121  0.36933  0.94211  1.0000
  O   O13       1.0  0.51921  0.48752  0.12936  1.0000
  O   O14       1.0  0.48077  0.51247  0.87064  1.0000
  O   O15       1.0  0.08351  0.40217  0.08281  1.0000
  O   O16       1.0  0.91648  0.59783  0.91718  1.0000
  O   O17       1.0  0.24260  0.36121  0.48624  1.0000
  O   O18       1.0  0.75741  0.63881  0.51376  1.0000
  O   O19       1.0  0.87308  0.26859  0.43229  1.0000
  O   O20       1.0  0.12692  0.73143  0.56772  1.0000
  O   O21       1.0  0.78618  0.77539  0.08627  1.0000
  O   O22       1.0  0.21382  0.22460  0.91373  1.0000
