data_image0
_chemical_formula_structural       Cu2H34C44I2N8O8
_chemical_formula_sum              "Cu2 H34 C44 I2 N8 O8"
_cell_length_a       9.3736
_cell_length_b       9.81689
_cell_length_c       13.2699
_cell_angle_alpha    79.3269
_cell_angle_beta     78.9017
_cell_angle_gamma    64.2863

_space_group_name_H-M_alt    "P 1"
_space_group_IT_number       1

loop_
  _space_group_symop_operation_xyz
  'x, y, z'

loop_
  _atom_site_type_symbol
  _atom_site_label
  _atom_site_symmetry_multiplicity
  _atom_site_fract_x
  _atom_site_fract_y
  _atom_site_fract_z
  _atom_site_occupancy
  Cu  Cu1       1.0  0.17992  0.34320  0.60758  1.0000
  Cu  Cu2       1.0  0.82007  0.65680  0.39242  1.0000
  H   H1        1.0  0.95978  0.65033  0.80890  1.0000
  H   H2        1.0  0.04022  0.34967  0.19109  1.0000
  H   H3        1.0  0.54147  0.05828  0.88481  1.0000
  H   H4        1.0  0.45853  0.94172  0.11519  1.0000
  H   H5        1.0  0.66303  0.93118  0.57555  1.0000
  H   H6        1.0  0.33697  0.06883  0.42444  1.0000
  H   H7        1.0  0.17788  0.64437  0.46052  1.0000
  H   H8        1.0  0.82212  0.35564  0.53948  1.0000
  H   H9        1.0  0.45283  0.62635  0.32283  1.0000
  H   H10       1.0  0.54717  0.37365  0.67717  1.0000
  H   H11       1.0  0.52170  0.18902  0.47703  1.0000
  H   H12       1.0  0.47830  0.81099  0.52297  1.0000
  H   H13       1.0  0.75274  0.21267  0.35980  1.0000
  H   H14       1.0  0.24725  0.78733  0.64020  1.0000
  H   H15       1.0  0.75213  0.39681  0.33286  1.0000
  H   H16       1.0  0.24787  0.60319  0.66715  1.0000
  H   H17       1.0  0.56812  0.17563  0.23736  1.0000
  H   H18       1.0  0.43188  0.82437  0.76264  1.0000
  H   H19       1.0  0.56366  0.17519  0.05157  1.0000
  H   H20       1.0  0.43634  0.82481  0.94843  1.0000
  H   H21       1.0  0.78413  0.49176  0.97360  1.0000
  H   H22       1.0  0.21588  0.50824  0.02641  1.0000
  H   H23       1.0  0.78451  0.49519  0.15965  1.0000
  H   H24       1.0  0.21549  0.50481  0.84035  1.0000
  H   H25       1.0  0.60811  0.26687  0.87516  1.0000
  H   H26       1.0  0.39189  0.73313  0.12485  1.0000
  H   H27       1.0  0.60687  0.45022  0.85153  1.0000
  H   H28       1.0  0.39313  0.54978  0.14847  1.0000
  H   H29       1.0  0.83913  0.48457  0.74880  1.0000
  H   H30       1.0  0.16087  0.51543  0.25120  1.0000
  H   H31       1.0  0.17756  0.03159  0.73208  1.0000
  H   H32       1.0  0.82244  0.96840  0.26792  1.0000
  H   H33       1.0  0.91270  0.03243  0.87103  1.0000
  H   H34       1.0  0.08731  0.96757  0.12897  1.0000
  C   C1        1.0  0.85571  0.75144  0.78719  1.0000
  C   C2        1.0  0.14429  0.24857  0.21280  1.0000
  C   C3        1.0  0.75416  0.84994  0.85899  1.0000
  C   C4        1.0  0.24584  0.15006  0.14100  1.0000
  C   C5        1.0  0.62169  0.97964  0.82985  1.0000
  C   C6        1.0  0.37831  0.02036  0.17014  1.0000
  C   C7        1.0  0.58662  0.00836  0.72794  1.0000
  C   C8        1.0  0.41338  0.99164  0.27206  1.0000
  C   C9        1.0  0.68796  0.91052  0.65519  1.0000
  C   C10       1.0  0.31204  0.08949  0.34480  1.0000
  C   C11       1.0  0.82403  0.78378  0.68426  1.0000
  C   C12       1.0  0.17596  0.21623  0.31573  1.0000
  C   C13       1.0  0.93632  0.68038  0.60510  1.0000
  C   C14       1.0  0.06368  0.31963  0.39489  1.0000
  C   C15       1.0  0.43868  0.14634  0.70099  1.0000
  C   C16       1.0  0.56132  0.85367  0.29901  1.0000
  C   C17       1.0  0.29090  0.54844  0.44445  1.0000
  C   C18       1.0  0.70910  0.45157  0.55555  1.0000
  C   C19       1.0  0.42234  0.54096  0.37484  1.0000
  C   C20       1.0  0.57767  0.45904  0.62516  1.0000
  C   C21       1.0  0.46355  0.31046  0.45495  1.0000
  C   C22       1.0  0.53645  0.68955  0.54505  1.0000
  C   C23       1.0  0.68889  0.32925  0.32385  1.0000
  C   C24       1.0  0.31111  0.67075  0.67616  1.0000
  C   C25       1.0  0.68273  0.33088  0.21078  1.0000
  C   C26       1.0  0.31727  0.66912  0.78923  1.0000
  C   C27       1.0  0.61762  0.24364  0.17953  1.0000
  C   C28       1.0  0.38238  0.75636  0.82047  1.0000
  C   C29       1.0  0.61454  0.24380  0.07484  1.0000
  C   C30       1.0  0.38547  0.75619  0.92517  1.0000
  C   C31       1.0  0.67635  0.33106  0.99962  1.0000
  C   C32       1.0  0.32366  0.66894  0.00039  1.0000
  C   C33       1.0  0.73848  0.42046  0.03111  1.0000
  C   C34       1.0  0.26152  0.57954  0.96889  1.0000
  C   C35       1.0  0.74110  0.42105  0.13565  1.0000
  C   C36       1.0  0.25890  0.57895  0.86435  1.0000
  C   C37       1.0  0.67155  0.33319  0.88630  1.0000
  C   C38       1.0  0.32846  0.66681  0.11371  1.0000
  C   C39       1.0  0.89740  0.36182  0.76219  1.0000
  C   C40       1.0  0.10260  0.63817  0.23781  1.0000
  C   C41       1.0  0.06774  0.12534  0.75615  1.0000
  C   C42       1.0  0.93226  0.87466  0.24384  1.0000
  C   C43       1.0  0.93744  0.12433  0.82408  1.0000
  C   C44       1.0  0.06256  0.87567  0.17592  1.0000
  I   I1        1.0  0.79775  0.80259  0.01475  1.0000
  I   I2        1.0  0.20225  0.19740  0.98524  1.0000
  N   N1        1.0  0.31847  0.40390  0.49431  1.0000
  N   N2        1.0  0.68153  0.59610  0.50569  1.0000
  N   N3        1.0  0.52996  0.39007  0.38284  1.0000
  N   N4        1.0  0.47004  0.60994  0.61716  1.0000
  N   N5        1.0  0.04143  0.27412  0.71839  1.0000
  N   N6        1.0  0.95856  0.72588  0.28161  1.0000
  N   N7        1.0  0.83034  0.27496  0.82638  1.0000
  N   N8        1.0  0.16966  0.72503  0.17362  1.0000
  O   O1        1.0  0.04053  0.55476  0.64437  1.0000
  O   O2        1.0  0.95946  0.44524  0.35562  1.0000
  O   O3        1.0  0.92188  0.72389  0.51116  1.0000
  O   O4        1.0  0.07812  0.27613  0.48883  1.0000
  O   O5        1.0  0.39325  0.26124  0.74750  1.0000
  O   O6        1.0  0.60675  0.73876  0.25249  1.0000
  O   O7        1.0  0.36755  0.13497  0.63054  1.0000
  O   O8        1.0  0.63245  0.86503  0.36945  1.0000
