data_image0
_chemical_formula_structural       U4H8C8O28
_chemical_formula_sum              "U4 H8 C8 O28"
_cell_length_a       5.49386
_cell_length_b       9.61457
_cell_length_c       12.8494
_cell_angle_alpha    89.9993
_cell_angle_beta     89.9964
_cell_angle_gamma    99.5128

_space_group_name_H-M_alt    "P 1"
_space_group_IT_number       1

loop_
  _space_group_symop_operation_xyz
  'x, y, z'

loop_
  _atom_site_type_symbol
  _atom_site_label
  _atom_site_symmetry_multiplicity
  _atom_site_fract_x
  _atom_site_fract_y
  _atom_site_fract_z
  _atom_site_occupancy
  U   U1        1.0  0.76440  0.75595  0.90967  1.0000
  U   U2        1.0  0.23567  0.74406  0.40967  1.0000
  U   U3        1.0  0.23560  0.24407  0.09033  1.0000
  U   U4        1.0  0.76430  0.25590  0.59034  1.0000
  H   H1        1.0  0.72627  0.63441  0.69812  1.0000
  H   H2        1.0  0.27376  0.86558  0.19811  1.0000
  H   H3        1.0  0.27371  0.36557  0.30188  1.0000
  H   H4        1.0  0.72629  0.13442  0.80189  1.0000
  H   H5        1.0  0.92483  0.77400  0.67713  1.0000
  H   H6        1.0  0.07521  0.72600  0.17714  1.0000
  H   H7        1.0  0.07512  0.22600  0.32287  1.0000
  H   H8        1.0  0.92487  0.27400  0.82285  1.0000
  C   C1        1.0  0.49787  0.96473  0.05332  1.0000
  C   C2        1.0  0.50213  0.53527  0.55333  1.0000
  C   C3        1.0  0.50215  0.03530  0.94668  1.0000
  C   C4        1.0  0.49785  0.46471  0.44666  1.0000
  C   C5        1.0  0.00752  0.53211  0.05457  1.0000
  C   C6        1.0  0.99244  0.96787  0.55457  1.0000
  C   C7        1.0  0.99254  0.46792  0.94543  1.0000
  C   C8        1.0  0.00750  0.03209  0.44542  1.0000
  O   O1        1.0  0.46243  0.65002  0.90584  1.0000
  O   O2        1.0  0.53767  0.84999  0.40582  1.0000
  O   O3        1.0  0.53752  0.34998  0.09418  1.0000
  O   O4        1.0  0.46235  0.15002  0.59422  1.0000
  O   O5        1.0  0.06590  0.86282  0.91033  1.0000
  O   O6        1.0  0.93414  0.63722  0.41034  1.0000
  O   O7        1.0  0.93416  0.13726  0.08964  1.0000
  O   O8        1.0  0.06580  0.36273  0.58964  1.0000
  O   O9        1.0  0.60116  0.85778  0.06118  1.0000
  O   O10       1.0  0.39884  0.64224  0.56117  1.0000
  O   O11       1.0  0.39890  0.14227  0.93883  1.0000
  O   O12       1.0  0.60109  0.35772  0.43883  1.0000
  O   O13       1.0  0.38279  0.01859  0.12518  1.0000
  O   O14       1.0  0.61716  0.48140  0.62518  1.0000
  O   O15       1.0  0.61719  0.98144  0.87482  1.0000
  O   O16       1.0  0.38284  0.51859  0.37481  1.0000
  O   O17       1.0  0.92734  0.64832  0.06505  1.0000
  O   O18       1.0  0.07267  0.85166  0.56505  1.0000
  O   O19       1.0  0.07272  0.35171  0.93495  1.0000
  O   O20       1.0  0.92725  0.14828  0.43496  1.0000
  O   O21       1.0  0.09998  0.46658  0.12500  1.0000
  O   O22       1.0  0.89986  0.03339  0.62497  1.0000
  O   O23       1.0  0.90006  0.53345  0.87501  1.0000
  O   O24       1.0  0.10009  0.96657  0.37501  1.0000
  O   O25       1.0  0.80051  0.72731  0.72795  1.0000
  O   O26       1.0  0.19953  0.77270  0.22795  1.0000
  O   O27       1.0  0.19947  0.27269  0.27205  1.0000
  O   O28       1.0  0.80052  0.22731  0.77206  1.0000
