data_image0
_chemical_formula_structural       Tb4H24C12O36
_chemical_formula_sum              "Tb4 H24 C12 O36"
_cell_length_a       9.21629
_cell_length_b       9.91424
_cell_length_c       11.1976
_cell_angle_alpha    114.393
_cell_angle_beta     89.9999
_cell_angle_gamma    89.9999

_space_group_name_H-M_alt    "P 1"
_space_group_IT_number       1

loop_
  _space_group_symop_operation_xyz
  'x, y, z'

loop_
  _atom_site_type_symbol
  _atom_site_label
  _atom_site_symmetry_multiplicity
  _atom_site_fract_x
  _atom_site_fract_y
  _atom_site_fract_z
  _atom_site_occupancy
  Tb  Tb1       1.0  0.04191  0.33746  0.19706  1.0000
  Tb  Tb2       1.0  0.54191  0.16254  0.80295  1.0000
  Tb  Tb3       1.0  0.95808  0.66254  0.80295  1.0000
  Tb  Tb4       1.0  0.45809  0.83746  0.19706  1.0000
  H   H1        1.0  0.29330  0.17002  0.24908  1.0000
  H   H2        1.0  0.79329  0.32998  0.75092  1.0000
  H   H3        1.0  0.70670  0.82999  0.75092  1.0000
  H   H4        1.0  0.20670  0.67002  0.24908  1.0000
  H   H5        1.0  0.36457  0.31447  0.11688  1.0000
  H   H6        1.0  0.86457  0.18553  0.88312  1.0000
  H   H7        1.0  0.63542  0.68553  0.88312  1.0000
  H   H8        1.0  0.13543  0.81447  0.11688  1.0000
  H   H9        1.0  0.32359  0.48689  0.21000  1.0000
  H   H10       1.0  0.82360  0.01312  0.79000  1.0000
  H   H11       1.0  0.67640  0.51312  0.79000  1.0000
  H   H12       1.0  0.17641  0.98689  0.21000  1.0000
  H   H13       1.0  0.74920  0.40375  0.12823  1.0000
  H   H14       1.0  0.24919  0.09625  0.87176  1.0000
  H   H15       1.0  0.25081  0.59625  0.87175  1.0000
  H   H16       1.0  0.75080  0.90375  0.12824  1.0000
  H   H17       1.0  0.19918  0.20336  0.37450  1.0000
  H   H18       1.0  0.69918  0.29665  0.62550  1.0000
  H   H19       1.0  0.80082  0.79665  0.62550  1.0000
  H   H20       1.0  0.30082  0.70336  0.37450  1.0000
  H   H21       1.0  0.77965  0.54629  0.25177  1.0000
  H   H22       1.0  0.27965  0.95371  0.74823  1.0000
  H   H23       1.0  0.22035  0.45370  0.74822  1.0000
  H   H24       1.0  0.72035  0.04629  0.25177  1.0000
  C   C1        1.0  0.02563  0.57396  0.05356  1.0000
  C   C2        1.0  0.52562  0.92603  0.94644  1.0000
  C   C3        1.0  0.97438  0.42603  0.94644  1.0000
  C   C4        1.0  0.47437  0.07396  0.05356  1.0000
  C   C5        1.0  0.05196  0.56250  0.50164  1.0000
  C   C6        1.0  0.55197  0.93752  0.49836  1.0000
  C   C7        1.0  0.94803  0.43751  0.49836  1.0000
  C   C8        1.0  0.44804  0.06250  0.50164  1.0000
  C   C9        1.0  0.92571  0.00263  0.03273  1.0000
  C   C10       1.0  0.42571  0.49737  0.96728  1.0000
  C   C11       1.0  0.07429  0.99736  0.96728  1.0000
  C   C12       1.0  0.57429  0.50263  0.03273  1.0000
  O   O1        1.0  0.06057  0.57443  0.16276  1.0000
  O   O2        1.0  0.56056  0.92556  0.83724  1.0000
  O   O3        1.0  0.93944  0.42555  0.83724  1.0000
  O   O4        1.0  0.43943  0.07444  0.16276  1.0000
  O   O5        1.0  0.02861  0.68342  0.02257  1.0000
  O   O6        1.0  0.52860  0.81656  0.97743  1.0000
  O   O7        1.0  0.97140  0.31656  0.97742  1.0000
  O   O8        1.0  0.47139  0.18342  0.02257  1.0000
  O   O9        1.0  0.10986  0.54422  0.39302  1.0000
  O   O10       1.0  0.60986  0.95579  0.60698  1.0000
  O   O11       1.0  0.89014  0.45579  0.60698  1.0000
  O   O12       1.0  0.39014  0.04422  0.39302  1.0000
  O   O13       1.0  0.06986  0.67108  0.61055  1.0000
  O   O14       1.0  0.56987  0.82893  0.38945  1.0000
  O   O15       1.0  0.93013  0.32894  0.38945  1.0000
  O   O16       1.0  0.43013  0.17108  0.61055  1.0000
  O   O17       1.0  0.88933  0.12323  0.12565  1.0000
  O   O18       1.0  0.38933  0.37675  0.87436  1.0000
  O   O19       1.0  0.11067  0.87676  0.87436  1.0000
  O   O20       1.0  0.61067  0.62323  0.12565  1.0000
  O   O21       1.0  0.85223  0.88357  0.98851  1.0000
  O   O22       1.0  0.35224  0.61643  0.01149  1.0000
  O   O23       1.0  0.14777  0.11642  0.01149  1.0000
  O   O24       1.0  0.64777  0.38356  0.98851  1.0000
  O   O25       1.0  0.28595  0.38510  0.16658  1.0000
  O   O26       1.0  0.78595  0.11490  0.83342  1.0000
  O   O27       1.0  0.71405  0.61490  0.83342  1.0000
  O   O28       1.0  0.21405  0.88510  0.16658  1.0000
  O   O29       1.0  0.79984  0.44019  0.21455  1.0000
  O   O30       1.0  0.29983  0.05981  0.78544  1.0000
  O   O31       1.0  0.20017  0.55981  0.78544  1.0000
  O   O32       1.0  0.70016  0.94019  0.21455  1.0000
  O   O33       1.0  0.19138  0.18933  0.28326  1.0000
  O   O34       1.0  0.69138  0.31068  0.71674  1.0000
  O   O35       1.0  0.80862  0.81068  0.71674  1.0000
  O   O36       1.0  0.30862  0.68933  0.28326  1.0000
