data_image0
_chemical_formula_structural       Nd4Cu4H32C56N8O32
_chemical_formula_sum              "Nd4 Cu4 H32 C56 N8 O32"
_cell_length_a       9.26136
_cell_length_b       11.5121
_cell_length_c       17.2671
_cell_angle_alpha    104.878
_cell_angle_beta     90
_cell_angle_gamma    113.719

_space_group_name_H-M_alt    "P 1"
_space_group_IT_number       1

loop_
  _space_group_symop_operation_xyz
  'x, y, z'

loop_
  _atom_site_type_symbol
  _atom_site_label
  _atom_site_symmetry_multiplicity
  _atom_site_fract_x
  _atom_site_fract_y
  _atom_site_fract_z
  _atom_site_occupancy
  Nd  Nd1       1.0  0.30282  0.96842  0.92522  1.0000
  Nd  Nd2       1.0  0.33435  0.03158  0.57485  1.0000
  Nd  Nd3       1.0  0.69718  0.03159  0.07478  1.0000
  Nd  Nd4       1.0  0.66565  0.96842  0.42515  1.0000
  Cu  Cu1       1.0  0.23787  0.32273  0.13014  1.0000
  Cu  Cu2       1.0  0.91507  0.67719  0.36986  1.0000
  Cu  Cu3       1.0  0.76213  0.67727  0.86985  1.0000
  Cu  Cu4       1.0  0.08492  0.32281  0.63014  1.0000
  H   H1        1.0  0.61613  0.19529  0.77714  1.0000
  H   H2        1.0  0.42074  0.80474  0.72285  1.0000
  H   H3        1.0  0.38387  0.80471  0.22287  1.0000
  H   H4        1.0  0.57926  0.19527  0.27715  1.0000
  H   H5        1.0  0.78990  0.30553  0.68430  1.0000
  H   H6        1.0  0.48437  0.69460  0.81574  1.0000
  H   H7        1.0  0.21010  0.69446  0.31570  1.0000
  H   H8        1.0  0.51564  0.30540  0.18426  1.0000
  H   H9        1.0  0.16174  0.23052  0.75992  1.0000
  H   H10       1.0  0.93113  0.76942  0.74003  1.0000
  H   H11       1.0  0.83826  0.76948  0.24008  1.0000
  H   H12       1.0  0.06887  0.23058  0.25997  1.0000
  H   H13       1.0  0.00683  0.12776  0.86171  1.0000
  H   H14       1.0  0.87898  0.87222  0.63825  1.0000
  H   H15       1.0  0.99317  0.87225  0.13829  1.0000
  H   H16       1.0  0.12103  0.12778  0.36175  1.0000
  H   H17       1.0  0.55526  0.73179  0.06108  1.0000
  H   H18       1.0  0.82337  0.26810  0.43896  1.0000
  H   H19       1.0  0.44474  0.26821  0.93893  1.0000
  H   H20       1.0  0.17663  0.73190  0.56104  1.0000
  H   H21       1.0  0.49002  0.56422  0.13468  1.0000
  H   H22       1.0  0.92576  0.43564  0.36534  1.0000
  H   H23       1.0  0.50998  0.43578  0.86532  1.0000
  H   H24       1.0  0.07424  0.56436  0.63466  1.0000
  H   H25       1.0  0.05222  0.33348  0.99612  1.0000
  H   H26       1.0  0.71882  0.66648  0.50388  1.0000
  H   H27       1.0  0.94778  0.66652  0.00388  1.0000
  H   H28       1.0  0.28118  0.33352  0.49612  1.0000
  H   H29       1.0  0.09743  0.50100  0.91860  1.0000
  H   H30       1.0  0.59652  0.49904  0.58145  1.0000
  H   H31       1.0  0.90257  0.49900  0.08141  1.0000
  H   H32       1.0  0.40348  0.50097  0.41855  1.0000
  C   C1        1.0  0.69490  0.08248  0.88231  1.0000
  C   C2        1.0  0.61241  0.91742  0.61759  1.0000
  C   C3        1.0  0.30510  0.91752  0.11769  1.0000
  C   C4        1.0  0.38759  0.08258  0.38241  1.0000
  C   C5        1.0  0.79760  0.15142  0.82637  1.0000
  C   C6        1.0  0.64607  0.84854  0.67358  1.0000
  C   C7        1.0  0.20240  0.84859  0.17363  1.0000
  C   C8        1.0  0.35393  0.15146  0.32642  1.0000
  C   C9        1.0  0.73721  0.20348  0.77638  1.0000
  C   C10       1.0  0.53363  0.79654  0.72361  1.0000
  C   C11       1.0  0.26279  0.79652  0.22363  1.0000
  C   C12       1.0  0.46637  0.20345  0.27639  1.0000
  C   C13       1.0  0.83300  0.26363  0.72386  1.0000
  C   C14       1.0  0.56934  0.73649  0.77616  1.0000
  C   C15       1.0  0.16699  0.73637  0.27614  1.0000
  C   C16       1.0  0.43066  0.26351  0.22383  1.0000
  C   C17       1.0  0.04169  0.22280  0.76703  1.0000
  C   C18       1.0  0.81880  0.77715  0.73291  1.0000
  C   C19       1.0  0.95831  0.77720  0.23297  1.0000
  C   C20       1.0  0.18120  0.22285  0.26709  1.0000
  C   C21       1.0  0.95420  0.16481  0.82282  1.0000
  C   C22       1.0  0.78930  0.83514  0.67714  1.0000
  C   C23       1.0  0.04580  0.83519  0.17718  1.0000
  C   C24       1.0  0.21070  0.16486  0.32286  1.0000
  C   C25       1.0  0.34988  0.74234  0.94911  1.0000
  C   C26       1.0  0.60749  0.25759  0.55093  1.0000
  C   C27       1.0  0.65012  0.25766  0.05089  1.0000
  C   C28       1.0  0.39251  0.74241  0.44907  1.0000
  C   C29       1.0  0.32868  0.63143  0.98467  1.0000
  C   C30       1.0  0.69719  0.36850  0.51535  1.0000
  C   C31       1.0  0.67132  0.36857  0.01533  1.0000
  C   C32       1.0  0.30281  0.63150  0.48465  1.0000
  C   C33       1.0  0.44219  0.64608  0.04383  1.0000
  C   C34       1.0  0.79603  0.35382  0.45620  1.0000
  C   C35       1.0  0.55781  0.35392  0.95618  1.0000
  C   C36       1.0  0.20397  0.64618  0.54380  1.0000
  C   C37       1.0  0.40696  0.55157  0.08527  1.0000
  C   C38       1.0  0.85535  0.44831  0.41474  1.0000
  C   C39       1.0  0.59304  0.44843  0.91473  1.0000
  C   C40       1.0  0.14465  0.55169  0.58526  1.0000
  C   C41       1.0  0.16125  0.42378  0.00812  1.0000
  C   C42       1.0  0.73751  0.57617  0.49189  1.0000
  C   C43       1.0  0.83875  0.57622  0.99188  1.0000
  C   C44       1.0  0.26248  0.42383  0.50811  1.0000
  C   C45       1.0  0.18731  0.51601  0.96527  1.0000
  C   C46       1.0  0.67136  0.48396  0.53477  1.0000
  C   C47       1.0  0.81269  0.48399  0.03473  1.0000
  C   C48       1.0  0.32864  0.51604  0.46523  1.0000
  C   C49       1.0  0.94595  0.92799  0.97634  1.0000
  C   C50       1.0  0.01796  0.07202  0.52366  1.0000
  C   C51       1.0  0.05406  0.07201  0.02365  1.0000
  C   C52       1.0  0.98205  0.92798  0.47634  1.0000
  C   C53       1.0  0.21751  0.92454  0.73103  1.0000
  C   C54       1.0  0.29303  0.07557  0.76908  1.0000
  C   C55       1.0  0.78249  0.07546  0.26897  1.0000
  C   C56       1.0  0.70697  0.92443  0.23092  1.0000
  N   N1        1.0  0.98164  0.27020  0.71710  1.0000
  N   N2        1.0  0.71139  0.72985  0.78289  1.0000
  N   N3        1.0  0.01836  0.72980  0.28289  1.0000
  N   N4        1.0  0.28862  0.27015  0.21711  1.0000
  N   N5        1.0  0.26778  0.44243  0.06892  1.0000
  N   N6        1.0  0.82536  0.55748  0.43108  1.0000
  N   N7        1.0  0.73223  0.55758  0.93108  1.0000
  N   N8        1.0  0.17464  0.44252  0.56892  1.0000
  O   O1        1.0  0.54597  0.03317  0.86262  1.0000
  O   O2        1.0  0.51286  0.96682  0.63727  1.0000
  O   O3        1.0  0.45403  0.96683  0.13738  1.0000
  O   O4        1.0  0.48714  0.03319  0.36274  1.0000
  O   O5        1.0  0.76613  0.08103  0.94457  1.0000
  O   O6        1.0  0.68509  0.91877  0.55532  1.0000
  O   O7        1.0  0.23387  0.91897  0.05543  1.0000
  O   O8        1.0  0.31491  0.08123  0.44468  1.0000
  O   O9        1.0  0.23932  0.72772  0.89919  1.0000
  O   O10       1.0  0.51161  0.27225  0.60088  1.0000
  O   O11       1.0  0.76068  0.27228  0.10081  1.0000
  O   O12       1.0  0.48839  0.72775  0.39912  1.0000
  O   O13       1.0  0.47411  0.85163  0.97366  1.0000
  O   O14       1.0  0.62240  0.14830  0.52633  1.0000
  O   O15       1.0  0.52588  0.14837  0.02634  1.0000
  O   O16       1.0  0.37760  0.85170  0.47367  1.0000
  O   O17       1.0  0.00409  0.86842  0.92159  1.0000
  O   O18       1.0  0.13562  0.13158  0.57845  1.0000
  O   O19       1.0  0.99591  0.13157  0.07841  1.0000
  O   O20       1.0  0.86438  0.86842  0.42155  1.0000
  O   O21       1.0  0.80620  0.87779  0.99438  1.0000
  O   O22       1.0  0.92844  0.12221  0.50558  1.0000
  O   O23       1.0  0.19380  0.12220  0.00562  1.0000
  O   O24       1.0  0.07156  0.87779  0.49443  1.0000
  O   O25       1.0  0.20207  0.85273  0.77774  1.0000
  O   O26       1.0  0.34940  0.14734  0.72235  1.0000
  O   O27       1.0  0.79793  0.14727  0.22226  1.0000
  O   O28       1.0  0.65060  0.85266  0.27765  1.0000
  O   O29       1.0  0.17353  0.88513  0.65567  1.0000
  O   O30       1.0  0.28846  0.11498  0.84444  1.0000
  O   O31       1.0  0.82647  0.11487  0.34433  1.0000
  O   O32       1.0  0.71154  0.88502  0.15556  1.0000
