data_image0
_chemical_formula_structural       Zn8H20C28N4O24
_chemical_formula_sum              "Zn8 H20 C28 N4 O24"
_cell_length_a       6.82107
_cell_length_b       9.37015
_cell_length_c       13.8133
_cell_angle_alpha    100.382
_cell_angle_beta     89.9999
_cell_angle_gamma    90

_space_group_name_H-M_alt    "P 1"
_space_group_IT_number       1

loop_
  _space_group_symop_operation_xyz
  'x, y, z'

loop_
  _atom_site_type_symbol
  _atom_site_label
  _atom_site_symmetry_multiplicity
  _atom_site_fract_x
  _atom_site_fract_y
  _atom_site_fract_z
  _atom_site_occupancy
  Zn  Zn1       1.0  0.29796  0.60486  0.12947  1.0000
  Zn  Zn2       1.0  0.79795  0.39514  0.37053  1.0000
  Zn  Zn3       1.0  0.70204  0.39514  0.87053  1.0000
  Zn  Zn4       1.0  0.20204  0.60486  0.62947  1.0000
  Zn  Zn5       1.0  0.19496  0.41343  0.87605  1.0000
  Zn  Zn6       1.0  0.69495  0.58658  0.62395  1.0000
  Zn  Zn7       1.0  0.80505  0.58658  0.12395  1.0000
  Zn  Zn8       1.0  0.30504  0.41342  0.37605  1.0000
  H   H1        1.0  0.04602  0.55660  0.24728  1.0000
  H   H2        1.0  0.54602  0.44340  0.25272  1.0000
  H   H3        1.0  0.95398  0.44340  0.75272  1.0000
  H   H4        1.0  0.45398  0.55660  0.74728  1.0000
  H   H5        1.0  0.54846  0.65870  0.25894  1.0000
  H   H6        1.0  0.04846  0.34130  0.24106  1.0000
  H   H7        1.0  0.45154  0.34130  0.74106  1.0000
  H   H8        1.0  0.95153  0.65870  0.75894  1.0000
  H   H9        1.0  0.18319  0.00168  0.92765  1.0000
  H   H10       1.0  0.68319  0.99832  0.57235  1.0000
  H   H11       1.0  0.81682  0.99832  0.07235  1.0000
  H   H12       1.0  0.31682  0.00168  0.42766  1.0000
  H   H13       1.0  0.40791  0.18100  0.21585  1.0000
  H   H14       1.0  0.90791  0.81901  0.28415  1.0000
  H   H15       1.0  0.59209  0.81900  0.78415  1.0000
  H   H16       1.0  0.09208  0.18099  0.71585  1.0000
  H   H17       1.0  0.41592  0.92478  0.25066  1.0000
  H   H18       1.0  0.91592  0.07523  0.24934  1.0000
  H   H19       1.0  0.58408  0.07523  0.74934  1.0000
  H   H20       1.0  0.08407  0.92477  0.75066  1.0000
  C   C1        1.0  0.19986  0.71985  0.94976  1.0000
  C   C2        1.0  0.69986  0.28015  0.55024  1.0000
  C   C3        1.0  0.80015  0.28015  0.05024  1.0000
  C   C4        1.0  0.30014  0.71985  0.44976  1.0000
  C   C5        1.0  0.25139  0.85218  0.02400  1.0000
  C   C6        1.0  0.75140  0.14782  0.47600  1.0000
  C   C7        1.0  0.74861  0.14782  0.97600  1.0000
  C   C8        1.0  0.24861  0.85218  0.52400  1.0000
  C   C9        1.0  0.23477  0.98946  0.00005  1.0000
  C   C10       1.0  0.73477  0.01054  0.49995  1.0000
  C   C11       1.0  0.76524  0.01054  0.99994  1.0000
  C   C12       1.0  0.26524  0.98946  0.50006  1.0000
  C   C13       1.0  0.28735  0.11054  0.06958  1.0000
  C   C14       1.0  0.78735  0.88945  0.43042  1.0000
  C   C15       1.0  0.71265  0.88945  0.93042  1.0000
  C   C16       1.0  0.21265  0.11055  0.56958  1.0000
  C   C17       1.0  0.35726  0.08910  0.16118  1.0000
  C   C18       1.0  0.85726  0.91090  0.33881  1.0000
  C   C19       1.0  0.64274  0.91090  0.83882  1.0000
  C   C20       1.0  0.14273  0.08910  0.66118  1.0000
  C   C21       1.0  0.36622  0.94748  0.17987  1.0000
  C   C22       1.0  0.86622  0.05251  0.32013  1.0000
  C   C23       1.0  0.63378  0.05252  0.82013  1.0000
  C   C24       1.0  0.13378  0.94748  0.67987  1.0000
  C   C25       1.0  0.26884  0.25915  0.04227  1.0000
  C   C26       1.0  0.76884  0.74085  0.45773  1.0000
  C   C27       1.0  0.73116  0.74085  0.95772  1.0000
  C   C28       1.0  0.23116  0.25915  0.54228  1.0000
  N   N1        1.0  0.31452  0.83140  0.11271  1.0000
  N   N2        1.0  0.81452  0.16860  0.38729  1.0000
  N   N3        1.0  0.68548  0.16860  0.88729  1.0000
  N   N4        1.0  0.18548  0.83140  0.61271  1.0000
  O   O1        1.0  0.23000  0.59612  0.97866  1.0000
  O   O2        1.0  0.73001  0.40388  0.52135  1.0000
  O   O3        1.0  0.77000  0.40388  0.02135  1.0000
  O   O4        1.0  0.27000  0.59612  0.47866  1.0000
  O   O5        1.0  0.13502  0.73311  0.86792  1.0000
  O   O6        1.0  0.63503  0.26689  0.63208  1.0000
  O   O7        1.0  0.86498  0.26689  0.13208  1.0000
  O   O8        1.0  0.36498  0.73311  0.36792  1.0000
  O   O9        1.0  0.19993  0.25773  0.95592  1.0000
  O   O10       1.0  0.69994  0.74227  0.54408  1.0000
  O   O11       1.0  0.80007  0.74227  0.04407  1.0000
  O   O12       1.0  0.30007  0.25773  0.45593  1.0000
  O   O13       1.0  0.32076  0.36806  0.10409  1.0000
  O   O14       1.0  0.82075  0.63194  0.39591  1.0000
  O   O15       1.0  0.67924  0.63194  0.89590  1.0000
  O   O16       1.0  0.17924  0.36806  0.60410  1.0000
  O   O17       1.0  0.04525  0.61959  0.19662  1.0000
  O   O18       1.0  0.54524  0.38041  0.30338  1.0000
  O   O19       1.0  0.95475  0.38041  0.80338  1.0000
  O   O20       1.0  0.45475  0.61959  0.69662  1.0000
  O   O21       1.0  0.55548  0.59590  0.19423  1.0000
  O   O22       1.0  0.05548  0.40410  0.30577  1.0000
  O   O23       1.0  0.44451  0.40410  0.80577  1.0000
  O   O24       1.0  0.94451  0.59590  0.69423  1.0000
