data_image0
_chemical_formula_structural       Zn4H28C32N20O8
_chemical_formula_sum              "Zn4 H28 C32 N20 O8"
_cell_length_a       9.84947
_cell_length_b       12.0114
_cell_length_c       12.0114
_cell_angle_alpha    88.2488
_cell_angle_beta     69.2657
_cell_angle_gamma    69.2659

_space_group_name_H-M_alt    "P 1"
_space_group_IT_number       1

loop_
  _space_group_symop_operation_xyz
  'x, y, z'

loop_
  _atom_site_type_symbol
  _atom_site_label
  _atom_site_symmetry_multiplicity
  _atom_site_fract_x
  _atom_site_fract_y
  _atom_site_fract_z
  _atom_site_occupancy
  Zn  Zn1       1.0  0.85492  0.84198  0.62661  1.0000
  Zn  Zn2       1.0  0.64508  0.37339  0.15802  1.0000
  Zn  Zn3       1.0  0.14508  0.15802  0.37339  1.0000
  Zn  Zn4       1.0  0.35492  0.62661  0.84198  1.0000
  H   H1        1.0  0.70527  0.72090  0.50948  1.0000
  H   H2        1.0  0.79473  0.49052  0.27910  1.0000
  H   H3        1.0  0.29473  0.27910  0.49052  1.0000
  H   H4        1.0  0.20528  0.50948  0.72090  1.0000
  H   H5        1.0  0.50052  0.75123  0.57060  1.0000
  H   H6        1.0  0.99948  0.42940  0.24877  1.0000
  H   H7        1.0  0.49948  0.24877  0.42940  1.0000
  H   H8        1.0  0.00053  0.57059  0.75123  1.0000
  H   H9        1.0  0.63268  0.60330  0.55936  1.0000
  H   H10       1.0  0.86732  0.44064  0.39670  1.0000
  H   H11       1.0  0.36732  0.39670  0.44064  1.0000
  H   H12       1.0  0.13269  0.55936  0.60330  1.0000
  H   H13       1.0  0.64798  0.01890  0.84520  1.0000
  H   H14       1.0  0.85201  0.15480  0.98111  1.0000
  H   H15       1.0  0.35200  0.98111  0.15480  1.0000
  H   H16       1.0  0.14799  0.84520  0.01889  1.0000
  H   H17       1.0  0.50741  0.24166  0.89049  1.0000
  H   H18       1.0  0.99259  0.10950  0.75835  1.0000
  H   H19       1.0  0.49258  0.75834  0.10951  1.0000
  H   H20       1.0  0.00742  0.89049  0.24166  1.0000
  H   H21       1.0  0.68889  0.26882  0.51189  1.0000
  H   H22       1.0  0.81110  0.48810  0.73118  1.0000
  H   H23       1.0  0.31111  0.73118  0.48811  1.0000
  H   H24       1.0  0.18890  0.51189  0.26882  1.0000
  H   H25       1.0  0.82406  0.04276  0.48012  1.0000
  H   H26       1.0  0.67594  0.51988  0.95723  1.0000
  H   H27       1.0  0.17594  0.95724  0.51988  1.0000
  H   H28       1.0  0.32407  0.48012  0.04277  1.0000
  C   C1        1.0  0.61075  0.72192  0.69817  1.0000
  C   C2        1.0  0.88925  0.30183  0.27809  1.0000
  C   C3        1.0  0.38925  0.27808  0.30183  1.0000
  C   C4        1.0  0.11075  0.69817  0.72192  1.0000
  C   C5        1.0  0.61339  0.69783  0.57703  1.0000
  C   C6        1.0  0.88661  0.42297  0.30217  1.0000
  C   C7        1.0  0.38661  0.30217  0.42297  1.0000
  C   C8        1.0  0.11339  0.57702  0.69783  1.0000
  C   C9        1.0  0.65288  0.07760  0.77390  1.0000
  C   C10       1.0  0.84712  0.22610  0.92241  1.0000
  C   C11       1.0  0.34711  0.92241  0.22610  1.0000
  C   C12       1.0  0.15289  0.77390  0.07759  1.0000
  C   C13       1.0  0.57406  0.20083  0.79837  1.0000
  C   C14       1.0  0.92593  0.20162  0.79918  1.0000
  C   C15       1.0  0.42593  0.79918  0.20162  1.0000
  C   C16       1.0  0.07407  0.79838  0.20083  1.0000
  C   C17       1.0  0.58624  0.27085  0.70272  1.0000
  C   C18       1.0  0.91375  0.29727  0.72916  1.0000
  C   C19       1.0  0.41375  0.72916  0.29727  1.0000
  C   C20       1.0  0.08625  0.70273  0.27085  1.0000
  C   C21       1.0  0.67700  0.21459  0.58649  1.0000
  C   C22       1.0  0.82299  0.41350  0.78541  1.0000
  C   C23       1.0  0.32300  0.78542  0.41351  1.0000
  C   C24       1.0  0.17701  0.58649  0.21459  1.0000
  C   C25       1.0  0.75208  0.09103  0.56896  1.0000
  C   C26       1.0  0.74792  0.43104  0.90897  1.0000
  C   C27       1.0  0.24792  0.90897  0.43104  1.0000
  C   C28       1.0  0.25209  0.56896  0.09103  1.0000
  C   C29       1.0  0.50889  0.40528  0.72120  1.0000
  C   C30       1.0  0.99111  0.27879  0.59473  1.0000
  C   C31       1.0  0.49111  0.59473  0.27879  1.0000
  C   C32       1.0  0.00889  0.72121  0.40527  1.0000
  N   N1        1.0  0.69795  0.77386  0.72389  1.0000
  N   N2        1.0  0.80205  0.27611  0.22614  1.0000
  N   N3        1.0  0.30205  0.22614  0.27611  1.0000
  N   N4        1.0  0.19795  0.72389  0.77387  1.0000
  N   N5        1.0  0.66031  0.78069  0.84466  1.0000
  N   N6        1.0  0.83970  0.15534  0.21930  1.0000
  N   N7        1.0  0.33970  0.21931  0.15534  1.0000
  N   N8        1.0  0.16030  0.84466  0.78070  1.0000
  N   N9        1.0  0.55456  0.73427  0.89111  1.0000
  N   N10       1.0  0.94544  0.10890  0.26573  1.0000
  N   N11       1.0  0.44544  0.26573  0.10890  1.0000
  N   N12       1.0  0.05456  0.89110  0.73427  1.0000
  N   N13       1.0  0.52128  0.69635  0.80171  1.0000
  N   N14       1.0  0.97872  0.19830  0.30364  1.0000
  N   N15       1.0  0.47873  0.30365  0.19829  1.0000
  N   N16       1.0  0.02128  0.80170  0.69636  1.0000
  N   N17       1.0  0.73990  0.02373  0.66142  1.0000
  N   N18       1.0  0.76009  0.33858  0.97627  1.0000
  N   N19       1.0  0.26009  0.97628  0.33858  1.0000
  N   N20       1.0  0.23991  0.66142  0.02373  1.0000
  O   O1        1.0  0.42368  0.45109  0.83151  1.0000
  O   O2        1.0  0.07632  0.16848  0.54892  1.0000
  O   O3        1.0  0.57632  0.54892  0.16848  1.0000
  O   O4        1.0  0.92369  0.83152  0.45109  1.0000
  O   O5        1.0  0.52970  0.46433  0.63388  1.0000
  O   O6        1.0  0.97028  0.36611  0.53567  1.0000
  O   O7        1.0  0.47029  0.53567  0.36612  1.0000
  O   O8        1.0  0.02970  0.63388  0.46434  1.0000
