data_image0
_chemical_formula_structural       Zn4H28C32N20O8
_chemical_formula_sum              "Zn4 H28 C32 N20 O8"
_cell_length_a       7.89914
_cell_length_b       10.0599
_cell_length_c       19.0961
_cell_angle_alpha    90
_cell_angle_beta     90.0001
_cell_angle_gamma    95.7273

_space_group_name_H-M_alt    "P 1"
_space_group_IT_number       1

loop_
  _space_group_symop_operation_xyz
  'x, y, z'

loop_
  _atom_site_type_symbol
  _atom_site_label
  _atom_site_symmetry_multiplicity
  _atom_site_fract_x
  _atom_site_fract_y
  _atom_site_fract_z
  _atom_site_occupancy
  Zn  Zn1       1.0  0.80459  0.40757  0.34022  1.0000
  Zn  Zn2       1.0  0.19541  0.09243  0.84022  1.0000
  Zn  Zn3       1.0  0.19541  0.59243  0.65978  1.0000
  Zn  Zn4       1.0  0.80459  0.90757  0.15978  1.0000
  H   H1        1.0  0.43472  0.42842  0.31854  1.0000
  H   H2        1.0  0.56528  0.07158  0.81854  1.0000
  H   H3        1.0  0.56528  0.57158  0.68146  1.0000
  H   H4        1.0  0.43472  0.92842  0.18146  1.0000
  H   H5        1.0  0.72241  0.32329  0.48820  1.0000
  H   H6        1.0  0.27759  0.17671  0.98820  1.0000
  H   H7        1.0  0.27759  0.67671  0.51180  1.0000
  H   H8        1.0  0.72241  0.82329  0.01180  1.0000
  H   H9        1.0  0.17848  0.32797  0.51297  1.0000
  H   H10       1.0  0.82153  0.17203  0.01297  1.0000
  H   H11       1.0  0.82152  0.67203  0.48703  1.0000
  H   H12       1.0  0.17848  0.82797  0.98703  1.0000
  H   H13       1.0  0.46059  0.28979  0.56513  1.0000
  H   H14       1.0  0.53942  0.21021  0.06512  1.0000
  H   H15       1.0  0.53941  0.71021  0.43487  1.0000
  H   H16       1.0  0.46058  0.78979  0.93487  1.0000
  H   H17       1.0  0.96027  0.64566  0.13745  1.0000
  H   H18       1.0  0.03973  0.85434  0.63745  1.0000
  H   H19       1.0  0.03973  0.35434  0.86255  1.0000
  H   H20       1.0  0.96027  0.14566  0.36255  1.0000
  H   H21       1.0  0.86471  0.48421  0.16295  1.0000
  H   H22       1.0  0.13529  0.01579  0.66295  1.0000
  H   H23       1.0  0.13529  0.51579  0.83705  1.0000
  H   H24       1.0  0.86471  0.98421  0.33705  1.0000
  H   H25       1.0  0.05397  0.55246  0.20500  1.0000
  H   H26       1.0  0.94603  0.94754  0.70500  1.0000
  H   H27       1.0  0.94603  0.44754  0.79500  1.0000
  H   H28       1.0  0.05397  0.05246  0.29500  1.0000
  C   C1        1.0  0.43733  0.39705  0.37317  1.0000
  C   C2        1.0  0.56267  0.10295  0.87317  1.0000
  C   C3        1.0  0.56267  0.60296  0.62683  1.0000
  C   C4        1.0  0.43734  0.89704  0.12683  1.0000
  C   C5        1.0  0.12339  0.40438  0.37556  1.0000
  C   C6        1.0  0.87661  0.09561  0.87556  1.0000
  C   C7        1.0  0.87661  0.59561  0.62444  1.0000
  C   C8        1.0  0.12339  0.90439  0.12444  1.0000
  C   C9        1.0  0.59578  0.33728  0.46849  1.0000
  C   C10       1.0  0.40422  0.16272  0.96849  1.0000
  C   C11       1.0  0.40422  0.66272  0.53151  1.0000
  C   C12       1.0  0.59579  0.83728  0.03151  1.0000
  C   C13       1.0  0.83125  0.63967  0.23529  1.0000
  C   C14       1.0  0.16875  0.86033  0.73529  1.0000
  C   C15       1.0  0.16875  0.36033  0.76471  1.0000
  C   C16       1.0  0.83125  0.13967  0.26471  1.0000
  C   C17       1.0  0.29429  0.34008  0.48160  1.0000
  C   C18       1.0  0.70571  0.15992  0.98160  1.0000
  C   C19       1.0  0.70571  0.65992  0.51840  1.0000
  C   C20       1.0  0.29429  0.84008  0.01840  1.0000
  C   C21       1.0  0.28629  0.38007  0.41160  1.0000
  C   C22       1.0  0.71371  0.11993  0.91160  1.0000
  C   C23       1.0  0.71371  0.61993  0.58840  1.0000
  C   C24       1.0  0.28629  0.88007  0.08840  1.0000
  C   C25       1.0  0.45139  0.31790  0.51030  1.0000
  C   C26       1.0  0.54861  0.18210  0.01030  1.0000
  C   C27       1.0  0.54861  0.68210  0.48970  1.0000
  C   C28       1.0  0.45139  0.81790  0.98970  1.0000
  C   C29       1.0  0.93406  0.57753  0.18174  1.0000
  C   C30       1.0  0.06594  0.92246  0.68174  1.0000
  C   C31       1.0  0.06594  0.42247  0.81826  1.0000
  C   C32       1.0  0.93406  0.07754  0.31826  1.0000
  N   N1        1.0  0.58870  0.37641  0.40103  1.0000
  N   N2        1.0  0.41130  0.12359  0.90103  1.0000
  N   N3        1.0  0.41130  0.62359  0.59897  1.0000
  N   N4        1.0  0.58870  0.87641  0.09897  1.0000
  N   N5        1.0  0.77498  0.76099  0.23117  1.0000
  N   N6        1.0  0.22502  0.73901  0.73117  1.0000
  N   N7        1.0  0.22502  0.23901  0.76883  1.0000
  N   N8        1.0  0.77498  0.26099  0.26883  1.0000
  N   N9        1.0  0.77688  0.58435  0.29637  1.0000
  N   N10       1.0  0.22312  0.91565  0.79637  1.0000
  N   N11       1.0  0.22312  0.41565  0.70363  1.0000
  N   N12       1.0  0.77688  0.08435  0.20363  1.0000
  N   N13       1.0  0.68653  0.67380  0.32947  1.0000
  N   N14       1.0  0.31347  0.82620  0.82947  1.0000
  N   N15       1.0  0.31347  0.32620  0.67053  1.0000
  N   N16       1.0  0.68653  0.17380  0.17053  1.0000
  N   N17       1.0  0.68522  0.77956  0.29051  1.0000
  N   N18       1.0  0.31478  0.72044  0.79051  1.0000
  N   N19       1.0  0.31478  0.22044  0.70949  1.0000
  N   N20       1.0  0.68522  0.27956  0.20949  1.0000
  O   O1        1.0  0.12654  0.44267  0.31319  1.0000
  O   O2        1.0  0.87346  0.05732  0.81319  1.0000
  O   O3        1.0  0.87346  0.55732  0.68681  1.0000
  O   O4        1.0  0.12654  0.94268  0.18681  1.0000
  O   O5        1.0  0.98406  0.38064  0.41175  1.0000
  O   O6        1.0  0.01594  0.11936  0.91175  1.0000
  O   O7        1.0  0.01594  0.61936  0.58825  1.0000
  O   O8        1.0  0.98406  0.88064  0.08825  1.0000
