data_image0
_chemical_formula_structural       Hg4H24C28N4Cl4O20
_chemical_formula_sum              "Hg4 H24 C28 N4 Cl4 O20"
_cell_length_a       7.70739
_cell_length_b       9.94827
_cell_length_c       12.4403
_cell_angle_alpha    90
_cell_angle_beta     93.1002
_cell_angle_gamma    89.9999

_space_group_name_H-M_alt    "P 1"
_space_group_IT_number       1

loop_
  _space_group_symop_operation_xyz
  'x, y, z'

loop_
  _atom_site_type_symbol
  _atom_site_label
  _atom_site_symmetry_multiplicity
  _atom_site_fract_x
  _atom_site_fract_y
  _atom_site_fract_z
  _atom_site_occupancy
  Hg  Hg1       1.0  0.19961  0.58019  0.43802  1.0000
  Hg  Hg2       1.0  0.30039  0.08020  0.06197  1.0000
  Hg  Hg3       1.0  0.80039  0.41980  0.56197  1.0000
  Hg  Hg4       1.0  0.69961  0.91981  0.93802  1.0000
  H   H1        1.0  0.25771  0.65231  0.67058  1.0000
  H   H2        1.0  0.24229  0.15231  0.82942  1.0000
  H   H3        1.0  0.74229  0.34769  0.32942  1.0000
  H   H4        1.0  0.75771  0.84769  0.17058  1.0000
  H   H5        1.0  0.39472  0.54462  0.63474  1.0000
  H   H6        1.0  0.10528  0.04462  0.86525  1.0000
  H   H7        1.0  0.60528  0.45538  0.36525  1.0000
  H   H8        1.0  0.89472  0.95538  0.13474  1.0000
  H   H9        1.0  0.70992  0.15074  0.22348  1.0000
  H   H10       1.0  0.79008  0.65074  0.27652  1.0000
  H   H11       1.0  0.29008  0.84925  0.77652  1.0000
  H   H12       1.0  0.20992  0.34926  0.72348  1.0000
  H   H13       1.0  0.30757  0.16695  0.33922  1.0000
  H   H14       1.0  0.19244  0.66695  0.16078  1.0000
  H   H15       1.0  0.69244  0.83305  0.66078  1.0000
  H   H16       1.0  0.80757  0.33305  0.83922  1.0000
  H   H17       1.0  0.00779  0.07939  0.37362  1.0000
  H   H18       1.0  0.49221  0.57939  0.12638  1.0000
  H   H19       1.0  0.99221  0.92061  0.62638  1.0000
  H   H20       1.0  0.50779  0.42061  0.87362  1.0000
  H   H21       1.0  0.97100  0.83451  0.40421  1.0000
  H   H22       1.0  0.52900  0.33451  0.09579  1.0000
  H   H23       1.0  0.02899  0.16550  0.59579  1.0000
  H   H24       1.0  0.47101  0.66549  0.90421  1.0000
  C   C1        1.0  0.38973  0.83179  0.35626  1.0000
  C   C2        1.0  0.11027  0.33179  0.14374  1.0000
  C   C3        1.0  0.61027  0.16821  0.64374  1.0000
  C   C4        1.0  0.88973  0.66821  0.85626  1.0000
  C   C5        1.0  0.42144  0.96887  0.34144  1.0000
  C   C6        1.0  0.07856  0.46887  0.15857  1.0000
  C   C7        1.0  0.57856  0.03113  0.65857  1.0000
  C   C8        1.0  0.92144  0.53113  0.84144  1.0000
  C   C9        1.0  0.28387  0.05974  0.34870  1.0000
  C   C10       1.0  0.21613  0.55974  0.15130  1.0000
  C   C11       1.0  0.71613  0.94026  0.65130  1.0000
  C   C12       1.0  0.78388  0.44026  0.84870  1.0000
  C   C13       1.0  0.11932  0.01296  0.36912  1.0000
  C   C14       1.0  0.38067  0.51296  0.13088  1.0000
  C   C15       1.0  0.88067  0.98704  0.63088  1.0000
  C   C16       1.0  0.61933  0.48704  0.86912  1.0000
  C   C17       1.0  0.09684  0.87617  0.38605  1.0000
  C   C18       1.0  0.40316  0.37618  0.11394  1.0000
  C   C19       1.0  0.90316  0.12382  0.61394  1.0000
  C   C20       1.0  0.59684  0.62383  0.88605  1.0000
  C   C21       1.0  0.52486  0.72433  0.33831  1.0000
  C   C22       1.0  0.97514  0.22434  0.16169  1.0000
  C   C23       1.0  0.47514  0.27566  0.66169  1.0000
  C   C24       1.0  0.02486  0.77567  0.83831  1.0000
  C   C25       1.0  0.59730  0.02822  0.32437  1.0000
  C   C26       1.0  0.90270  0.52822  0.17563  1.0000
  C   C27       1.0  0.40270  0.97178  0.67563  1.0000
  C   C28       1.0  0.09730  0.47178  0.82437  1.0000
  N   N1        1.0  0.22991  0.78982  0.38098  1.0000
  N   N2        1.0  0.27009  0.28982  0.11902  1.0000
  N   N3        1.0  0.77009  0.21018  0.61902  1.0000
  N   N4        1.0  0.72991  0.71018  0.88098  1.0000
  Cl  Cl1       1.0  0.12614  0.34920  0.45096  1.0000
  Cl  Cl2       1.0  0.37386  0.84920  0.04904  1.0000
  Cl  Cl3       1.0  0.87386  0.65080  0.54904  1.0000
  Cl  Cl4       1.0  0.62614  0.15080  0.95096  1.0000
  O   O1        1.0  0.34420  0.63442  0.61718  1.0000
  O   O2        1.0  0.15580  0.13442  0.88282  1.0000
  O   O3        1.0  0.65580  0.36558  0.38282  1.0000
  O   O4        1.0  0.84420  0.86558  0.11718  1.0000
  O   O5        1.0  0.49512  0.60605  0.36998  1.0000
  O   O6        1.0  0.00487  0.10605  0.13001  1.0000
  O   O7        1.0  0.50487  0.39395  0.63001  1.0000
  O   O8        1.0  0.99513  0.89395  0.86999  1.0000
  O   O9        1.0  0.65735  0.75994  0.28896  1.0000
  O   O10       1.0  0.84265  0.25994  0.21104  1.0000
  O   O11       1.0  0.34265  0.24006  0.71104  1.0000
  O   O12       1.0  0.15735  0.74006  0.78896  1.0000
  O   O13       1.0  0.71460  0.02910  0.39494  1.0000
  O   O14       1.0  0.78541  0.52911  0.10507  1.0000
  O   O15       1.0  0.28541  0.97090  0.60507  1.0000
  O   O16       1.0  0.21460  0.47090  0.89494  1.0000
  O   O17       1.0  0.60089  0.08873  0.22921  1.0000
  O   O18       1.0  0.89911  0.58874  0.27079  1.0000
  O   O19       1.0  0.39911  0.91126  0.77080  1.0000
  O   O20       1.0  0.10089  0.41127  0.72921  1.0000
