data_image0
_chemical_formula_structural       CoH8C12N2O4
_chemical_formula_sum              "Co1 H8 C12 N2 O4"
_cell_length_a       5.38682
_cell_length_b       8.21457
_cell_length_c       8.10184
_cell_angle_alpha    84.4973
_cell_angle_beta     72.6219
_cell_angle_gamma    70.5572

_space_group_name_H-M_alt    "P 1"
_space_group_IT_number       1

loop_
  _space_group_symop_operation_xyz
  'x, y, z'

loop_
  _atom_site_type_symbol
  _atom_site_label
  _atom_site_symmetry_multiplicity
  _atom_site_fract_x
  _atom_site_fract_y
  _atom_site_fract_z
  _atom_site_occupancy
  Co  Co1       1.0  0.46201  0.50004  0.50001  1.0000
  H   H1        1.0  0.28210  0.49445  0.87211  1.0000
  H   H2        1.0  0.64159  0.50547  0.12788  1.0000
  H   H3        1.0  0.64250  0.12850  0.50595  1.0000
  H   H4        1.0  0.28054  0.87154  0.49409  1.0000
  H   H5        1.0  0.04807  0.71137  0.10720  1.0000
  H   H6        1.0  0.87072  0.28855  0.89269  1.0000
  H   H7        1.0  0.86840  0.89324  0.28905  1.0000
  H   H8        1.0  0.04957  0.10677  0.71093  1.0000
  C   C1        1.0  0.96773  0.57031  0.42958  1.0000
  C   C2        1.0  0.95628  0.42977  0.57054  1.0000
  C   C3        1.0  0.22660  0.63211  0.84380  1.0000
  C   C4        1.0  0.69565  0.36782  0.15617  1.0000
  C   C5        1.0  0.69717  0.15660  0.36806  1.0000
  C   C6        1.0  0.22459  0.84343  0.63193  1.0000
  C   C7        1.0  0.09632  0.75543  0.97395  1.0000
  C   C8        1.0  0.82332  0.24447  0.02596  1.0000
  C   C9        1.0  0.82426  0.02634  0.24475  1.0000
  C   C10       1.0  0.09490  0.97365  0.75520  1.0000
  C   C11       1.0  0.02694  0.93242  0.93243  1.0000
  C   C12       1.0  0.89147  0.06750  0.06747  1.0000
  N   N1        1.0  0.29088  0.67402  0.67416  1.0000
  N   N2        1.0  0.63235  0.32600  0.32586  1.0000
  O   O1        1.0  0.76597  0.63272  0.36890  1.0000
  O   O2        1.0  0.73953  0.38479  0.61754  1.0000
  O   O3        1.0  0.18446  0.61528  0.38247  1.0000
  O   O4        1.0  0.15790  0.36739  0.63130  1.0000
