data_image0
_chemical_formula_structural       Hg2H22C20N4Cl2O10
_chemical_formula_sum              "Hg2 H22 C20 N4 Cl2 O10"
_cell_length_a       8.53117
_cell_length_b       9.08899
_cell_length_c       9.78208
_cell_angle_alpha    86.3165
_cell_angle_beta     70.09
_cell_angle_gamma    66.4539

_space_group_name_H-M_alt    "P 1"
_space_group_IT_number       1

loop_
  _space_group_symop_operation_xyz
  'x, y, z'

loop_
  _atom_site_type_symbol
  _atom_site_label
  _atom_site_symmetry_multiplicity
  _atom_site_fract_x
  _atom_site_fract_y
  _atom_site_fract_z
  _atom_site_occupancy
  Hg  Hg1       1.0  0.42206  0.72763  0.59698  1.0000
  Hg  Hg2       1.0  0.57794  0.27237  0.40302  1.0000
  H   H1        1.0  0.27823  0.22039  0.29683  1.0000
  H   H2        1.0  0.72177  0.77961  0.70317  1.0000
  H   H3        1.0  0.75813  0.90176  0.10590  1.0000
  H   H4        1.0  0.24187  0.09825  0.89410  1.0000
  H   H5        1.0  0.05566  0.65392  0.04462  1.0000
  H   H6        1.0  0.94434  0.34609  0.95539  1.0000
  H   H7        1.0  0.82588  0.48939  0.45782  1.0000
  H   H8        1.0  0.17412  0.51061  0.54218  1.0000
  H   H9        1.0  0.47961  0.41871  0.84581  1.0000
  H   H10       1.0  0.52039  0.58129  0.15418  1.0000
  H   H11       1.0  0.78971  0.13409  0.95925  1.0000
  H   H12       1.0  0.21029  0.86591  0.04075  1.0000
  H   H13       1.0  0.69075  0.03110  0.88762  1.0000
  H   H14       1.0  0.30925  0.96889  0.11239  1.0000
  H   H15       1.0  0.55180  0.22488  0.98501  1.0000
  H   H16       1.0  0.44819  0.77512  0.01498  1.0000
  H   H17       1.0  0.92180  0.21261  0.56837  1.0000
  H   H18       1.0  0.07820  0.78739  0.43163  1.0000
  H   H19       1.0  0.89919  0.02729  0.61863  1.0000
  H   H20       1.0  0.10081  0.97270  0.38138  1.0000
  H   H21       1.0  0.01042  0.10216  0.70280  1.0000
  H   H22       1.0  0.98958  0.89784  0.29720  1.0000
  C   C1        1.0  0.63931  0.82194  0.31003  1.0000
  C   C2        1.0  0.36069  0.17806  0.68998  1.0000
  C   C3        1.0  0.78011  0.80655  0.17923  1.0000
  C   C4        1.0  0.21989  0.19346  0.82077  1.0000
  C   C5        1.0  0.94337  0.67118  0.14674  1.0000
  C   C6        1.0  0.05663  0.32883  0.85326  1.0000
  C   C7        1.0  0.96469  0.55581  0.24766  1.0000
  C   C8        1.0  0.03531  0.44419  0.75234  1.0000
  C   C9        1.0  0.81856  0.57688  0.37654  1.0000
  C   C10       1.0  0.18145  0.42312  0.62346  1.0000
  C   C11       1.0  0.46111  0.97019  0.35089  1.0000
  C   C12       1.0  0.53889  0.02982  0.64911  1.0000
  C   C13       1.0  0.14153  0.41130  0.21395  1.0000
  C   C14       1.0  0.85847  0.58870  0.78604  1.0000
  C   C15       1.0  0.60495  0.36335  0.75034  1.0000
  C   C16       1.0  0.39506  0.63664  0.24966  1.0000
  C   C17       1.0  0.68714  0.14992  0.90934  1.0000
  C   C18       1.0  0.31286  0.85008  0.09065  1.0000
  C   C19       1.0  0.89989  0.13706  0.65849  1.0000
  C   C20       1.0  0.10011  0.86294  0.34151  1.0000
  N   N1        1.0  0.66001  0.70589  0.40430  1.0000
  N   N2        1.0  0.33999  0.29411  0.59570  1.0000
  N   N3        1.0  0.72656  0.22492  0.77263  1.0000
  N   N4        1.0  0.27344  0.77508  0.22737  1.0000
  Cl  Cl1       1.0  0.16548  0.75793  0.79981  1.0000
  Cl  Cl2       1.0  0.83452  0.24207  0.20019  1.0000
  O   O1        1.0  0.33247  0.97629  0.46555  1.0000
  O   O2        1.0  0.66753  0.02371  0.53444  1.0000
  O   O3        1.0  0.45768  0.08127  0.26354  1.0000
  O   O4        1.0  0.54232  0.91873  0.73646  1.0000
  O   O5        1.0  0.15207  0.32045  0.32457  1.0000
  O   O6        1.0  0.84794  0.67955  0.67543  1.0000
  O   O7        1.0  0.26183  0.38543  0.09322  1.0000
  O   O8        1.0  0.73817  0.61458  0.90678  1.0000
  O   O9        1.0  0.62768  0.42711  0.63054  1.0000
  O   O10       1.0  0.37232  0.57289  0.36945  1.0000
