data_image0
_chemical_formula_structural       Cu6H16C8N52
_chemical_formula_sum              "Cu6 H16 C8 N52"
_cell_length_a       8.37684
_cell_length_b       10.0411
_cell_length_c       11.1006
_cell_angle_alpha    89.9796
_cell_angle_beta     89.9997
_cell_angle_gamma    99.4227

_space_group_name_H-M_alt    "P 1"
_space_group_IT_number       1

loop_
  _space_group_symop_operation_xyz
  'x, y, z'

loop_
  _atom_site_type_symbol
  _atom_site_label
  _atom_site_symmetry_multiplicity
  _atom_site_fract_x
  _atom_site_fract_y
  _atom_site_fract_z
  _atom_site_occupancy
  Cu  Cu1       1.0  0.38943  0.05444  0.88105  1.0000
  Cu  Cu2       1.0  0.38970  0.55439  0.61901  1.0000
  Cu  Cu3       1.0  0.61051  0.94553  0.11961  1.0000
  Cu  Cu4       1.0  0.61144  0.44550  0.38086  1.0000
  Cu  Cu5       1.0  0.99988  0.00015  0.00007  1.0000
  Cu  Cu6       1.0  0.99971  0.49913  0.49897  1.0000
  H   H1        1.0  0.17589  0.54599  0.10834  1.0000
  H   H2        1.0  0.17604  0.04600  0.39324  1.0000
  H   H3        1.0  0.82340  0.45308  0.89528  1.0000
  H   H4        1.0  0.82380  0.95329  0.60657  1.0000
  H   H5        1.0  0.35425  0.53120  0.17103  1.0000
  H   H6        1.0  0.35341  0.03093  0.32911  1.0000
  H   H7        1.0  0.64760  0.46886  0.82907  1.0000
  H   H8        1.0  0.64692  0.96897  0.67106  1.0000
  H   H9        1.0  0.00825  0.31118  0.11268  1.0000
  H   H10       1.0  0.00824  0.80988  0.38719  1.0000
  H   H11       1.0  0.99174  0.68891  0.88815  1.0000
  H   H12       1.0  0.99216  0.18801  0.61203  1.0000
  H   H13       1.0  0.49357  0.36119  0.98690  1.0000
  H   H14       1.0  0.49358  0.86097  0.51355  1.0000
  H   H15       1.0  0.50621  0.63919  0.01365  1.0000
  H   H16       1.0  0.50672  0.13914  0.48685  1.0000
  C   C1        1.0  0.11951  0.28969  0.07295  1.0000
  C   C2        1.0  0.11965  0.78902  0.42714  1.0000
  C   C3        1.0  0.88034  0.71042  0.92761  1.0000
  C   C4        1.0  0.88099  0.20994  0.57248  1.0000
  C   C5        1.0  0.36894  0.31645  0.00685  1.0000
  C   C6        1.0  0.36899  0.81613  0.49361  1.0000
  C   C7        1.0  0.63083  0.68387  0.99359  1.0000
  C   C8        1.0  0.63137  0.18385  0.50680  1.0000
  N   N1        1.0  0.14395  0.17472  0.02351  1.0000
  N   N2        1.0  0.14433  0.67415  0.47670  1.0000
  N   N3        1.0  0.85588  0.82546  0.97678  1.0000
  N   N4        1.0  0.85694  0.32532  0.52355  1.0000
  N   N5        1.0  0.29962  0.19091  0.98373  1.0000
  N   N6        1.0  0.29973  0.69060  0.51668  1.0000
  N   N7        1.0  0.70018  0.80939  0.01649  1.0000
  N   N8        1.0  0.70033  0.30954  0.48387  1.0000
  N   N9        1.0  0.25879  0.38056  0.06309  1.0000
  N   N10       1.0  0.25878  0.88005  0.43717  1.0000
  N   N11       1.0  0.74101  0.61963  0.93754  1.0000
  N   N12       1.0  0.74154  0.11943  0.56265  1.0000
  N   N13       1.0  0.28631  0.51742  0.09248  1.0000
  N   N14       1.0  0.28634  0.01700  0.40800  1.0000
  N   N15       1.0  0.71318  0.48263  0.90856  1.0000
  N   N16       1.0  0.71360  0.98255  0.59198  1.0000
  N   N17       1.0  0.15914  0.95665  0.86720  1.0000
  N   N18       1.0  0.15976  0.45714  0.63187  1.0000
  N   N19       1.0  0.84048  0.04335  0.13295  1.0000
  N   N20       1.0  0.84237  0.54658  0.36517  1.0000
  N   N21       1.0  0.10453  0.94143  0.76581  1.0000
  N   N22       1.0  0.10510  0.44153  0.73337  1.0000
  N   N23       1.0  0.89522  0.05839  0.23435  1.0000
  N   N24       1.0  0.89706  0.55849  0.26395  1.0000
  N   N25       1.0  0.05101  0.92554  0.66946  1.0000
  N   N26       1.0  0.05147  0.42533  0.82957  1.0000
  N   N27       1.0  0.94892  0.07408  0.33063  1.0000
  N   N28       1.0  0.95009  0.57231  0.16711  1.0000
  N   N29       1.0  0.47875  0.91569  0.79035  1.0000
  N   N30       1.0  0.47855  0.41586  0.70951  1.0000
  N   N31       1.0  0.52083  0.08466  0.20953  1.0000
  N   N32       1.0  0.51993  0.58466  0.29114  1.0000
  N   N33       1.0  0.41407  0.79961  0.79542  1.0000
  N   N34       1.0  0.41362  0.29981  0.70427  1.0000
  N   N35       1.0  0.58549  0.20076  0.20457  1.0000
  N   N36       1.0  0.58440  0.70070  0.29576  1.0000
  N   N37       1.0  0.35602  0.18556  0.70223  1.0000
  N   N38       1.0  0.35635  0.68535  0.79763  1.0000
  N   N39       1.0  0.64239  0.81496  0.29800  1.0000
  N   N40       1.0  0.64304  0.31506  0.20252  1.0000
  N   N41       1.0  0.60741  0.15678  0.91859  1.0000
  N   N42       1.0  0.60731  0.65621  0.58102  1.0000
  N   N43       1.0  0.39260  0.84496  0.08000  1.0000
  N   N44       1.0  0.39222  0.34425  0.41951  1.0000
  N   N45       1.0  0.72990  0.12776  0.87851  1.0000
  N   N46       1.0  0.72964  0.62695  0.62126  1.0000
  N   N47       1.0  0.27017  0.87315  0.12101  1.0000
  N   N48       1.0  0.26959  0.37261  0.37917  1.0000
  N   N49       1.0  0.85348  0.10223  0.84305  1.0000
  N   N50       1.0  0.85297  0.60112  0.65682  1.0000
  N   N51       1.0  0.14664  0.89805  0.15709  1.0000
  N   N52       1.0  0.14585  0.39779  0.34357  1.0000
