data_image0
_chemical_formula_structural       Zn4H12C16N12O16
_chemical_formula_sum              "Zn4 H12 C16 N12 O16"
_cell_length_a       4.63889
_cell_length_b       10.7726
_cell_length_c       14.2198
_cell_angle_alpha    89.9999
_cell_angle_beta     89.9999
_cell_angle_gamma    90.0003

_space_group_name_H-M_alt    "P 1"
_space_group_IT_number       1

loop_
  _space_group_symop_operation_xyz
  'x, y, z'

loop_
  _atom_site_type_symbol
  _atom_site_label
  _atom_site_symmetry_multiplicity
  _atom_site_fract_x
  _atom_site_fract_y
  _atom_site_fract_z
  _atom_site_occupancy
  Zn  Zn1       1.0  0.71486  0.24729  0.35113  1.0000
  Zn  Zn2       1.0  0.28514  0.74729  0.64887  1.0000
  Zn  Zn3       1.0  0.71486  0.74729  0.14887  1.0000
  Zn  Zn4       1.0  0.28514  0.24729  0.85113  1.0000
  H   H1        1.0  0.38532  0.48407  0.43440  1.0000
  H   H2        1.0  0.61468  0.98407  0.56560  1.0000
  H   H3        1.0  0.38532  0.98407  0.06560  1.0000
  H   H4        1.0  0.61468  0.48407  0.93440  1.0000
  H   H5        1.0  0.37440  0.70835  0.34024  1.0000
  H   H6        1.0  0.62560  0.20835  0.65976  1.0000
  H   H7        1.0  0.37440  0.20835  0.15976  1.0000
  H   H8        1.0  0.62559  0.70835  0.84023  1.0000
  H   H9        1.0  0.10040  0.21362  0.52497  1.0000
  H   H10       1.0  0.89960  0.71362  0.47504  1.0000
  H   H11       1.0  0.10040  0.71362  0.97504  1.0000
  H   H12       1.0  0.89960  0.21362  0.02497  1.0000
  C   C1        1.0  0.47824  0.50816  0.36688  1.0000
  C   C2        1.0  0.52176  0.00816  0.63312  1.0000
  C   C3        1.0  0.47823  0.00816  0.13312  1.0000
  C   C4        1.0  0.52176  0.50816  0.86688  1.0000
  C   C5        1.0  0.70871  0.48885  0.23675  1.0000
  C   C6        1.0  0.29129  0.98884  0.76325  1.0000
  C   C7        1.0  0.70871  0.98885  0.26325  1.0000
  C   C8        1.0  0.29129  0.48885  0.73675  1.0000
  C   C9        1.0  0.47287  0.62147  0.31924  1.0000
  C   C10       1.0  0.52713  0.12147  0.68076  1.0000
  C   C11       1.0  0.47287  0.12147  0.18076  1.0000
  C   C12       1.0  0.52713  0.62147  0.81924  1.0000
  C   C13       1.0  0.24141  0.22896  0.46355  1.0000
  C   C14       1.0  0.75859  0.72896  0.53645  1.0000
  C   C15       1.0  0.24142  0.72896  0.03645  1.0000
  C   C16       1.0  0.75858  0.22896  0.96355  1.0000
  N   N1        1.0  0.62858  0.42495  0.31416  1.0000
  N   N2        1.0  0.37142  0.92495  0.68584  1.0000
  N   N3        1.0  0.62859  0.92496  0.18584  1.0000
  N   N4        1.0  0.37141  0.42495  0.81416  1.0000
  N   N5        1.0  0.86605  0.43392  0.16237  1.0000
  N   N6        1.0  0.13395  0.93392  0.83763  1.0000
  N   N7        1.0  0.86606  0.93392  0.33763  1.0000
  N   N8        1.0  0.13394  0.43392  0.66237  1.0000
  N   N9        1.0  0.61894  0.60825  0.23681  1.0000
  N   N10       1.0  0.38106  0.10824  0.76319  1.0000
  N   N11       1.0  0.61893  0.10825  0.26319  1.0000
  N   N12       1.0  0.38106  0.60824  0.73681  1.0000
  O   O1        1.0  0.96288  0.32664  0.17560  1.0000
  O   O2        1.0  0.03712  0.82665  0.82440  1.0000
  O   O3        1.0  0.96288  0.82664  0.32440  1.0000
  O   O4        1.0  0.03712  0.32665  0.67560  1.0000
  O   O5        1.0  0.89799  0.49386  0.08790  1.0000
  O   O6        1.0  0.10201  0.99386  0.91210  1.0000
  O   O7        1.0  0.89799  0.99386  0.41210  1.0000
  O   O8        1.0  0.10201  0.49386  0.58790  1.0000
  O   O9        1.0  0.13123  0.24797  0.38289  1.0000
  O   O10       1.0  0.86878  0.74797  0.61711  1.0000
  O   O11       1.0  0.13123  0.74797  0.11711  1.0000
  O   O12       1.0  0.86877  0.24797  0.88289  1.0000
  O   O13       1.0  0.51213  0.22874  0.47690  1.0000
  O   O14       1.0  0.48787  0.72874  0.52310  1.0000
  O   O15       1.0  0.51214  0.72873  0.02310  1.0000
  O   O16       1.0  0.48787  0.22874  0.97690  1.0000
