data_image0
_chemical_formula_structural       Zn2H36Pt2C44N16O8
_chemical_formula_sum              "Zn2 H36 Pt2 C44 N16 O8"
_cell_length_a       8.41833
_cell_length_b       9.82838
_cell_length_c       17.169
_cell_angle_alpha    85.7985
_cell_angle_beta     82.1838
_cell_angle_gamma    67.5736

_space_group_name_H-M_alt    "P 1"
_space_group_IT_number       1

loop_
  _space_group_symop_operation_xyz
  'x, y, z'

loop_
  _atom_site_type_symbol
  _atom_site_label
  _atom_site_symmetry_multiplicity
  _atom_site_fract_x
  _atom_site_fract_y
  _atom_site_fract_z
  _atom_site_occupancy
  Zn  Zn1       1.0  0.86669  0.71585  0.31042  1.0000
  Zn  Zn2       1.0  0.13331  0.28415  0.68958  1.0000
  H   H1        1.0  0.04130  0.82713  0.19537  1.0000
  H   H2        1.0  0.95871  0.17287  0.80462  1.0000
  H   H3        1.0  0.02225  0.90835  0.27449  1.0000
  H   H4        1.0  0.97776  0.09165  0.72551  1.0000
  H   H5        1.0  0.55718  0.67876  0.34790  1.0000
  H   H6        1.0  0.44282  0.32125  0.65210  1.0000
  H   H7        1.0  0.62294  0.64415  0.43103  1.0000
  H   H8        1.0  0.37706  0.35585  0.56897  1.0000
  H   H9        1.0  0.42382  0.76411  0.99098  1.0000
  H   H10       1.0  0.57618  0.23589  0.00902  1.0000
  H   H11       1.0  0.24689  0.60345  0.64947  1.0000
  H   H12       1.0  0.75311  0.39655  0.35053  1.0000
  H   H13       1.0  0.99445  0.47836  0.17954  1.0000
  H   H14       1.0  0.00555  0.52164  0.82046  1.0000
  H   H15       1.0  0.91514  0.42528  0.05352  1.0000
  H   H16       1.0  0.08486  0.57472  0.94649  1.0000
  H   H17       1.0  0.49562  0.85342  0.06984  1.0000
  H   H18       1.0  0.50438  0.14658  0.93016  1.0000
  H   H19       1.0  0.58990  0.88644  0.19172  1.0000
  H   H20       1.0  0.41009  0.11356  0.80828  1.0000
  H   H21       1.0  0.63341  0.49194  0.83259  1.0000
  H   H22       1.0  0.36659  0.50806  0.16740  1.0000
  H   H23       1.0  0.49581  0.51032  0.71162  1.0000
  H   H24       1.0  0.50419  0.48969  0.28837  1.0000
  H   H25       1.0  0.04840  0.87411  0.80637  1.0000
  H   H26       1.0  0.95160  0.12589  0.19363  1.0000
  H   H27       1.0  0.19044  0.86294  0.92482  1.0000
  H   H28       1.0  0.80956  0.13706  0.07518  1.0000
  H   H29       1.0  0.27991  0.60451  0.52915  1.0000
  H   H30       1.0  0.72009  0.39549  0.47085  1.0000
  H   H31       1.0  0.17733  0.57409  0.40632  1.0000
  H   H32       1.0  0.82267  0.42592  0.59367  1.0000
  H   H33       1.0  0.72347  0.93915  0.44732  1.0000
  H   H34       1.0  0.27653  0.06085  0.55268  1.0000
  H   H35       1.0  0.80736  0.98516  0.57456  1.0000
  H   H36       1.0  0.19264  0.01484  0.42544  1.0000
  Pt  Pt1       1.0  0.35214  0.20907  0.31455  1.0000
  Pt  Pt2       1.0  0.64786  0.79093  0.68545  1.0000
  C   C1        1.0  0.15432  0.39608  0.31012  1.0000
  C   C2        1.0  0.84568  0.60392  0.68988  1.0000
  C   C3        1.0  0.40173  0.27095  0.41354  1.0000
  C   C4        1.0  0.59827  0.72905  0.58646  1.0000
  C   C5        1.0  0.54561  0.02038  0.31944  1.0000
  C   C6        1.0  0.45439  0.97963  0.68056  1.0000
  C   C7        1.0  0.30369  0.14649  0.21512  1.0000
  C   C8        1.0  0.69631  0.85351  0.78488  1.0000
  C   C9        1.0  0.88440  0.55786  0.15326  1.0000
  C   C10       1.0  0.11560  0.44214  0.84674  1.0000
  C   C11       1.0  0.84034  0.52838  0.08307  1.0000
  C   C12       1.0  0.15966  0.47162  0.91693  1.0000
  C   C13       1.0  0.69723  0.63123  0.05076  1.0000
  C   C14       1.0  0.30277  0.36877  0.94924  1.0000
  C   C15       1.0  0.60647  0.76343  0.09044  1.0000
  C   C16       1.0  0.39353  0.23657  0.90956  1.0000
  C   C17       1.0  0.65960  0.78457  0.16025  1.0000
  C   C18       1.0  0.34040  0.21542  0.83975  1.0000
  C   C19       1.0  0.65354  0.59078  0.97586  1.0000
  C   C20       1.0  0.34646  0.40922  0.02414  1.0000
  C   C21       1.0  0.42348  0.67894  0.88591  1.0000
  C   C22       1.0  0.57652  0.32107  0.11409  1.0000
  C   C23       1.0  0.50676  0.57604  0.82648  1.0000
  C   C24       1.0  0.49324  0.42396  0.17352  1.0000
  C   C25       1.0  0.42821  0.58678  0.75897  1.0000
  C   C26       1.0  0.57178  0.41322  0.24103  1.0000
  C   C27       1.0  0.26628  0.69687  0.74928  1.0000
  C   C28       1.0  0.73371  0.30313  0.25073  1.0000
  C   C29       1.0  0.17907  0.79503  0.81041  1.0000
  C   C30       1.0  0.82093  0.20497  0.18959  1.0000
  C   C31       1.0  0.25842  0.78602  0.87745  1.0000
  C   C32       1.0  0.74158  0.21399  0.12255  1.0000
  C   C33       1.0  0.08793  0.82134  0.64256  1.0000
  C   C34       1.0  0.91206  0.17866  0.35744  1.0000
  C   C35       1.0  0.04659  0.79535  0.56421  1.0000
  C   C36       1.0  0.95341  0.20465  0.43579  1.0000
  C   C37       1.0  0.15352  0.68040  0.51511  1.0000
  C   C38       1.0  0.84648  0.31960  0.48489  1.0000
  C   C39       1.0  0.09780  0.66376  0.44510  1.0000
  C   C40       1.0  0.90220  0.33625  0.55490  1.0000
  C   C41       1.0  0.84541  0.86751  0.46783  1.0000
  C   C42       1.0  0.15459  0.13249  0.53216  1.0000
  C   C43       1.0  0.89157  0.89260  0.53851  1.0000
  C   C44       1.0  0.10843  0.10740  0.46149  1.0000
  N   N1        1.0  0.03693  0.50833  0.30889  1.0000
  N   N2        1.0  0.96306  0.49167  0.69111  1.0000
  N   N3        1.0  0.42659  0.30902  0.47236  1.0000
  N   N4        1.0  0.57342  0.69099  0.52764  1.0000
  N   N5        1.0  0.65923  0.90574  0.32142  1.0000
  N   N6        1.0  0.34077  0.09426  0.67857  1.0000
  N   N7        1.0  0.28019  0.10699  0.15632  1.0000
  N   N8        1.0  0.71981  0.89300  0.84369  1.0000
  N   N9        1.0  0.79526  0.68353  0.19231  1.0000
  N   N10       1.0  0.20474  0.31647  0.80769  1.0000
  N   N11       1.0  0.49710  0.68201  0.95371  1.0000
  N   N12       1.0  0.50290  0.31799  0.04629  1.0000
  N   N13       1.0  0.19961  0.70190  0.67791  1.0000
  N   N14       1.0  0.80038  0.29810  0.32209  1.0000
  N   N15       1.0  0.94513  0.75365  0.42198  1.0000
  N   N16       1.0  0.05487  0.24635  0.57802  1.0000
  O   O1        1.0  0.04795  0.81067  0.25155  1.0000
  O   O2        1.0  0.95205  0.18933  0.74845  1.0000
  O   O3        1.0  0.65565  0.61453  0.37407  1.0000
  O   O4        1.0  0.34435  0.38547  0.62593  1.0000
  O   O5        1.0  0.75384  0.48079  0.93916  1.0000
  O   O6        1.0  0.24616  0.51920  0.06084  1.0000
  O   O7        1.0  0.01827  0.94658  0.67077  1.0000
  O   O8        1.0  0.98172  0.05342  0.32923  1.0000
