data_image0
_chemical_formula_structural       Zn2H36Pd2C44N16O8
_chemical_formula_sum              "Zn2 H36 Pd2 C44 N16 O8"
_cell_length_a       8.44028
_cell_length_b       9.92945
_cell_length_c       17.138
_cell_angle_alpha    85.83
_cell_angle_beta     82.352
_cell_angle_gamma    66.8803

_space_group_name_H-M_alt    "P 1"
_space_group_IT_number       1

loop_
  _space_group_symop_operation_xyz
  'x, y, z'

loop_
  _atom_site_type_symbol
  _atom_site_label
  _atom_site_symmetry_multiplicity
  _atom_site_fract_x
  _atom_site_fract_y
  _atom_site_fract_z
  _atom_site_occupancy
  Zn  Zn1       1.0  0.13780  0.28338  0.18931  1.0000
  Zn  Zn2       1.0  0.86220  0.71662  0.81069  1.0000
  H   H1        1.0  0.96198  0.17565  0.30376  1.0000
  H   H2        1.0  0.03802  0.82435  0.69624  1.0000
  H   H3        1.0  0.98015  0.09451  0.22476  1.0000
  H   H4        1.0  0.01985  0.90549  0.77524  1.0000
  H   H5        1.0  0.44796  0.32173  0.15287  1.0000
  H   H6        1.0  0.55204  0.67827  0.84713  1.0000
  H   H7        1.0  0.38100  0.35525  0.06978  1.0000
  H   H8        1.0  0.61901  0.64475  0.93022  1.0000
  H   H9        1.0  0.57222  0.23233  0.51099  1.0000
  H   H10       1.0  0.42779  0.76767  0.48901  1.0000
  H   H11       1.0  0.75800  0.39177  0.85038  1.0000
  H   H12       1.0  0.24200  0.60823  0.14962  1.0000
  H   H13       1.0  0.40703  0.11178  0.31081  1.0000
  H   H14       1.0  0.59297  0.88822  0.68919  1.0000
  H   H15       1.0  0.49871  0.14511  0.43359  1.0000
  H   H16       1.0  0.50129  0.85489  0.56641  1.0000
  H   H17       1.0  0.08792  0.57857  0.44402  1.0000
  H   H18       1.0  0.91209  0.42143  0.55598  1.0000
  H   H19       1.0  0.01014  0.52509  0.31759  1.0000
  H   H20       1.0  0.98987  0.47492  0.68241  1.0000
  H   H21       1.0  0.80824  0.13354  0.57586  1.0000
  H   H22       1.0  0.19177  0.86646  0.42414  1.0000
  H   H23       1.0  0.95321  0.12146  0.69392  1.0000
  H   H24       1.0  0.04679  0.87855  0.30608  1.0000
  H   H25       1.0  0.50517  0.48506  0.78992  1.0000
  H   H26       1.0  0.49483  0.51494  0.21008  1.0000
  H   H27       1.0  0.36456  0.50441  0.66913  1.0000
  H   H28       1.0  0.63544  0.49558  0.33087  1.0000
  H   H29       1.0  0.20036  0.01001  0.92596  1.0000
  H   H30       1.0  0.79963  0.98999  0.07404  1.0000
  H   H31       1.0  0.28461  0.05691  0.05294  1.0000
  H   H32       1.0  0.71539  0.94309  0.94707  1.0000
  H   H33       1.0  0.83144  0.42577  0.09147  1.0000
  H   H34       1.0  0.16855  0.57423  0.90853  1.0000
  H   H35       1.0  0.72835  0.39438  0.96900  1.0000
  H   H36       1.0  0.27164  0.60562  0.03100  1.0000
  Pd  Pd1       1.0  0.64840  0.78771  0.18577  1.0000
  Pd  Pd2       1.0  0.35160  0.21228  0.81423  1.0000
  C   C1        1.0  0.84804  0.60161  0.18919  1.0000
  C   C2        1.0  0.15196  0.39839  0.81081  1.0000
  C   C3        1.0  0.69844  0.84915  0.28503  1.0000
  C   C4        1.0  0.30155  0.15084  0.71497  1.0000
  C   C5        1.0  0.45616  0.97771  0.18134  1.0000
  C   C6        1.0  0.54384  0.02229  0.81866  1.0000
  C   C7        1.0  0.59663  0.72763  0.08639  1.0000
  C   C8        1.0  0.40336  0.27237  0.91361  1.0000
  C   C9        1.0  0.33844  0.21471  0.34130  1.0000
  C   C10       1.0  0.66156  0.78529  0.65870  1.0000
  C   C11       1.0  0.39019  0.23607  0.41149  1.0000
  C   C12       1.0  0.60981  0.76393  0.58851  1.0000
  C   C13       1.0  0.30160  0.36980  0.44963  1.0000
  C   C14       1.0  0.69841  0.63020  0.55037  1.0000
  C   C15       1.0  0.16117  0.47423  0.41567  1.0000
  C   C16       1.0  0.83884  0.52577  0.58433  1.0000
  C   C17       1.0  0.11799  0.44446  0.34529  1.0000
  C   C18       1.0  0.88202  0.55553  0.65471  1.0000
  C   C19       1.0  0.34559  0.41008  0.52446  1.0000
  C   C20       1.0  0.65442  0.58992  0.47554  1.0000
  C   C21       1.0  0.57524  0.31795  0.61526  1.0000
  C   C22       1.0  0.42477  0.68206  0.38474  1.0000
  C   C23       1.0  0.74098  0.21023  0.62339  1.0000
  C   C24       1.0  0.25903  0.78977  0.37661  1.0000
  C   C25       1.0  0.82181  0.20064  0.69020  1.0000
  C   C26       1.0  0.17820  0.79937  0.30980  1.0000
  C   C27       1.0  0.73527  0.29881  0.75137  1.0000
  C   C28       1.0  0.26473  0.70120  0.24863  1.0000
  C   C29       1.0  0.57203  0.40887  0.74234  1.0000
  C   C30       1.0  0.42797  0.59113  0.25766  1.0000
  C   C31       1.0  0.49199  0.42009  0.67500  1.0000
  C   C32       1.0  0.50801  0.57991  0.32500  1.0000
  C   C33       1.0  0.91767  0.17456  0.85738  1.0000
  C   C34       1.0  0.08233  0.82544  0.14262  1.0000
  C   C35       1.0  0.96096  0.20113  0.93523  1.0000
  C   C36       1.0  0.03903  0.79887  0.06477  1.0000
  C   C37       1.0  0.11644  0.10371  0.96129  1.0000
  C   C38       1.0  0.88355  0.89629  0.03871  1.0000
  C   C39       1.0  0.16284  0.12930  0.03186  1.0000
  C   C40       1.0  0.83715  0.87070  0.96814  1.0000
  C   C41       1.0  0.91063  0.33490  0.05335  1.0000
  C   C42       1.0  0.08936  0.66509  0.94666  1.0000
  C   C43       1.0  0.85462  0.31758  0.98351  1.0000
  C   C44       1.0  0.14538  0.68242  0.01649  1.0000
  N   N1        1.0  0.96713  0.49010  0.18933  1.0000
  N   N2        1.0  0.03287  0.50990  0.81066  1.0000
  N   N3        1.0  0.72208  0.88782  0.34400  1.0000
  N   N4        1.0  0.27791  0.11218  0.65600  1.0000
  N   N5        1.0  0.34549  0.09411  0.17962  1.0000
  N   N6        1.0  0.65451  0.90589  0.82038  1.0000
  N   N7        1.0  0.57086  0.69053  0.02753  1.0000
  N   N8        1.0  0.42914  0.30946  0.97246  1.0000
  N   N9        1.0  0.20548  0.31727  0.30765  1.0000
  N   N10       1.0  0.79453  0.68273  0.69235  1.0000
  N   N11       1.0  0.50070  0.31604  0.54752  1.0000
  N   N12       1.0  0.49930  0.68396  0.45248  1.0000
  N   N13       1.0  0.80459  0.29377  0.82215  1.0000
  N   N14       1.0  0.19541  0.70623  0.17785  1.0000
  N   N15       1.0  0.06312  0.24411  0.07706  1.0000
  N   N16       1.0  0.93688  0.75589  0.92294  1.0000
  O   O1        1.0  0.95621  0.19127  0.24741  1.0000
  O   O2        1.0  0.04379  0.80873  0.75259  1.0000
  O   O3        1.0  0.34784  0.38434  0.12679  1.0000
  O   O4        1.0  0.65216  0.61566  0.87321  1.0000
  O   O5        1.0  0.24729  0.52199  0.56011  1.0000
  O   O6        1.0  0.75271  0.47801  0.43989  1.0000
  O   O7        1.0  0.98649  0.04952  0.82952  1.0000
  O   O8        1.0  0.01350  0.95048  0.17048  1.0000
