data_image0
_chemical_formula_structural       Zn4H24C16O24
_chemical_formula_sum              "Zn4 H24 C16 O24"
_cell_length_a       7.7868
_cell_length_b       9.03107
_cell_length_c       8.86244
_cell_angle_alpha    90.0001
_cell_angle_beta     90.0002
_cell_angle_gamma    90

_space_group_name_H-M_alt    "P 1"
_space_group_IT_number       1

loop_
  _space_group_symop_operation_xyz
  'x, y, z'

loop_
  _atom_site_type_symbol
  _atom_site_label
  _atom_site_symmetry_multiplicity
  _atom_site_fract_x
  _atom_site_fract_y
  _atom_site_fract_z
  _atom_site_occupancy
  Zn  Zn1       1.0  0.89854  0.07168  0.11187  1.0000
  Zn  Zn2       1.0  0.60146  0.92832  0.61187  1.0000
  Zn  Zn3       1.0  0.39854  0.42832  0.88813  1.0000
  Zn  Zn4       1.0  0.10146  0.57168  0.38813  1.0000
  H   H1        1.0  0.00085  0.33790  0.96347  1.0000
  H   H2        1.0  0.49915  0.66210  0.46347  1.0000
  H   H3        1.0  0.50085  0.16210  0.03653  1.0000
  H   H4        1.0  0.99915  0.83790  0.53653  1.0000
  H   H5        1.0  0.96907  0.35277  0.14078  1.0000
  H   H6        1.0  0.53093  0.64723  0.64078  1.0000
  H   H7        1.0  0.46907  0.14723  0.85923  1.0000
  H   H8        1.0  0.03093  0.85277  0.35922  1.0000
  H   H9        1.0  0.15054  0.99348  0.74248  1.0000
  H   H10       1.0  0.34946  0.00652  0.24249  1.0000
  H   H11       1.0  0.65055  0.50652  0.25751  1.0000
  H   H12       1.0  0.84946  0.49348  0.75751  1.0000
  H   H13       1.0  0.23443  0.08514  0.96311  1.0000
  H   H14       1.0  0.26557  0.91486  0.46312  1.0000
  H   H15       1.0  0.73443  0.41486  0.03689  1.0000
  H   H16       1.0  0.76557  0.58514  0.53689  1.0000
  H   H17       1.0  0.14171  0.74315  0.97342  1.0000
  H   H18       1.0  0.35829  0.25685  0.47342  1.0000
  H   H19       1.0  0.64171  0.75685  0.02658  1.0000
  H   H20       1.0  0.85829  0.24315  0.52658  1.0000
  H   H21       1.0  0.09119  0.70783  0.78270  1.0000
  H   H22       1.0  0.40882  0.29217  0.28270  1.0000
  H   H23       1.0  0.59118  0.79217  0.21730  1.0000
  H   H24       1.0  0.90881  0.20783  0.71730  1.0000
  C   C1        1.0  0.09035  0.94125  0.84158  1.0000
  C   C2        1.0  0.40965  0.05875  0.34159  1.0000
  C   C3        1.0  0.59035  0.55876  0.15841  1.0000
  C   C4        1.0  0.90965  0.44125  0.65841  1.0000
  C   C5        1.0  0.89688  0.94048  0.81311  1.0000
  C   C6        1.0  0.60312  0.05952  0.31312  1.0000
  C   C7        1.0  0.39688  0.55952  0.18688  1.0000
  C   C8        1.0  0.10312  0.44048  0.68688  1.0000
  C   C9        1.0  0.16096  0.78372  0.85773  1.0000
  C   C10       1.0  0.33905  0.21628  0.35773  1.0000
  C   C11       1.0  0.66095  0.71628  0.14227  1.0000
  C   C12       1.0  0.83904  0.28372  0.64227  1.0000
  C   C13       1.0  0.34915  0.77417  0.81402  1.0000
  C   C14       1.0  0.15084  0.22583  0.31402  1.0000
  C   C15       1.0  0.84916  0.72583  0.18598  1.0000
  C   C16       1.0  0.65084  0.27417  0.68598  1.0000
  O   O1        1.0  0.84814  0.88270  0.68772  1.0000
  O   O2        1.0  0.65186  0.11729  0.18773  1.0000
  O   O3        1.0  0.34814  0.61729  0.31228  1.0000
  O   O4        1.0  0.15186  0.38271  0.81228  1.0000
  O   O5        1.0  0.42174  0.89373  0.77432  1.0000
  O   O6        1.0  0.07827  0.10627  0.27431  1.0000
  O   O7        1.0  0.92173  0.60627  0.22569  1.0000
  O   O8        1.0  0.57827  0.39373  0.72568  1.0000
  O   O9        1.0  0.91671  0.31457  0.04483  1.0000
  O   O10       1.0  0.58329  0.68543  0.54483  1.0000
  O   O11       1.0  0.41671  0.18542  0.95517  1.0000
  O   O12       1.0  0.08329  0.81458  0.45517  1.0000
  O   O13       1.0  0.79622  0.99736  0.90829  1.0000
  O   O14       1.0  0.70378  0.00263  0.40829  1.0000
  O   O15       1.0  0.29622  0.50263  0.09171  1.0000
  O   O16       1.0  0.20378  0.49736  0.59171  1.0000
  O   O17       1.0  0.42521  0.64939  0.81146  1.0000
  O   O18       1.0  0.07478  0.35061  0.31147  1.0000
  O   O19       1.0  0.92522  0.85061  0.18853  1.0000
  O   O20       1.0  0.57478  0.14939  0.68854  1.0000
  O   O21       1.0  0.12462  0.02777  0.97224  1.0000
  O   O22       1.0  0.37538  0.97224  0.47224  1.0000
  O   O23       1.0  0.62463  0.47224  0.02776  1.0000
  O   O24       1.0  0.87538  0.52777  0.52776  1.0000
