data_image0
_chemical_formula_structural       Li3H9C21N6O18
_chemical_formula_sum              "Li3 H9 C21 N6 O18"
_cell_length_a       5.80801
_cell_length_b       10.9384
_cell_length_c       10.9384
_cell_angle_alpha    119.999
_cell_angle_beta     90.0122
_cell_angle_gamma    89.9871

_space_group_name_H-M_alt    "P 1"
_space_group_IT_number       1

loop_
  _space_group_symop_operation_xyz
  'x, y, z'

loop_
  _atom_site_type_symbol
  _atom_site_label
  _atom_site_symmetry_multiplicity
  _atom_site_fract_x
  _atom_site_fract_y
  _atom_site_fract_z
  _atom_site_occupancy
  Li  Li1       1.0  0.99999  0.09414  0.09414  1.0000
  Li  Li2       1.0  0.33340  0.90592  0.00004  1.0000
  Li  Li3       1.0  0.66660  0.00004  0.90592  1.0000
  H   H1        1.0  0.14313  0.72045  0.12521  1.0000
  H   H2        1.0  0.47618  0.87473  0.59526  1.0000
  H   H3        1.0  0.85686  0.12522  0.72047  1.0000
  H   H4        1.0  0.80960  0.40476  0.27954  1.0000
  H   H5        1.0  0.19038  0.27954  0.40476  1.0000
  H   H6        1.0  0.52382  0.59526  0.87473  1.0000
  H   H7        1.0  0.83354  0.31538  0.99998  1.0000
  H   H8        1.0  0.16645  1.00000  0.31540  1.0000
  H   H9        1.0  0.49999  0.68462  0.68462  1.0000
  C   C1        1.0  0.83338  0.81068  0.00001  1.0000
  C   C2        1.0  0.16662  0.99999  0.81067  1.0000
  C   C3        1.0  0.49999  0.18935  0.18935  1.0000
  C   C4        1.0  0.83341  0.67276  0.00001  1.0000
  C   C5        1.0  0.16657  0.00000  0.67275  1.0000
  C   C6        1.0  0.49999  0.32727  0.32727  1.0000
  C   C7        1.0  0.00666  0.64409  0.07075  1.0000
  C   C8        1.0  0.33972  0.92923  0.57335  1.0000
  C   C9        1.0  0.99332  0.07075  0.64410  1.0000
  C   C10       1.0  0.67318  0.42665  0.35594  1.0000
  C   C11       1.0  0.32679  0.35594  0.42666  1.0000
  C   C12       1.0  0.66027  0.57335  0.92924  1.0000
  C   C13       1.0  0.00208  0.51635  0.06988  1.0000
  C   C14       1.0  0.33506  0.93004  0.44646  1.0000
  C   C15       1.0  0.99791  0.06989  0.51636  1.0000
  C   C16       1.0  0.66860  0.55351  0.48366  1.0000
  C   C17       1.0  0.33138  0.48366  0.55352  1.0000
  C   C18       1.0  0.66493  0.44645  0.93004  1.0000
  C   C19       1.0  0.83353  0.41477  0.99996  1.0000
  C   C20       1.0  0.16645  0.99997  0.41478  1.0000
  C   C21       1.0  0.49999  0.58523  0.58523  1.0000
  N   N1        1.0  0.18419  0.48310  0.14165  1.0000
  N   N2        1.0  0.51718  0.85830  0.34147  1.0000
  N   N3        1.0  0.81580  0.14167  0.48311  1.0000
  N   N4        1.0  0.85064  0.65853  0.51690  1.0000
  N   N5        1.0  0.14934  0.51690  0.65854  1.0000
  N   N6        1.0  0.48281  0.34147  0.85829  1.0000
  O   O1        1.0  0.01057  0.88886  0.04821  1.0000
  O   O2        1.0  0.34382  0.95179  0.84065  1.0000
  O   O3        1.0  0.98942  0.04820  0.88886  1.0000
  O   O4        1.0  0.67713  0.15939  0.11114  1.0000
  O   O5        1.0  0.32285  0.11114  0.15939  1.0000
  O   O6        1.0  0.65618  0.84066  0.95179  1.0000
  O   O7        1.0  0.34628  0.56721  0.19480  1.0000
  O   O8        1.0  0.67931  0.80521  0.37246  1.0000
  O   O9        1.0  0.65371  0.19482  0.56723  1.0000
  O   O10       1.0  0.01268  0.62756  0.43277  1.0000
  O   O11       1.0  0.98729  0.43277  0.62756  1.0000
  O   O12       1.0  0.32070  0.37246  0.80519  1.0000
  O   O13       1.0  0.16782  0.37033  0.14251  1.0000
  O   O14       1.0  0.50072  0.85745  0.22784  1.0000
  O   O15       1.0  0.83216  0.14252  0.37034  1.0000
  O   O16       1.0  0.83421  0.77215  0.62966  1.0000
  O   O17       1.0  0.16576  0.62966  0.77216  1.0000
  O   O18       1.0  0.49926  0.22784  0.85745  1.0000
