data_image0
_chemical_formula_structural       Tm4H32C32N4O36
_chemical_formula_sum              "Tm4 H32 C32 N4 O36"
_cell_length_a       9.38382
_cell_length_b       9.90965
_cell_length_c       14.1098
_cell_angle_alpha    90
_cell_angle_beta     90
_cell_angle_gamma    92.8418

_space_group_name_H-M_alt    "P 1"
_space_group_IT_number       1

loop_
  _space_group_symop_operation_xyz
  'x, y, z'

loop_
  _atom_site_type_symbol
  _atom_site_label
  _atom_site_symmetry_multiplicity
  _atom_site_fract_x
  _atom_site_fract_y
  _atom_site_fract_z
  _atom_site_occupancy
  Tm  Tm1       1.0  0.38282  0.41851  0.85471  1.0000
  Tm  Tm2       1.0  0.61717  0.08149  0.35471  1.0000
  Tm  Tm3       1.0  0.61717  0.58148  0.14529  1.0000
  Tm  Tm4       1.0  0.38283  0.91851  0.64529  1.0000
  H   H1        1.0  0.29756  0.44132  0.65688  1.0000
  H   H2        1.0  0.70243  0.05867  0.15688  1.0000
  H   H3        1.0  0.70244  0.55868  0.34312  1.0000
  H   H4        1.0  0.29757  0.94132  0.84312  1.0000
  H   H5        1.0  0.29229  0.59214  0.69594  1.0000
  H   H6        1.0  0.70771  0.90785  0.19594  1.0000
  H   H7        1.0  0.70771  0.40786  0.30406  1.0000
  H   H8        1.0  0.29229  0.09214  0.80406  1.0000
  H   H9        1.0  0.46219  0.24252  0.68813  1.0000
  H   H10       1.0  0.53781  0.25748  0.18814  1.0000
  H   H11       1.0  0.53781  0.75748  0.31186  1.0000
  H   H12       1.0  0.46219  0.74252  0.81186  1.0000
  H   H13       1.0  0.58243  0.35549  0.71321  1.0000
  H   H14       1.0  0.41757  0.14450  0.21320  1.0000
  H   H15       1.0  0.41758  0.64450  0.28679  1.0000
  H   H16       1.0  0.58243  0.85549  0.78680  1.0000
  H   H17       1.0  0.57773  0.19325  0.90052  1.0000
  H   H18       1.0  0.42227  0.30675  0.40052  1.0000
  H   H19       1.0  0.42227  0.80674  0.09948  1.0000
  H   H20       1.0  0.57774  0.69326  0.59948  1.0000
  H   H21       1.0  0.55514  0.27096  0.99827  1.0000
  H   H22       1.0  0.44486  0.22904  0.49827  1.0000
  H   H23       1.0  0.44486  0.72904  0.00173  1.0000
  H   H24       1.0  0.55514  0.77096  0.50173  1.0000
  H   H25       1.0  0.81326  0.32265  0.84148  1.0000
  H   H26       1.0  0.18673  0.17736  0.34147  1.0000
  H   H27       1.0  0.18673  0.67735  0.15853  1.0000
  H   H28       1.0  0.81327  0.82266  0.65853  1.0000
  H   H29       1.0  0.93565  0.73228  0.92933  1.0000
  H   H30       1.0  0.06435  0.76773  0.42933  1.0000
  H   H31       1.0  0.06435  0.26771  0.07067  1.0000
  H   H32       1.0  0.93565  0.23228  0.57066  1.0000
  C   C1        1.0  0.10182  0.60034  0.89055  1.0000
  C   C2        1.0  0.89817  0.89967  0.39055  1.0000
  C   C3        1.0  0.89817  0.39966  0.10945  1.0000
  C   C4        1.0  0.10182  0.10034  0.60945  1.0000
  C   C5        1.0  0.03667  0.37880  0.84959  1.0000
  C   C6        1.0  0.96333  0.12120  0.34959  1.0000
  C   C7        1.0  0.96332  0.62120  0.15041  1.0000
  C   C8        1.0  0.03667  0.87879  0.65042  1.0000
  C   C9        1.0  0.89258  0.40347  0.85696  1.0000
  C   C10       1.0  0.10742  0.09653  0.35696  1.0000
  C   C11       1.0  0.10742  0.59652  0.14305  1.0000
  C   C12       1.0  0.89258  0.90347  0.64304  1.0000
  C   C13       1.0  0.85376  0.53045  0.88814  1.0000
  C   C14       1.0  0.14623  0.96955  0.38814  1.0000
  C   C15       1.0  0.14623  0.46954  0.11186  1.0000
  C   C16       1.0  0.85377  0.03046  0.61186  1.0000
  C   C17       1.0  0.96014  0.63137  0.90573  1.0000
  C   C18       1.0  0.03985  0.86863  0.40573  1.0000
  C   C19       1.0  0.03985  0.36862  0.09427  1.0000
  C   C20       1.0  0.96015  0.13138  0.59427  1.0000
  C   C21       1.0  0.22680  0.70136  0.89975  1.0000
  C   C22       1.0  0.77320  0.79864  0.39974  1.0000
  C   C23       1.0  0.77320  0.29863  0.10025  1.0000
  C   C24       1.0  0.22679  0.20136  0.60025  1.0000
  C   C25       1.0  0.09027  0.24151  0.82617  1.0000
  C   C26       1.0  0.90973  0.25849  0.32617  1.0000
  C   C27       1.0  0.90973  0.75848  0.17383  1.0000
  C   C28       1.0  0.09027  0.74152  0.67383  1.0000
  C   C29       1.0  0.69811  0.54758  0.90651  1.0000
  C   C30       1.0  0.30190  0.95243  0.40650  1.0000
  C   C31       1.0  0.30189  0.45243  0.09351  1.0000
  C   C32       1.0  0.69810  0.04758  0.59349  1.0000
  N   N1        1.0  0.13769  0.47599  0.86575  1.0000
  N   N2        1.0  0.86232  0.02401  0.36575  1.0000
  N   N3        1.0  0.86232  0.52400  0.13425  1.0000
  N   N4        1.0  0.13768  0.97600  0.63425  1.0000
  O   O1        1.0  0.20625  0.82277  0.91402  1.0000
  O   O2        1.0  0.79375  0.67724  0.41401  1.0000
  O   O3        1.0  0.79375  0.17723  0.08599  1.0000
  O   O4        1.0  0.20626  0.32277  0.58598  1.0000
  O   O5        1.0  0.35268  0.65091  0.89070  1.0000
  O   O6        1.0  0.64733  0.84910  0.39069  1.0000
  O   O7        1.0  0.64733  0.34909  0.10931  1.0000
  O   O8        1.0  0.35268  0.15091  0.60930  1.0000
  O   O9        1.0  0.23030  0.24045  0.82148  1.0000
  O   O10       1.0  0.76970  0.25955  0.32147  1.0000
  O   O11       1.0  0.76970  0.75954  0.17852  1.0000
  O   O12       1.0  0.23030  0.74046  0.67852  1.0000
  O   O13       1.0  0.00590  0.14377  0.81384  1.0000
  O   O14       1.0  0.99410  0.35623  0.31384  1.0000
  O   O15       1.0  0.99410  0.85622  0.18615  1.0000
  O   O16       1.0  0.00591  0.64377  0.68616  1.0000
  O   O17       1.0  0.61180  0.51081  0.84122  1.0000
  O   O18       1.0  0.38819  0.98920  0.34121  1.0000
  O   O19       1.0  0.38819  0.48919  0.15879  1.0000
  O   O20       1.0  0.61180  0.01081  0.65878  1.0000
  O   O21       1.0  0.66215  0.59018  0.98720  1.0000
  O   O22       1.0  0.33786  0.90983  0.48721  1.0000
  O   O23       1.0  0.33786  0.40983  0.01279  1.0000
  O   O24       1.0  0.66214  0.09018  0.51279  1.0000
  O   O25       1.0  0.33963  0.50388  0.70585  1.0000
  O   O26       1.0  0.66037  0.99612  0.20585  1.0000
  O   O27       1.0  0.66036  0.49612  0.29415  1.0000
  O   O28       1.0  0.33964  0.00388  0.79415  1.0000
  O   O29       1.0  0.51329  0.29070  0.74122  1.0000
  O   O30       1.0  0.48670  0.20929  0.24122  1.0000
  O   O31       1.0  0.48670  0.70930  0.25878  1.0000
  O   O32       1.0  0.51330  0.79071  0.75878  1.0000
  O   O33       1.0  0.51620  0.25289  0.93431  1.0000
  O   O34       1.0  0.48380  0.24712  0.43431  1.0000
  O   O35       1.0  0.48380  0.74712  0.06569  1.0000
  O   O36       1.0  0.51620  0.75289  0.56569  1.0000
