data_image0
_chemical_formula_structural       Er4H32C32N4O36
_chemical_formula_sum              "Er4 H32 C32 N4 O36"
_cell_length_a       9.40399
_cell_length_b       9.8937
_cell_length_c       14.1624
_cell_angle_alpha    90
_cell_angle_beta     90
_cell_angle_gamma    92.88

_space_group_name_H-M_alt    "P 1"
_space_group_IT_number       1

loop_
  _space_group_symop_operation_xyz
  'x, y, z'

loop_
  _atom_site_type_symbol
  _atom_site_label
  _atom_site_symmetry_multiplicity
  _atom_site_fract_x
  _atom_site_fract_y
  _atom_site_fract_z
  _atom_site_occupancy
  Er  Er1       1.0  0.88225  0.91275  0.14456  1.0000
  Er  Er2       1.0  0.11773  0.58725  0.64457  1.0000
  Er  Er3       1.0  0.11775  0.08726  0.85544  1.0000
  Er  Er4       1.0  0.88228  0.41274  0.35543  1.0000
  H   H1        1.0  0.05373  0.76665  0.00003  1.0000
  H   H2        1.0  0.94627  0.73334  0.50002  1.0000
  H   H3        1.0  0.94627  0.23335  0.99997  1.0000
  H   H4        1.0  0.05374  0.26666  0.49997  1.0000
  H   H5        1.0  0.07699  0.68587  0.09590  1.0000
  H   H6        1.0  0.92302  0.81411  0.59589  1.0000
  H   H7        1.0  0.92302  0.31413  0.90410  1.0000
  H   H8        1.0  0.07702  0.18589  0.40411  1.0000
  H   H9        1.0  0.08430  0.84790  0.28486  1.0000
  H   H10       1.0  0.91568  0.65211  0.78489  1.0000
  H   H11       1.0  0.91568  0.15210  0.71513  1.0000
  H   H12       1.0  0.08433  0.34790  0.21510  1.0000
  H   H13       1.0  0.96295  0.73659  0.31105  1.0000
  H   H14       1.0  0.03706  0.76341  0.81105  1.0000
  H   H15       1.0  0.03704  0.26341  0.68895  1.0000
  H   H16       1.0  0.96295  0.23660  0.18894  1.0000
  H   H17       1.0  0.79116  0.08619  0.30368  1.0000
  H   H18       1.0  0.20883  0.41384  0.80368  1.0000
  H   H19       1.0  0.20883  0.91381  0.69631  1.0000
  H   H20       1.0  0.79117  0.58616  0.19631  1.0000
  H   H21       1.0  0.79857  0.93586  0.34316  1.0000
  H   H22       1.0  0.20143  0.56414  0.84315  1.0000
  H   H23       1.0  0.20143  0.06413  0.65685  1.0000
  H   H24       1.0  0.79858  0.43586  0.15684  1.0000
  H   H25       1.0  0.31255  0.81908  0.15762  1.0000
  H   H26       1.0  0.68744  0.68090  0.65759  1.0000
  H   H27       1.0  0.68745  0.18093  0.84240  1.0000
  H   H28       1.0  0.31258  0.31908  0.34240  1.0000
  H   H29       1.0  0.43658  0.22918  0.07036  1.0000
  H   H30       1.0  0.56339  0.27082  0.57033  1.0000
  H   H31       1.0  0.56341  0.77084  0.92967  1.0000
  H   H32       1.0  0.43661  0.72917  0.42967  1.0000
  C   C1        1.0  0.58826  0.73685  0.17399  1.0000
  C   C2        1.0  0.41171  0.76314  0.67401  1.0000
  C   C3        1.0  0.41172  0.26316  0.82601  1.0000
  C   C4        1.0  0.58830  0.23685  0.32599  1.0000
  C   C5        1.0  0.53577  0.87455  0.14978  1.0000
  C   C6        1.0  0.46420  0.62544  0.64978  1.0000
  C   C7        1.0  0.46422  0.12545  0.85023  1.0000
  C   C8        1.0  0.53581  0.37456  0.35021  1.0000
  C   C9        1.0  0.39212  0.89984  0.14227  1.0000
  C   C10       1.0  0.60788  0.60016  0.64225  1.0000
  C   C11       1.0  0.60788  0.10017  0.85775  1.0000
  C   C12       1.0  0.39214  0.39983  0.35775  1.0000
  C   C13       1.0  0.35415  0.02718  0.11109  1.0000
  C   C14       1.0  0.64583  0.47283  0.61106  1.0000
  C   C15       1.0  0.64584  0.97283  0.88894  1.0000
  C   C16       1.0  0.35418  0.52718  0.38893  1.0000
  C   C17       1.0  0.19900  0.04574  0.09274  1.0000
  C   C18       1.0  0.80098  0.45426  0.59274  1.0000
  C   C19       1.0  0.80099  0.95427  0.90726  1.0000
  C   C20       1.0  0.19903  0.54573  0.40726  1.0000
  C   C21       1.0  0.46080  0.12800  0.09380  1.0000
  C   C22       1.0  0.53918  0.37199  0.59378  1.0000
  C   C23       1.0  0.53918  0.87201  0.90622  1.0000
  C   C24       1.0  0.46083  0.62800  0.40621  1.0000
  C   C25       1.0  0.60195  0.09634  0.10893  1.0000
  C   C26       1.0  0.39801  0.40365  0.60892  1.0000
  C   C27       1.0  0.39803  0.90366  0.89108  1.0000
  C   C28       1.0  0.60198  0.59634  0.39107  1.0000
  C   C29       1.0  0.72705  0.19718  0.10006  1.0000
  C   C30       1.0  0.27293  0.30283  0.60005  1.0000
  C   C31       1.0  0.27294  0.80283  0.89994  1.0000
  C   C32       1.0  0.72708  0.69717  0.39994  1.0000
  N   N1        1.0  0.63702  0.97159  0.13370  1.0000
  N   N2        1.0  0.36297  0.52841  0.63369  1.0000
  N   N3        1.0  0.36298  0.02842  0.86631  1.0000
  N   N4        1.0  0.63705  0.47159  0.36629  1.0000
  O   O1        1.0  0.16401  0.09477  0.01399  1.0000
  O   O2        1.0  0.83598  0.40520  0.51398  1.0000
  O   O3        1.0  0.83599  0.90521  0.98602  1.0000
  O   O4        1.0  0.16403  0.59477  0.48602  1.0000
  O   O5        1.0  0.11225  0.00433  0.15625  1.0000
  O   O6        1.0  0.88771  0.49568  0.65622  1.0000
  O   O7        1.0  0.88774  0.99568  0.84378  1.0000
  O   O8        1.0  0.11229  0.50430  0.34378  1.0000
  O   O9        1.0  0.50324  0.63970  0.18690  1.0000
  O   O10       1.0  0.49672  0.86029  0.68694  1.0000
  O   O11       1.0  0.49672  0.36032  0.81309  1.0000
  O   O12       1.0  0.50329  0.13969  0.31309  1.0000
  O   O13       1.0  0.72791  0.73485  0.17882  1.0000
  O   O14       1.0  0.27205  0.76513  0.67884  1.0000
  O   O15       1.0  0.27207  0.26514  0.82117  1.0000
  O   O16       1.0  0.72796  0.23487  0.32116  1.0000
  O   O17       1.0  0.85243  0.14663  0.10953  1.0000
  O   O18       1.0  0.14755  0.35336  0.60955  1.0000
  O   O19       1.0  0.14757  0.85337  0.89045  1.0000
  O   O20       1.0  0.85245  0.64663  0.39045  1.0000
  O   O21       1.0  0.70715  0.31879  0.08528  1.0000
  O   O22       1.0  0.29280  0.18123  0.58527  1.0000
  O   O23       1.0  0.29282  0.68124  0.91472  1.0000
  O   O24       1.0  0.70719  0.81877  0.41472  1.0000
  O   O25       1.0  0.01421  0.74525  0.06310  1.0000
  O   O26       1.0  0.98579  0.75474  0.56309  1.0000
  O   O27       1.0  0.98579  0.25476  0.93690  1.0000
  O   O28       1.0  0.01423  0.24526  0.43690  1.0000
  O   O29       1.0  0.01374  0.78383  0.25767  1.0000
  O   O30       1.0  0.98626  0.71616  0.75768  1.0000
  O   O31       1.0  0.98626  0.21618  0.74232  1.0000
  O   O32       1.0  0.01374  0.28384  0.24230  1.0000
  O   O33       1.0  0.83956  0.99846  0.29397  1.0000
  O   O34       1.0  0.16044  0.50154  0.79398  1.0000
  O   O35       1.0  0.16043  0.00153  0.70603  1.0000
  O   O36       1.0  0.83958  0.49846  0.20601  1.0000
