data_image0
_chemical_formula_structural       Sm4H48C32N4O44
_chemical_formula_sum              "Sm4 H48 C32 N4 O44"
_cell_length_a       6.61402
_cell_length_b       12.2894
_cell_length_c       17.704
_cell_angle_alpha    90
_cell_angle_beta     90
_cell_angle_gamma    90

_space_group_name_H-M_alt    "P 1"
_space_group_IT_number       1

loop_
  _space_group_symop_operation_xyz
  'x, y, z'

loop_
  _atom_site_type_symbol
  _atom_site_label
  _atom_site_symmetry_multiplicity
  _atom_site_fract_x
  _atom_site_fract_y
  _atom_site_fract_z
  _atom_site_occupancy
  Sm  Sm1       1.0  0.51629  0.97375  0.37750  1.0000
  Sm  Sm2       1.0  0.48371  0.02626  0.87750  1.0000
  Sm  Sm3       1.0  0.01629  0.52625  0.37749  1.0000
  Sm  Sm4       1.0  0.98371  0.47375  0.87750  1.0000
  H   H1        1.0  0.84283  0.07710  0.27829  1.0000
  H   H2        1.0  0.15716  0.92290  0.77829  1.0000
  H   H3        1.0  0.34285  0.42289  0.27829  1.0000
  H   H4        1.0  0.65716  0.57711  0.77830  1.0000
  H   H5        1.0  0.98611  0.02127  0.33785  1.0000
  H   H6        1.0  0.01389  0.97874  0.83785  1.0000
  H   H7        1.0  0.48611  0.47874  0.33785  1.0000
  H   H8        1.0  0.51389  0.52127  0.83785  1.0000
  H   H9        1.0  0.77647  0.15266  0.44518  1.0000
  H   H10       1.0  0.22353  0.84734  0.94517  1.0000
  H   H11       1.0  0.27647  0.34734  0.44517  1.0000
  H   H12       1.0  0.72352  0.65266  0.94517  1.0000
  H   H13       1.0  0.55961  0.20004  0.45703  1.0000
  H   H14       1.0  0.44039  0.79997  0.95703  1.0000
  H   H15       1.0  0.05961  0.29996  0.45703  1.0000
  H   H16       1.0  0.94039  0.70004  0.95703  1.0000
  H   H17       1.0  0.79144  0.85689  0.47684  1.0000
  H   H18       1.0  0.20857  0.14311  0.97684  1.0000
  H   H19       1.0  0.29143  0.64310  0.47684  1.0000
  H   H20       1.0  0.70857  0.35690  0.97684  1.0000
  H   H21       1.0  0.84917  0.97455  0.51170  1.0000
  H   H22       1.0  0.15083  0.02545  0.01170  1.0000
  H   H23       1.0  0.34917  0.52544  0.51169  1.0000
  H   H24       1.0  0.65083  0.47456  0.01169  1.0000
  H   H25       1.0  0.21557  0.92629  0.49909  1.0000
  H   H26       1.0  0.78442  0.07371  0.99909  1.0000
  H   H27       1.0  0.71558  0.57372  0.49909  1.0000
  H   H28       1.0  0.28443  0.42630  0.99909  1.0000
  H   H29       1.0  0.41051  0.94421  0.55216  1.0000
  H   H30       1.0  0.58948  0.05578  0.05216  1.0000
  H   H31       1.0  0.91051  0.55578  0.55215  1.0000
  H   H32       1.0  0.08948  0.44422  0.05215  1.0000
  H   H33       1.0  0.23106  0.17173  0.35325  1.0000
  H   H34       1.0  0.76894  0.82826  0.85325  1.0000
  H   H35       1.0  0.73107  0.32826  0.35325  1.0000
  H   H36       1.0  0.26893  0.67174  0.85325  1.0000
  H   H37       1.0  0.14313  0.12747  0.43013  1.0000
  H   H38       1.0  0.85687  0.87253  0.93013  1.0000
  H   H39       1.0  0.64314  0.37252  0.43013  1.0000
  H   H40       1.0  0.35686  0.62748  0.93013  1.0000
  H   H41       1.0  0.51029  0.87730  0.07001  1.0000
  H   H42       1.0  0.48971  0.12270  0.57001  1.0000
  H   H43       1.0  0.01029  0.62270  0.07001  1.0000
  H   H44       1.0  0.98971  0.37730  0.57001  1.0000
  H   H45       1.0  0.59025  0.59349  0.21097  1.0000
  H   H46       1.0  0.40975  0.40651  0.71097  1.0000
  H   H47       1.0  0.09026  0.90651  0.21097  1.0000
  H   H48       1.0  0.90976  0.09349  0.71097  1.0000
  C   C1        1.0  0.49657  0.02572  0.19197  1.0000
  C   C2        1.0  0.50341  0.97427  0.69197  1.0000
  C   C3        1.0  0.99657  0.47427  0.19197  1.0000
  C   C4        1.0  0.00342  0.52573  0.69197  1.0000
  C   C5        1.0  0.53008  0.90276  0.19038  1.0000
  C   C6        1.0  0.46992  0.09724  0.69038  1.0000
  C   C7        1.0  0.03008  0.59724  0.19038  1.0000
  C   C8        1.0  0.96992  0.40276  0.69038  1.0000
  C   C9        1.0  0.52775  0.83869  0.12490  1.0000
  C   C10       1.0  0.47225  0.16132  0.62489  1.0000
  C   C11       1.0  0.02775  0.66131  0.12489  1.0000
  C   C12       1.0  0.97226  0.33867  0.62490  1.0000
  C   C13       1.0  0.54438  0.72555  0.13205  1.0000
  C   C14       1.0  0.45562  0.27445  0.63205  1.0000
  C   C15       1.0  0.04438  0.77445  0.13205  1.0000
  C   C16       1.0  0.95564  0.22555  0.63205  1.0000
  C   C17       1.0  0.53996  0.64782  0.06587  1.0000
  C   C18       1.0  0.46003  0.35218  0.56587  1.0000
  C   C19       1.0  0.03997  0.85218  0.06587  1.0000
  C   C20       1.0  0.96004  0.14782  0.56588  1.0000
  C   C21       1.0  0.57438  0.68089  0.20388  1.0000
  C   C22       1.0  0.42563  0.31910  0.70388  1.0000
  C   C23       1.0  0.07437  0.81910  0.20387  1.0000
  C   C24       1.0  0.92564  0.18089  0.70388  1.0000
  C   C25       1.0  0.58452  0.75039  0.26572  1.0000
  C   C26       1.0  0.41549  0.24961  0.76572  1.0000
  C   C27       1.0  0.08451  0.74960  0.26571  1.0000
  C   C28       1.0  0.91549  0.25039  0.76572  1.0000
  C   C29       1.0  0.62964  0.71208  0.34514  1.0000
  C   C30       1.0  0.37036  0.28792  0.84514  1.0000
  C   C31       1.0  0.12964  0.78791  0.34514  1.0000
  C   C32       1.0  0.87036  0.21209  0.84514  1.0000
  N   N1        1.0  0.55686  0.85810  0.25868  1.0000
  N   N2        1.0  0.44315  0.14190  0.75867  1.0000
  N   N3        1.0  0.05686  0.64190  0.25867  1.0000
  N   N4        1.0  0.94314  0.35810  0.75867  1.0000
  O   O1        1.0  0.46796  0.06594  0.25805  1.0000
  O   O2        1.0  0.53202  0.93406  0.75805  1.0000
  O   O3        1.0  0.96798  0.43406  0.25804  1.0000
  O   O4        1.0  0.03202  0.56594  0.75805  1.0000
  O   O5        1.0  0.49854  0.07911  0.13166  1.0000
  O   O6        1.0  0.50146  0.92089  0.63166  1.0000
  O   O7        1.0  0.99852  0.42089  0.13166  1.0000
  O   O8        1.0  0.00146  0.57911  0.63166  1.0000
  O   O9        1.0  0.59703  0.77993  0.39781  1.0000
  O   O10       1.0  0.40297  0.22006  0.89780  1.0000
  O   O11       1.0  0.09703  0.72006  0.39780  1.0000
  O   O12       1.0  0.90297  0.27994  0.89781  1.0000
  O   O13       1.0  0.70043  0.61717  0.35335  1.0000
  O   O14       1.0  0.29957  0.38283  0.85335  1.0000
  O   O15       1.0  0.20043  0.88282  0.35335  1.0000
  O   O16       1.0  0.79957  0.11718  0.85335  1.0000
  O   O17       1.0  0.56730  0.54893  0.07993  1.0000
  O   O18       1.0  0.43269  0.45107  0.57993  1.0000
  O   O19       1.0  0.06732  0.95107  0.07993  1.0000
  O   O20       1.0  0.93269  0.04893  0.57993  1.0000
  O   O21       1.0  0.51495  0.68735  0.99883  1.0000
  O   O22       1.0  0.48505  0.31266  0.49882  1.0000
  O   O23       1.0  0.01496  0.81266  0.99882  1.0000
  O   O24       1.0  0.98504  0.18734  0.49883  1.0000
  O   O25       1.0  0.85182  0.01708  0.31390  1.0000
  O   O26       1.0  0.14817  0.98292  0.81390  1.0000
  O   O27       1.0  0.35183  0.48291  0.31390  1.0000
  O   O28       1.0  0.64817  0.51709  0.81390  1.0000
  O   O29       1.0  0.63716  0.14859  0.42431  1.0000
  O   O30       1.0  0.36284  0.85141  0.92431  1.0000
  O   O31       1.0  0.13716  0.35140  0.42431  1.0000
  O   O32       1.0  0.86283  0.64860  0.92431  1.0000
  O   O33       1.0  0.79960  0.93444  0.46555  1.0000
  O   O34       1.0  0.20041  0.06556  0.96555  1.0000
  O   O35       1.0  0.29959  0.56555  0.46555  1.0000
  O   O36       1.0  0.70041  0.43445  0.96555  1.0000
  O   O37       1.0  0.35135  0.95671  0.49974  1.0000
  O   O38       1.0  0.64864  0.04329  0.99974  1.0000
  O   O39       1.0  0.85135  0.54329  0.49974  1.0000
  O   O40       1.0  0.14864  0.45672  0.99974  1.0000
  O   O41       1.0  0.21470  0.10556  0.38298  1.0000
  O   O42       1.0  0.78530  0.89444  0.88298  1.0000
  O   O43       1.0  0.71471  0.39443  0.38298  1.0000
  O   O44       1.0  0.28530  0.60556  0.88298  1.0000
