data_image0
_chemical_formula_structural       Dy4H32C32N4O36
_chemical_formula_sum              "Dy4 H32 C32 N4 O36"
_cell_length_a       9.44996
_cell_length_b       9.94494
_cell_length_c       14.19
_cell_angle_alpha    90
_cell_angle_beta     90
_cell_angle_gamma    92.9421

_space_group_name_H-M_alt    "P 1"
_space_group_IT_number       1

loop_
  _space_group_symop_operation_xyz
  'x, y, z'

loop_
  _atom_site_type_symbol
  _atom_site_label
  _atom_site_symmetry_multiplicity
  _atom_site_fract_x
  _atom_site_fract_y
  _atom_site_fract_z
  _atom_site_occupancy
  Dy  Dy1       1.0  0.38252  0.41596  0.85613  1.0000
  Dy  Dy2       1.0  0.61748  0.08403  0.35613  1.0000
  Dy  Dy3       1.0  0.61749  0.58404  0.14387  1.0000
  Dy  Dy4       1.0  0.38252  0.91597  0.64387  1.0000
  H   H1        1.0  0.57940  0.18964  0.90570  1.0000
  H   H2        1.0  0.42060  0.31035  0.40570  1.0000
  H   H3        1.0  0.42059  0.81036  0.09430  1.0000
  H   H4        1.0  0.57940  0.68964  0.59430  1.0000
  H   H5        1.0  0.55952  0.27136  0.00120  1.0000
  H   H6        1.0  0.44048  0.22864  0.50120  1.0000
  H   H7        1.0  0.44048  0.72865  0.99880  1.0000
  H   H8        1.0  0.55952  0.77136  0.49880  1.0000
  H   H9        1.0  0.46013  0.23969  0.68841  1.0000
  H   H10       1.0  0.53987  0.26031  0.18841  1.0000
  H   H11       1.0  0.53987  0.76031  0.31159  1.0000
  H   H12       1.0  0.46013  0.73969  0.81159  1.0000
  H   H13       1.0  0.58192  0.34960  0.71440  1.0000
  H   H14       1.0  0.41808  0.15039  0.21440  1.0000
  H   H15       1.0  0.41808  0.65039  0.28560  1.0000
  H   H16       1.0  0.58192  0.84961  0.78560  1.0000
  H   H17       1.0  0.28963  0.58829  0.69514  1.0000
  H   H18       1.0  0.71037  0.91171  0.19514  1.0000
  H   H19       1.0  0.71037  0.41171  0.30486  1.0000
  H   H20       1.0  0.28963  0.08829  0.80486  1.0000
  H   H21       1.0  0.29387  0.43785  0.65731  1.0000
  H   H22       1.0  0.70614  0.06215  0.15732  1.0000
  H   H23       1.0  0.70614  0.56214  0.34268  1.0000
  H   H24       1.0  0.29386  0.93786  0.84268  1.0000
  H   H25       1.0  0.93420  0.72918  0.92626  1.0000
  H   H26       1.0  0.06581  0.77082  0.42625  1.0000
  H   H27       1.0  0.06581  0.27082  0.07375  1.0000
  H   H28       1.0  0.93419  0.22918  0.57375  1.0000
  H   H29       1.0  0.81389  0.31851  0.84298  1.0000
  H   H30       1.0  0.18612  0.18149  0.34297  1.0000
  H   H31       1.0  0.18612  0.68149  0.15703  1.0000
  H   H32       1.0  0.81388  0.81851  0.65703  1.0000
  C   C1        1.0  0.09987  0.59713  0.89025  1.0000
  C   C2        1.0  0.90014  0.90287  0.39024  1.0000
  C   C3        1.0  0.90014  0.40287  0.10976  1.0000
  C   C4        1.0  0.09986  0.09713  0.60976  1.0000
  C   C5        1.0  0.95897  0.62806  0.90424  1.0000
  C   C6        1.0  0.04104  0.87194  0.40424  1.0000
  C   C7        1.0  0.04104  0.37194  0.09576  1.0000
  C   C8        1.0  0.95896  0.12806  0.59576  1.0000
  C   C9        1.0  0.85352  0.52686  0.88755  1.0000
  C   C10       1.0  0.14649  0.97314  0.38754  1.0000
  C   C11       1.0  0.14649  0.47314  0.11246  1.0000
  C   C12       1.0  0.85351  0.02686  0.61246  1.0000
  C   C13       1.0  0.89230  0.39976  0.85796  1.0000
  C   C14       1.0  0.10770  0.10024  0.35796  1.0000
  C   C15       1.0  0.10770  0.60024  0.14204  1.0000
  C   C16       1.0  0.89229  0.89976  0.64205  1.0000
  C   C17       1.0  0.03554  0.37544  0.85114  1.0000
  C   C18       1.0  0.96446  0.12456  0.35113  1.0000
  C   C19       1.0  0.96446  0.62457  0.14887  1.0000
  C   C20       1.0  0.03553  0.87544  0.64886  1.0000
  C   C21       1.0  0.22324  0.69899  0.89864  1.0000
  C   C22       1.0  0.77677  0.80102  0.39863  1.0000
  C   C23       1.0  0.77677  0.30102  0.10137  1.0000
  C   C24       1.0  0.22323  0.19898  0.60136  1.0000
  C   C25       1.0  0.69882  0.54548  0.90409  1.0000
  C   C26       1.0  0.30118  0.95451  0.40408  1.0000
  C   C27       1.0  0.30118  0.45451  0.09592  1.0000
  C   C28       1.0  0.69881  0.04548  0.59592  1.0000
  C   C29       1.0  0.08831  0.23843  0.82746  1.0000
  C   C30       1.0  0.91169  0.26156  0.32746  1.0000
  C   C31       1.0  0.91169  0.76156  0.17254  1.0000
  C   C32       1.0  0.08831  0.73844  0.67254  1.0000
  N   N1        1.0  0.13574  0.47283  0.86685  1.0000
  N   N2        1.0  0.86426  0.02717  0.36685  1.0000
  N   N3        1.0  0.86426  0.52717  0.13316  1.0000
  N   N4        1.0  0.13573  0.97283  0.63316  1.0000
  O   O1        1.0  0.34895  0.64997  0.89053  1.0000
  O   O2        1.0  0.65106  0.85003  0.39053  1.0000
  O   O3        1.0  0.65106  0.35003  0.10947  1.0000
  O   O4        1.0  0.34894  0.14997  0.60947  1.0000
  O   O5        1.0  0.20165  0.81985  0.91195  1.0000
  O   O6        1.0  0.79835  0.68014  0.41195  1.0000
  O   O7        1.0  0.79835  0.18015  0.08805  1.0000
  O   O8        1.0  0.20165  0.31985  0.58804  1.0000
  O   O9        1.0  0.66166  0.58996  0.98355  1.0000
  O   O10       1.0  0.33835  0.91006  0.48354  1.0000
  O   O11       1.0  0.33835  0.41006  0.01646  1.0000
  O   O12       1.0  0.66164  0.08994  0.51646  1.0000
  O   O13       1.0  0.61424  0.50891  0.83850  1.0000
  O   O14       1.0  0.38577  0.99107  0.33849  1.0000
  O   O15       1.0  0.38576  0.49108  0.16151  1.0000
  O   O16       1.0  0.61423  0.00893  0.66151  1.0000
  O   O17       1.0  0.00402  0.14148  0.81450  1.0000
  O   O18       1.0  0.99598  0.35852  0.31450  1.0000
  O   O19       1.0  0.99598  0.85852  0.18550  1.0000
  O   O20       1.0  0.00402  0.64148  0.68551  1.0000
  O   O21       1.0  0.22734  0.23679  0.82307  1.0000
  O   O22       1.0  0.77266  0.26321  0.32307  1.0000
  O   O23       1.0  0.77266  0.76321  0.17693  1.0000
  O   O24       1.0  0.22733  0.73679  0.67693  1.0000
  O   O25       1.0  0.51988  0.25178  0.93797  1.0000
  O   O26       1.0  0.48011  0.24821  0.43796  1.0000
  O   O27       1.0  0.48012  0.74822  0.06204  1.0000
  O   O28       1.0  0.51988  0.75179  0.56204  1.0000
  O   O29       1.0  0.51157  0.28596  0.74157  1.0000
  O   O30       1.0  0.48842  0.21404  0.24157  1.0000
  O   O31       1.0  0.48843  0.71404  0.25843  1.0000
  O   O32       1.0  0.51157  0.78596  0.75843  1.0000
  O   O33       1.0  0.33690  0.50079  0.70523  1.0000
  O   O34       1.0  0.66310  0.99921  0.20523  1.0000
  O   O35       1.0  0.66310  0.49921  0.29477  1.0000
  O   O36       1.0  0.33690  0.00079  0.79477  1.0000
