data_image0
_chemical_formula_structural       Tb4H48C32N4O44
_chemical_formula_sum              "Tb4 H48 C32 N4 O44"
_cell_length_a       6.55738
_cell_length_b       12.2659
_cell_length_c       17.566
_cell_angle_alpha    90
_cell_angle_beta     90
_cell_angle_gamma    90

_space_group_name_H-M_alt    "P 1"
_space_group_IT_number       1

loop_
  _space_group_symop_operation_xyz
  'x, y, z'

loop_
  _atom_site_type_symbol
  _atom_site_label
  _atom_site_symmetry_multiplicity
  _atom_site_fract_x
  _atom_site_fract_y
  _atom_site_fract_z
  _atom_site_occupancy
  Tb  Tb1       1.0  0.48342  0.47214  0.23925  1.0000
  Tb  Tb2       1.0  0.51657  0.52786  0.73924  1.0000
  Tb  Tb3       1.0  0.98343  0.02786  0.23925  1.0000
  Tb  Tb4       1.0  0.01657  0.97214  0.73925  1.0000
  H   H1        1.0  0.16276  0.57714  0.14156  1.0000
  H   H2        1.0  0.83724  0.42285  0.64156  1.0000
  H   H3        1.0  0.66276  0.92285  0.14156  1.0000
  H   H4        1.0  0.33724  0.07715  0.64156  1.0000
  H   H5        1.0  0.01602  0.51983  0.20011  1.0000
  H   H6        1.0  0.98398  0.48016  0.70010  1.0000
  H   H7        1.0  0.51603  0.98015  0.20010  1.0000
  H   H8        1.0  0.48397  0.01983  0.70010  1.0000
  H   H9        1.0  0.21014  0.35783  0.33819  1.0000
  H   H10       1.0  0.78986  0.64217  0.83819  1.0000
  H   H11       1.0  0.71013  0.14217  0.33818  1.0000
  H   H12       1.0  0.28986  0.85783  0.83819  1.0000
  H   H13       1.0  0.15020  0.47630  0.37202  1.0000
  H   H14       1.0  0.84980  0.52369  0.87200  1.0000
  H   H15       1.0  0.65020  0.02370  0.37201  1.0000
  H   H16       1.0  0.34980  0.97630  0.87201  1.0000
  H   H17       1.0  0.78011  0.42326  0.35873  1.0000
  H   H18       1.0  0.21989  0.57673  0.85873  1.0000
  H   H19       1.0  0.28010  0.07674  0.35873  1.0000
  H   H20       1.0  0.71988  0.92326  0.85874  1.0000
  H   H21       1.0  0.58601  0.44248  0.41325  1.0000
  H   H22       1.0  0.41400  0.55751  0.91325  1.0000
  H   H23       1.0  0.08599  0.05752  0.41325  1.0000
  H   H24       1.0  0.91400  0.94248  0.91325  1.0000
  H   H25       1.0  0.22465  0.65019  0.30499  1.0000
  H   H26       1.0  0.77535  0.34981  0.80498  1.0000
  H   H27       1.0  0.72465  0.84981  0.30498  1.0000
  H   H28       1.0  0.27536  0.15019  0.80499  1.0000
  H   H29       1.0  0.44340  0.69698  0.31683  1.0000
  H   H30       1.0  0.55659  0.30302  0.81683  1.0000
  H   H31       1.0  0.94341  0.80302  0.31683  1.0000
  H   H32       1.0  0.05660  0.19698  0.81683  1.0000
  H   H33       1.0  0.76224  0.66519  0.21160  1.0000
  H   H34       1.0  0.23777  0.33481  0.71159  1.0000
  H   H35       1.0  0.26223  0.83481  0.21160  1.0000
  H   H36       1.0  0.73776  0.16519  0.71160  1.0000
  H   H37       1.0  0.85447  0.62815  0.29092  1.0000
  H   H38       1.0  0.14553  0.37185  0.79092  1.0000
  H   H39       1.0  0.35447  0.87185  0.29092  1.0000
  H   H40       1.0  0.64553  0.12815  0.79092  1.0000
  H   H41       1.0  0.48931  0.37893  0.93125  1.0000
  H   H42       1.0  0.51070  0.62107  0.43124  1.0000
  H   H43       1.0  0.98932  0.12107  0.93124  1.0000
  H   H44       1.0  0.01069  0.87893  0.43125  1.0000
  H   H45       1.0  0.41455  0.09378  0.07299  1.0000
  H   H46       1.0  0.58544  0.90622  0.57299  1.0000
  H   H47       1.0  0.91455  0.40622  0.07299  1.0000
  H   H48       1.0  0.08546  0.59378  0.57299  1.0000
  C   C1        1.0  0.50561  0.52670  0.05490  1.0000
  C   C2        1.0  0.49441  0.47331  0.55490  1.0000
  C   C3        1.0  0.00559  0.97330  0.05491  1.0000
  C   C4        1.0  0.99439  0.02669  0.55491  1.0000
  C   C5        1.0  0.47131  0.40369  0.05271  1.0000
  C   C6        1.0  0.52869  0.59632  0.55270  1.0000
  C   C7        1.0  0.97131  0.09632  0.05270  1.0000
  C   C8        1.0  0.02869  0.90369  0.55271  1.0000
  C   C9        1.0  0.47307  0.33991  0.98652  1.0000
  C   C10       1.0  0.52691  0.66009  0.48652  1.0000
  C   C11       1.0  0.97308  0.16009  0.98651  1.0000
  C   C12       1.0  0.02692  0.83992  0.48652  1.0000
  C   C13       1.0  0.45767  0.22655  0.99355  1.0000
  C   C14       1.0  0.54233  0.77345  0.49355  1.0000
  C   C15       1.0  0.95768  0.27345  0.99354  1.0000
  C   C16       1.0  0.04234  0.72655  0.49355  1.0000
  C   C17       1.0  0.46184  0.14911  0.92665  1.0000
  C   C18       1.0  0.53817  0.85089  0.42664  1.0000
  C   C19       1.0  0.96184  0.35089  0.92665  1.0000
  C   C20       1.0  0.03818  0.64911  0.42665  1.0000
  C   C21       1.0  0.42882  0.18140  0.06589  1.0000
  C   C22       1.0  0.57118  0.81861  0.56588  1.0000
  C   C23       1.0  0.92882  0.31860  0.06588  1.0000
  C   C24       1.0  0.07119  0.68140  0.56589  1.0000
  C   C25       1.0  0.41719  0.25072  0.12829  1.0000
  C   C26       1.0  0.58281  0.74928  0.62828  1.0000
  C   C27       1.0  0.91719  0.24928  0.12829  1.0000
  C   C28       1.0  0.08282  0.75072  0.62829  1.0000
  C   C29       1.0  0.36988  0.21276  0.20817  1.0000
  C   C30       1.0  0.63012  0.78725  0.70817  1.0000
  C   C31       1.0  0.86987  0.28725  0.20816  1.0000
  C   C32       1.0  0.13012  0.71276  0.70817  1.0000
  N   N1        1.0  0.44462  0.35868  0.12145  1.0000
  N   N2        1.0  0.55539  0.64132  0.62145  1.0000
  N   N3        1.0  0.94463  0.14132  0.12145  1.0000
  N   N4        1.0  0.05538  0.85868  0.62146  1.0000
  O   O1        1.0  0.53408  0.56579  0.12195  1.0000
  O   O2        1.0  0.46592  0.43421  0.62195  1.0000
  O   O3        1.0  0.03409  0.93421  0.12195  1.0000
  O   O4        1.0  0.96592  0.06580  0.62195  1.0000
  O   O5        1.0  0.50425  0.58090  0.99446  1.0000
  O   O6        1.0  0.49576  0.41910  0.49446  1.0000
  O   O7        1.0  0.00425  0.91910  0.99446  1.0000
  O   O8        1.0  0.99574  0.08090  0.49447  1.0000
  O   O9        1.0  0.48517  0.18914  0.85910  1.0000
  O   O10       1.0  0.51483  0.81086  0.35910  1.0000
  O   O11       1.0  0.98516  0.31086  0.85910  1.0000
  O   O12       1.0  0.01485  0.68914  0.35911  1.0000
  O   O13       1.0  0.43565  0.04986  0.94066  1.0000
  O   O14       1.0  0.56436  0.95014  0.44066  1.0000
  O   O15       1.0  0.93566  0.45014  0.94066  1.0000
  O   O16       1.0  0.06436  0.54987  0.44066  1.0000
  O   O17       1.0  0.29622  0.11819  0.21656  1.0000
  O   O18       1.0  0.70377  0.88181  0.71655  1.0000
  O   O19       1.0  0.79622  0.38181  0.21655  1.0000
  O   O20       1.0  0.20377  0.61820  0.71655  1.0000
  O   O21       1.0  0.40335  0.28097  0.26105  1.0000
  O   O22       1.0  0.59665  0.71903  0.76105  1.0000
  O   O23       1.0  0.90334  0.21903  0.26104  1.0000
  O   O24       1.0  0.09664  0.78097  0.76105  1.0000
  O   O25       1.0  0.15072  0.51478  0.17542  1.0000
  O   O26       1.0  0.84928  0.48521  0.67542  1.0000
  O   O27       1.0  0.65072  0.98521  0.17542  1.0000
  O   O28       1.0  0.34927  0.01479  0.67542  1.0000
  O   O29       1.0  0.20170  0.43531  0.32601  1.0000
  O   O30       1.0  0.79828  0.56470  0.82601  1.0000
  O   O31       1.0  0.70171  0.06469  0.32601  1.0000
  O   O32       1.0  0.29829  0.93530  0.82601  1.0000
  O   O33       1.0  0.64444  0.45530  0.36034  1.0000
  O   O34       1.0  0.35557  0.54470  0.86034  1.0000
  O   O35       1.0  0.14442  0.04470  0.36035  1.0000
  O   O36       1.0  0.85557  0.95529  0.86035  1.0000
  O   O37       1.0  0.36544  0.64449  0.28453  1.0000
  O   O38       1.0  0.63454  0.35550  0.78453  1.0000
  O   O39       1.0  0.86546  0.85550  0.28453  1.0000
  O   O40       1.0  0.13456  0.14450  0.78453  1.0000
  O   O41       1.0  0.78296  0.60200  0.24431  1.0000
  O   O42       1.0  0.21703  0.39800  0.74430  1.0000
  O   O43       1.0  0.28296  0.89800  0.24430  1.0000
  O   O44       1.0  0.71704  0.10200  0.74431  1.0000
