data_image0
_chemical_formula_structural       La2H20C16N2O20
_chemical_formula_sum              "La2 H20 C16 N2 O20"
_cell_length_a       6.35909
_cell_length_b       9.82933
_cell_length_c       10.2962
_cell_angle_alpha    73.4613
_cell_angle_beta     88.251
_cell_angle_gamma    88.0522

_space_group_name_H-M_alt    "P 1"
_space_group_IT_number       1

loop_
  _space_group_symop_operation_xyz
  'x, y, z'

loop_
  _atom_site_type_symbol
  _atom_site_label
  _atom_site_symmetry_multiplicity
  _atom_site_fract_x
  _atom_site_fract_y
  _atom_site_fract_z
  _atom_site_occupancy
  La  La1       1.0  0.74016  0.06189  0.72327  1.0000
  La  La2       1.0  0.25984  0.93811  0.27673  1.0000
  H   H1        1.0  0.05377  0.16308  0.92308  1.0000
  H   H2        1.0  0.94622  0.83692  0.07692  1.0000
  H   H3        1.0  0.18974  0.07833  0.84119  1.0000
  H   H4        1.0  0.81025  0.92167  0.15880  1.0000
  H   H5        1.0  0.09703  0.88261  0.61065  1.0000
  H   H6        1.0  0.90296  0.11738  0.38934  1.0000
  H   H7        1.0  0.20319  0.01989  0.63050  1.0000
  H   H8        1.0  0.79679  0.98010  0.36950  1.0000
  H   H9        1.0  0.72895  0.74710  0.95471  1.0000
  H   H10       1.0  0.27104  0.25290  0.04528  1.0000
  H   H11       1.0  0.93811  0.76466  0.86385  1.0000
  H   H12       1.0  0.06188  0.23534  0.13614  1.0000
  H   H13       1.0  0.40115  0.89625  0.94789  1.0000
  H   H14       1.0  0.59885  0.10376  0.05211  1.0000
  H   H15       1.0  0.30958  0.90310  0.80030  1.0000
  H   H16       1.0  0.69042  0.09690  0.19970  1.0000
  H   H17       1.0  0.54167  0.60685  0.78999  1.0000
  H   H18       1.0  0.45833  0.39314  0.21001  1.0000
  H   H19       1.0  0.77849  0.62976  0.38479  1.0000
  H   H20       1.0  0.22153  0.37024  0.61521  1.0000
  C   C1        1.0  0.62956  0.41149  0.74521  1.0000
  C   C2        1.0  0.37044  0.58851  0.25479  1.0000
  C   C3        1.0  0.60613  0.55871  0.71384  1.0000
  C   C4        1.0  0.39387  0.44129  0.28616  1.0000
  C   C5        1.0  0.66101  0.63940  0.58262  1.0000
  C   C6        1.0  0.33899  0.36060  0.41738  1.0000
  C   C7        1.0  0.73743  0.57057  0.48853  1.0000
  C   C8        1.0  0.26258  0.42943  0.51147  1.0000
  C   C9        1.0  0.76307  0.42312  0.53027  1.0000
  C   C10       1.0  0.23694  0.57688  0.46973  1.0000
  C   C11       1.0  0.55588  0.31377  0.87852  1.0000
  C   C12       1.0  0.44413  0.68622  0.12148  1.0000
  C   C13       1.0  0.63867  0.79860  0.54141  1.0000
  C   C14       1.0  0.36134  0.20140  0.45860  1.0000
  C   C15       1.0  0.84196  0.33889  0.43539  1.0000
  C   C16       1.0  0.15804  0.66111  0.56461  1.0000
  N   N1        1.0  0.71070  0.34592  0.65627  1.0000
  N   N2        1.0  0.28930  0.65408  0.34373  1.0000
  O   O1        1.0  0.61038  0.18086  0.89836  1.0000
  O   O2        1.0  0.38962  0.81914  0.10163  1.0000
  O   O3        1.0  0.44600  0.36134  0.95913  1.0000
  O   O4        1.0  0.55402  0.63867  0.04087  1.0000
  O   O5        1.0  0.66510  0.86110  0.63072  1.0000
  O   O6        1.0  0.33489  0.13891  0.36928  1.0000
  O   O7        1.0  0.60018  0.86051  0.41681  1.0000
  O   O8        1.0  0.39983  0.13948  0.58319  1.0000
  O   O9        1.0  0.87692  0.39732  0.31379  1.0000
  O   O10       1.0  0.12308  0.60268  0.68621  1.0000
  O   O11       1.0  0.86540  0.20247  0.49532  1.0000
  O   O12       1.0  0.13460  0.79753  0.50467  1.0000
  O   O13       1.0  0.05481  0.13288  0.83932  1.0000
  O   O14       1.0  0.94518  0.86712  0.16068  1.0000
  O   O15       1.0  0.09459  0.94824  0.67180  1.0000
  O   O16       1.0  0.90540  0.05176  0.32820  1.0000
  O   O17       1.0  0.84727  0.81445  0.91466  1.0000
  O   O18       1.0  0.15272  0.18555  0.08533  1.0000
  O   O19       1.0  0.40001  0.95209  0.84793  1.0000
  O   O20       1.0  0.59998  0.04792  0.15207  1.0000
