data_image0
_chemical_formula_structural       MnH16C8Br2O2
_chemical_formula_sum              "Mn1 H16 C8 Br2 O2"
_cell_length_a       3.88533
_cell_length_b       7.65194
_cell_length_c       9.27406
_cell_angle_alpha    94.0831
_cell_angle_beta     100.3
_cell_angle_gamma    90.0543

_space_group_name_H-M_alt    "P 1"
_space_group_IT_number       1

loop_
  _space_group_symop_operation_xyz
  'x, y, z'

loop_
  _atom_site_type_symbol
  _atom_site_label
  _atom_site_symmetry_multiplicity
  _atom_site_fract_x
  _atom_site_fract_y
  _atom_site_fract_z
  _atom_site_occupancy
  Mn  Mn1       1.0  0.50012  0.00002  0.00001  1.0000
  H   H1        1.0  0.86344  0.61622  0.14238  1.0000
  H   H2        1.0  0.59974  0.40775  0.91456  1.0000
  H   H3        1.0  0.13677  0.38377  0.85767  1.0000
  H   H4        1.0  0.40050  0.59225  0.08540  1.0000
  H   H5        1.0  0.31531  0.55115  0.33201  1.0000
  H   H6        1.0  0.26543  0.54087  0.65784  1.0000
  H   H7        1.0  0.68470  0.44870  0.66788  1.0000
  H   H8        1.0  0.73476  0.45920  0.34221  1.0000
  H   H9        1.0  0.99754  0.70881  0.49343  1.0000
  H   H10       1.0  0.42798  0.23581  0.48404  1.0000
  H   H11       1.0  0.00182  0.29126  0.50684  1.0000
  H   H12       1.0  0.57106  0.76430  0.51576  1.0000
  H   H13       1.0  0.62361  0.00883  0.37079  1.0000
  H   H14       1.0  0.97817  0.07639  0.67323  1.0000
  H   H15       1.0  0.37677  0.99126  0.62914  1.0000
  H   H16       1.0  0.02211  0.92340  0.32682  1.0000
  C   C1        1.0  0.60816  0.64315  0.17422  1.0000
  C   C2        1.0  0.39196  0.35685  0.82576  1.0000
  C   C3        1.0  0.58739  0.58025  0.32433  1.0000
  C   C4        1.0  0.41258  0.41975  0.67565  1.0000
  C   C5        1.0  0.73613  0.73571  0.43289  1.0000
  C   C6        1.0  0.26347  0.26433  0.56711  1.0000
  C   C7        1.0  0.75254  0.88948  0.33640  1.0000
  C   C8        1.0  0.24758  0.11049  0.66360  1.0000
  Br  Br1       1.0  0.94509  0.80113  0.87267  1.0000
  Br  Br2       1.0  0.05512  0.19888  0.12738  1.0000
  O   O1        1.0  0.56274  0.83150  0.19133  1.0000
  O   O2        1.0  0.43741  0.16850  0.80867  1.0000
