data_image0
_chemical_formula_structural       Ag4H30C40I2N4O8
_chemical_formula_sum              "Ag4 H30 C40 I2 N4 O8"
_cell_length_a       9.13035
_cell_length_b       9.11528
_cell_length_c       13.4463
_cell_angle_alpha    88.9733
_cell_angle_beta     71.2382
_cell_angle_gamma    69.2712

_space_group_name_H-M_alt    "P 1"
_space_group_IT_number       1

loop_
  _space_group_symop_operation_xyz
  'x, y, z'

loop_
  _atom_site_type_symbol
  _atom_site_label
  _atom_site_symmetry_multiplicity
  _atom_site_fract_x
  _atom_site_fract_y
  _atom_site_fract_z
  _atom_site_occupancy
  Ag  Ag1       1.0  0.98950  0.10969  0.92659  1.0000
  Ag  Ag2       1.0  0.01050  0.89031  0.07341  1.0000
  Ag  Ag3       1.0  0.19974  0.26745  0.98556  1.0000
  Ag  Ag4       1.0  0.80026  0.73255  0.01444  1.0000
  H   H1        1.0  0.41941  0.21290  0.57948  1.0000
  H   H2        1.0  0.58059  0.78710  0.42052  1.0000
  H   H3        1.0  0.20226  0.03955  0.16152  1.0000
  H   H4        1.0  0.79775  0.96045  0.83848  1.0000
  H   H5        1.0  0.76373  0.27150  0.71963  1.0000
  H   H6        1.0  0.23627  0.72850  0.28037  1.0000
  H   H7        1.0  0.63547  0.43690  0.28987  1.0000
  H   H8        1.0  0.36453  0.56310  0.71013  1.0000
  H   H9        1.0  0.84430  0.44171  0.11730  1.0000
  H   H10       1.0  0.15570  0.55829  0.88270  1.0000
  H   H11       1.0  0.22939  0.22148  0.75950  1.0000
  H   H12       1.0  0.77062  0.77852  0.24049  1.0000
  H   H13       1.0  0.56335  0.27228  0.89396  1.0000
  H   H14       1.0  0.43665  0.72772  0.10604  1.0000
  H   H15       1.0  0.55600  0.30031  0.43654  1.0000
  H   H16       1.0  0.44400  0.69969  0.56346  1.0000
  H   H17       1.0  0.67418  0.09743  0.43086  1.0000
  H   H18       1.0  0.32582  0.90257  0.56914  1.0000
  H   H19       1.0  0.00765  0.01363  0.33291  1.0000
  H   H20       1.0  0.99235  0.98637  0.66709  1.0000
  H   H21       1.0  0.42783  0.39233  0.05292  1.0000
  H   H22       1.0  0.57217  0.60766  0.94708  1.0000
  H   H23       1.0  0.73975  0.36464  0.52317  1.0000
  H   H24       1.0  0.26025  0.63536  0.47682  1.0000
  H   H25       1.0  0.85204  0.16374  0.51740  1.0000
  H   H26       1.0  0.14796  0.83626  0.48260  1.0000
  H   H27       1.0  0.03352  0.48610  0.35229  1.0000
  H   H28       1.0  0.96648  0.51390  0.64771  1.0000
  H   H29       1.0  0.50117  0.09513  0.29797  1.0000
  H   H30       1.0  0.49883  0.90487  0.70203  1.0000
  C   C1        1.0  0.45732  0.22733  0.64643  1.0000
  C   C2        1.0  0.54268  0.77268  0.35357  1.0000
  C   C3        1.0  0.60881  0.24405  0.63230  1.0000
  C   C4        1.0  0.39119  0.75596  0.36769  1.0000
  C   C5        1.0  0.07552  0.12540  0.19305  1.0000
  C   C6        1.0  0.92448  0.87460  0.80695  1.0000
  C   C7        1.0  0.64678  0.25998  0.72375  1.0000
  C   C8        1.0  0.35322  0.74001  0.27625  1.0000
  C   C9        1.0  0.76065  0.34731  0.26526  1.0000
  C   C10       1.0  0.23936  0.65270  0.73475  1.0000
  C   C11       1.0  0.87581  0.35178  0.16926  1.0000
  C   C12       1.0  0.12419  0.64823  0.83074  1.0000
  C   C13       1.0  0.34929  0.23170  0.74755  1.0000
  C   C14       1.0  0.65072  0.76831  0.25244  1.0000
  C   C15       1.0  0.80397  0.22577  0.32756  1.0000
  C   C16       1.0  0.19602  0.77423  0.67244  1.0000
  C   C17       1.0  0.53380  0.26221  0.82249  1.0000
  C   C18       1.0  0.46620  0.73779  0.17751  1.0000
  C   C19       1.0  0.68032  0.21606  0.43047  1.0000
  C   C20       1.0  0.31968  0.78393  0.56953  1.0000
  C   C21       1.0  0.96621  0.11341  0.28959  1.0000
  C   C22       1.0  0.03379  0.88660  0.71041  1.0000
  C   C23       1.0  0.37951  0.36043  0.13191  1.0000
  C   C24       1.0  0.62048  0.63956  0.86809  1.0000
  C   C25       1.0  0.48215  0.23460  0.16876  1.0000
  C   C26       1.0  0.51785  0.76541  0.83124  1.0000
  C   C27       1.0  0.66115  0.14552  0.10264  1.0000
  C   C28       1.0  0.33885  0.85448  0.89736  1.0000
  C   C29       1.0  0.72696  0.24853  0.52535  1.0000
  C   C30       1.0  0.27304  0.75147  0.47465  1.0000
  C   C31       1.0  0.15791  0.41370  0.30080  1.0000
  C   C32       1.0  0.84209  0.58630  0.69920  1.0000
  C   C33       1.0  0.21826  0.45059  0.19784  1.0000
  C   C34       1.0  0.78174  0.54940  0.80216  1.0000
  C   C35       1.0  0.11063  0.58981  0.15900  1.0000
  C   C36       1.0  0.88937  0.41019  0.84100  1.0000
  C   C37       1.0  0.42044  0.19441  0.27099  1.0000
  C   C38       1.0  0.57956  0.80558  0.72901  1.0000
  C   C39       1.0  0.25925  0.28432  0.33519  1.0000
  C   C40       1.0  0.74076  0.71568  0.66481  1.0000
  I   I1        1.0  0.16634  0.22982  0.49125  1.0000
  I   I2        1.0  0.83366  0.77018  0.50875  1.0000
  N   N1        1.0  0.03150  0.24307  0.13352  1.0000
  N   N2        1.0  0.96850  0.75693  0.86648  1.0000
  N   N3        1.0  0.38551  0.25010  0.83512  1.0000
  N   N4        1.0  0.61449  0.74990  0.16488  1.0000
  O   O1        1.0  0.71210  0.18036  0.00891  1.0000
  O   O2        1.0  0.28790  0.81963  0.99109  1.0000
  O   O3        1.0  0.74668  0.04475  0.14867  1.0000
  O   O4        1.0  0.25332  0.95525  0.85134  1.0000
  O   O5        1.0  0.03605  0.71826  0.22052  1.0000
  O   O6        1.0  0.96394  0.28174  0.77948  1.0000
  O   O7        1.0  0.10426  0.57078  0.06734  1.0000
  O   O8        1.0  0.89574  0.42922  0.93266  1.0000
