data_image0
_chemical_formula_structural       Ag8H40C52I4N8O16
_chemical_formula_sum              "Ag8 H40 C52 I4 N8 O16"
_cell_length_a       8.73071
_cell_length_b       13.5735
_cell_length_c       15.0839
_cell_angle_alpha    115.372
_cell_angle_beta     90
_cell_angle_gamma    108.761

_space_group_name_H-M_alt    "P 1"
_space_group_IT_number       1

loop_
  _space_group_symop_operation_xyz
  'x, y, z'

loop_
  _atom_site_type_symbol
  _atom_site_label
  _atom_site_symmetry_multiplicity
  _atom_site_fract_x
  _atom_site_fract_y
  _atom_site_fract_z
  _atom_site_occupancy
  Ag  Ag1       1.0  0.97056  0.30393  0.78029  1.0000
  Ag  Ag2       1.0  0.66658  0.69590  0.71962  1.0000
  Ag  Ag3       1.0  0.02944  0.69607  0.21971  1.0000
  Ag  Ag4       1.0  0.33342  0.30410  0.28038  1.0000
  Ag  Ag5       1.0  0.00174  0.01285  0.91134  1.0000
  Ag  Ag6       1.0  0.98905  0.98730  0.58873  1.0000
  Ag  Ag7       1.0  0.99826  0.98715  0.08866  1.0000
  Ag  Ag8       1.0  0.01095  0.01270  0.41127  1.0000
  H   H1        1.0  0.04427  0.28971  0.55766  1.0000
  H   H2        1.0  0.75464  0.71018  0.94230  1.0000
  H   H3        1.0  0.95573  0.71029  0.44234  1.0000
  H   H4        1.0  0.24536  0.28982  0.05770  1.0000
  H   H5        1.0  0.53453  0.17096  0.93116  1.0000
  H   H6        1.0  0.36381  0.82929  0.56898  1.0000
  H   H7        1.0  0.46547  0.82904  0.06885  1.0000
  H   H8        1.0  0.63618  0.17071  0.43102  1.0000
  H   H9        1.0  0.33366  0.64867  0.70598  1.0000
  H   H10       1.0  0.68497  0.35122  0.79395  1.0000
  H   H11       1.0  0.66634  0.35133  0.29402  1.0000
  H   H12       1.0  0.31503  0.64879  0.20605  1.0000
  H   H13       1.0  0.22873  0.57068  0.84661  1.0000
  H   H14       1.0  0.65821  0.42926  0.65332  1.0000
  H   H15       1.0  0.77127  0.42932  0.15339  1.0000
  H   H16       1.0  0.34180  0.57074  0.34668  1.0000
  H   H17       1.0  0.98684  0.21412  0.08282  1.0000
  H   H18       1.0  0.77289  0.78603  0.41724  1.0000
  H   H19       1.0  0.01316  0.78588  0.91718  1.0000
  H   H20       1.0  0.22711  0.21397  0.58276  1.0000
  H   H21       1.0  0.13354  0.62265  0.54691  1.0000
  H   H22       1.0  0.51073  0.37730  0.95308  1.0000
  H   H23       1.0  0.86646  0.37734  0.45309  1.0000
  H   H24       1.0  0.48927  0.62270  0.04692  1.0000
  H   H25       1.0  0.09203  0.52229  0.41933  1.0000
  H   H26       1.0  0.56972  0.47768  0.08065  1.0000
  H   H27       1.0  0.90797  0.47771  0.58067  1.0000
  H   H28       1.0  0.43028  0.52232  0.91935  1.0000
  H   H29       1.0  0.53313  0.12155  0.19464  1.0000
  H   H30       1.0  0.41163  0.87851  0.30541  1.0000
  H   H31       1.0  0.46687  0.87845  0.80536  1.0000
  H   H32       1.0  0.58837  0.12149  0.69459  1.0000
  H   H33       1.0  0.17453  0.38322  0.45266  1.0000
  H   H34       1.0  0.79141  0.61661  0.04728  1.0000
  H   H35       1.0  0.82548  0.61677  0.54734  1.0000
  H   H36       1.0  0.20859  0.38339  0.95272  1.0000
  H   H37       1.0  0.33219  0.52398  0.51081  1.0000
  H   H38       1.0  0.80810  0.47579  0.98912  1.0000
  H   H39       1.0  0.66781  0.47602  0.48919  1.0000
  H   H40       1.0  0.19190  0.52421  0.01088  1.0000
  C   C1        1.0  0.10916  0.37528  0.61885  1.0000
  C   C2        1.0  0.73401  0.62463  0.88110  1.0000
  C   C3        1.0  0.89084  0.62472  0.38115  1.0000
  C   C4        1.0  0.26599  0.37537  0.11890  1.0000
  C   C5        1.0  0.60209  0.17215  0.99251  1.0000
  C   C6        1.0  0.43021  0.82816  0.50766  1.0000
  C   C7        1.0  0.39791  0.82785  0.00749  1.0000
  C   C8        1.0  0.56979  0.17184  0.49234  1.0000
  C   C9        1.0  0.51764  0.14560  0.06296  1.0000
  C   C10       1.0  0.37218  0.85461  0.43718  1.0000
  C   C11       1.0  0.48236  0.85440  0.93704  1.0000
  C   C12       1.0  0.62782  0.14539  0.56282  1.0000
  C   C13       1.0  0.33437  0.11105  0.05087  1.0000
  C   C14       1.0  0.22328  0.88897  0.44921  1.0000
  C   C15       1.0  0.66563  0.88895  0.94913  1.0000
  C   C16       1.0  0.77672  0.11103  0.55079  1.0000
  C   C17       1.0  0.26046  0.56333  0.69817  1.0000
  C   C18       1.0  0.69719  0.43656  0.80176  1.0000
  C   C19       1.0  0.73954  0.43667  0.30183  1.0000
  C   C20       1.0  0.30281  0.56344  0.19825  1.0000
  C   C21       1.0  0.20682  0.52314  0.76623  1.0000
  C   C22       1.0  0.68380  0.47677  0.73369  1.0000
  C   C23       1.0  0.79318  0.47686  0.23377  1.0000
  C   C24       1.0  0.31621  0.52323  0.26630  1.0000
  C   C25       1.0  0.77076  0.19537  0.99894  1.0000
  C   C26       1.0  0.57563  0.80488  0.50118  1.0000
  C   C27       1.0  0.22925  0.80463  0.00106  1.0000
  C   C28       1.0  0.42437  0.19512  0.49882  1.0000
  C   C29       1.0  0.85536  0.19497  0.07765  1.0000
  C   C30       1.0  0.66063  0.80527  0.42246  1.0000
  C   C31       1.0  0.14465  0.80503  0.92235  1.0000
  C   C32       1.0  0.33937  0.19473  0.57753  1.0000
  C   C33       1.0  0.08792  0.52895  0.49459  1.0000
  C   C34       1.0  0.55892  0.47101  0.00539  1.0000
  C   C35       1.0  0.91208  0.47105  0.50541  1.0000
  C   C36       1.0  0.44108  0.52899  0.99461  1.0000
  C   C37       1.0  0.60178  0.14392  0.14144  1.0000
  C   C38       1.0  0.45797  0.85627  0.35869  1.0000
  C   C39       1.0  0.39822  0.85608  0.85857  1.0000
  C   C40       1.0  0.54202  0.14374  0.64131  1.0000
  C   C41       1.0  0.20544  0.47340  0.51085  1.0000
  C   C42       1.0  0.73206  0.52645  0.98908  1.0000
  C   C43       1.0  0.79457  0.52660  0.48915  1.0000
  C   C44       1.0  0.26794  0.47355  0.01092  1.0000
  C   C45       1.0  0.77058  0.17008  0.14819  1.0000
  C   C46       1.0  0.60063  0.83010  0.35191  1.0000
  C   C47       1.0  0.22942  0.82992  0.85181  1.0000
  C   C48       1.0  0.39936  0.16990  0.64809  1.0000
  C   C49       1.0  0.86434  0.21774  0.92180  1.0000
  C   C50       1.0  0.64676  0.78238  0.57826  1.0000
  C   C51       1.0  0.13566  0.78225  0.07820  1.0000
  C   C52       1.0  0.35324  0.21762  0.42174  1.0000
  I   I1        1.0  0.90651  0.16936  0.26378  1.0000
  I   I2        1.0  0.73692  0.83054  0.23612  1.0000
  I   I3        1.0  0.09349  0.83064  0.73622  1.0000
  I   I4        1.0  0.26308  0.16946  0.76388  1.0000
  N   N1        1.0  0.11269  0.40558  0.71584  1.0000
  N   N2        1.0  0.70728  0.59435  0.78412  1.0000
  N   N3        1.0  0.88730  0.59442  0.28416  1.0000
  N   N4        1.0  0.29273  0.40565  0.21588  1.0000
  N   N5        1.0  0.19890  0.46877  0.60580  1.0000
  N   N6        1.0  0.73020  0.53111  0.89414  1.0000
  N   N7        1.0  0.80111  0.53123  0.39420  1.0000
  N   N8        1.0  0.26980  0.46889  0.10586  1.0000
  O   O1        1.0  0.26485  0.10987  0.97609  1.0000
  O   O2        1.0  0.15500  0.89017  0.52400  1.0000
  O   O3        1.0  0.73515  0.89013  0.02391  1.0000
  O   O4        1.0  0.84499  0.10983  0.47599  1.0000
  O   O5        1.0  0.99672  0.19777  0.90981  1.0000
  O   O6        1.0  0.79917  0.80263  0.59041  1.0000
  O   O7        1.0  0.00328  0.80223  0.09019  1.0000
  O   O8        1.0  0.20083  0.19738  0.40959  1.0000
  O   O9        1.0  0.26411  0.08517  0.11631  1.0000
  O   O10       1.0  0.17871  0.91464  0.38367  1.0000
  O   O11       1.0  0.73589  0.91483  0.88369  1.0000
  O   O12       1.0  0.82129  0.08536  0.61633  1.0000
  O   O13       1.0  0.80406  0.25870  0.87345  1.0000
  O   O14       1.0  0.54539  0.74097  0.62630  1.0000
  O   O15       1.0  0.19594  0.74130  0.12655  1.0000
  O   O16       1.0  0.45460  0.25903  0.37370  1.0000
