data_image0
_chemical_formula_structural       FeH10PdC14N6
_chemical_formula_sum              "Fe1 H10 Pd1 C14 N6"
_cell_length_a       7.03603
_cell_length_b       7.2085
_cell_length_c       8.5222
_cell_angle_alpha    115.136
_cell_angle_beta     90.0004
_cell_angle_gamma    90.0001

_space_group_name_H-M_alt    "P 1"
_space_group_IT_number       1

loop_
  _space_group_symop_operation_xyz
  'x, y, z'

loop_
  _atom_site_type_symbol
  _atom_site_label
  _atom_site_symmetry_multiplicity
  _atom_site_fract_x
  _atom_site_fract_y
  _atom_site_fract_z
  _atom_site_occupancy
  Fe  Fe1       1.0  0.50000  0.49986  0.99971  1.0000
  H   H1        1.0  0.79346  0.34913  0.69859  1.0000
  H   H2        1.0  0.79345  0.65086  0.30145  1.0000
  H   H3        1.0  0.20656  0.34916  0.69863  1.0000
  H   H4        1.0  0.20656  0.65087  0.30146  1.0000
  H   H5        1.0  0.49997  0.10322  0.20601  1.0000
  H   H6        1.0  0.50002  0.89682  0.79406  1.0000
  H   H7        1.0  0.80656  0.18571  0.37134  1.0000
  H   H8        1.0  0.80660  0.81432  0.62873  1.0000
  H   H9        1.0  0.19341  0.18573  0.37138  1.0000
  H   H10       1.0  0.19343  0.81433  0.62874  1.0000
  Pd  Pd1       1.0  0.00000  0.00002  0.00002  1.0000
  C   C1        1.0  0.80415  0.80425  0.00005  1.0000
  C   C2        1.0  0.80415  0.19575  0.99991  1.0000
  C   C3        1.0  0.19584  0.19572  0.99989  1.0000
  C   C4        1.0  0.19583  0.80425  0.00004  1.0000
  C   C5        1.0  0.66513  0.30951  0.61950  1.0000
  C   C6        1.0  0.66514  0.69052  0.38058  1.0000
  C   C7        1.0  0.33487  0.30952  0.61951  1.0000
  C   C8        1.0  0.33487  0.69052  0.38059  1.0000
  C   C9        1.0  0.49999  0.17354  0.34704  1.0000
  C   C10       1.0  0.50002  0.82651  0.65304  1.0000
  C   C11       1.0  0.67054  0.21950  0.43920  1.0000
  C   C12       1.0  0.67058  0.78053  0.56088  1.0000
  C   C13       1.0  0.32943  0.21952  0.43922  1.0000
  C   C14       1.0  0.32944  0.78053  0.56088  1.0000
  N   N1        1.0  0.50001  0.35302  0.70662  1.0000
  N   N2        1.0  0.50001  0.64704  0.29351  1.0000
  N   N3        1.0  0.68928  0.68656  0.99995  1.0000
  N   N4        1.0  0.68927  0.31332  0.99976  1.0000
  N   N5        1.0  0.31073  0.31331  0.99974  1.0000
  N   N6        1.0  0.31073  0.68655  0.99994  1.0000
