data_image0
_chemical_formula_structural       Cd4H48C32S8N8O40
_chemical_formula_sum              "Cd4 H48 C32 S8 N8 O40"
_cell_length_a       8.35407
_cell_length_b       8.81341
_cell_length_c       20.4884
_cell_angle_alpha    90.1176
_cell_angle_beta     90
_cell_angle_gamma    90

_space_group_name_H-M_alt    "P 1"
_space_group_IT_number       1

loop_
  _space_group_symop_operation_xyz
  'x, y, z'

loop_
  _atom_site_type_symbol
  _atom_site_label
  _atom_site_symmetry_multiplicity
  _atom_site_fract_x
  _atom_site_fract_y
  _atom_site_fract_z
  _atom_site_occupancy
  Cd  Cd1       1.0  0.67302  0.57761  0.74469  1.0000
  Cd  Cd2       1.0  0.17302  0.92239  0.25532  1.0000
  Cd  Cd3       1.0  0.32698  0.42239  0.25531  1.0000
  Cd  Cd4       1.0  0.82698  0.07761  0.74469  1.0000
  H   H1        1.0  0.07136  0.93507  0.84391  1.0000
  H   H2        1.0  0.57136  0.56493  0.15610  1.0000
  H   H3        1.0  0.92864  0.06493  0.15609  1.0000
  H   H4        1.0  0.42864  0.43507  0.84391  1.0000
  H   H5        1.0  0.20943  0.95326  0.95008  1.0000
  H   H6        1.0  0.70943  0.54674  0.04992  1.0000
  H   H7        1.0  0.79057  0.04674  0.04992  1.0000
  H   H8        1.0  0.29057  0.45326  0.95008  1.0000
  H   H9        1.0  0.27439  0.77066  0.97656  1.0000
  H   H10       1.0  0.77439  0.72934  0.02344  1.0000
  H   H11       1.0  0.72561  0.22935  0.02344  1.0000
  H   H12       1.0  0.22561  0.27065  0.97656  1.0000
  H   H13       1.0  0.10697  0.85435  0.01403  1.0000
  H   H14       1.0  0.60697  0.64565  0.98598  1.0000
  H   H15       1.0  0.89303  0.14565  0.98597  1.0000
  H   H16       1.0  0.39303  0.35435  0.01402  1.0000
  H   H17       1.0  0.46684  0.71524  0.52499  1.0000
  H   H18       1.0  0.96684  0.78476  0.47501  1.0000
  H   H19       1.0  0.53316  0.28476  0.47501  1.0000
  H   H20       1.0  0.03315  0.21524  0.52499  1.0000
  H   H21       1.0  0.26643  0.62799  0.44788  1.0000
  H   H22       1.0  0.76643  0.87200  0.55212  1.0000
  H   H23       1.0  0.73357  0.37201  0.55212  1.0000
  H   H24       1.0  0.23357  0.12800  0.44788  1.0000
  H   H25       1.0  0.09186  0.57579  0.49224  1.0000
  H   H26       1.0  0.59186  0.92422  0.50776  1.0000
  H   H27       1.0  0.90814  0.42421  0.50776  1.0000
  H   H28       1.0  0.40814  0.07579  0.49224  1.0000
  H   H29       1.0  0.21156  0.43262  0.45619  1.0000
  H   H30       1.0  0.71156  0.06738  0.54381  1.0000
  H   H31       1.0  0.78844  0.56738  0.54381  1.0000
  H   H32       1.0  0.28844  0.93262  0.45619  1.0000
  H   H33       1.0  0.90504  0.40713  0.66599  1.0000
  H   H34       1.0  0.40504  0.09287  0.33401  1.0000
  H   H35       1.0  0.09496  0.59287  0.33401  1.0000
  H   H36       1.0  0.59496  0.90713  0.66599  1.0000
  H   H37       1.0  0.94325  0.58331  0.65627  1.0000
  H   H38       1.0  0.44324  0.91669  0.34373  1.0000
  H   H39       1.0  0.05675  0.41669  0.34373  1.0000
  H   H40       1.0  0.55675  0.08331  0.65627  1.0000
  H   H41       1.0  0.44325  0.76774  0.81603  1.0000
  H   H42       1.0  0.94325  0.73226  0.18396  1.0000
  H   H43       1.0  0.55675  0.23226  0.18397  1.0000
  H   H44       1.0  0.05675  0.26774  0.81603  1.0000
  H   H45       1.0  0.35775  0.69336  0.75612  1.0000
  H   H46       1.0  0.85775  0.80664  0.24388  1.0000
  H   H47       1.0  0.64225  0.30664  0.24388  1.0000
  H   H48       1.0  0.14225  0.19336  0.75612  1.0000
  C   C1        1.0  0.89853  0.75700  0.82036  1.0000
  C   C2        1.0  0.39853  0.74300  0.17964  1.0000
  C   C3        1.0  0.10147  0.24300  0.17964  1.0000
  C   C4        1.0  0.60147  0.25700  0.82036  1.0000
  C   C5        1.0  0.02129  0.82712  0.85951  1.0000
  C   C6        1.0  0.52129  0.67288  0.14049  1.0000
  C   C7        1.0  0.97871  0.17287  0.14049  1.0000
  C   C8        1.0  0.47871  0.32712  0.85951  1.0000
  C   C9        1.0  0.06343  0.76967  0.91837  1.0000
  C   C10       1.0  0.56344  0.73033  0.08163  1.0000
  C   C11       1.0  0.93657  0.23032  0.08163  1.0000
  C   C12       1.0  0.43657  0.26967  0.91837  1.0000
  C   C13       1.0  0.16938  0.84221  0.96710  1.0000
  C   C14       1.0  0.66938  0.65779  0.03290  1.0000
  C   C15       1.0  0.83062  0.15779  0.03290  1.0000
  C   C16       1.0  0.33062  0.34221  0.96710  1.0000
  C   C17       1.0  0.50926  0.61799  0.62150  1.0000
  C   C18       1.0  0.00926  0.88201  0.37850  1.0000
  C   C19       1.0  0.49074  0.38201  0.37850  1.0000
  C   C20       1.0  0.99074  0.11799  0.62150  1.0000
  C   C21       1.0  0.43129  0.62700  0.55884  1.0000
  C   C22       1.0  0.93128  0.87300  0.44116  1.0000
  C   C23       1.0  0.56871  0.37300  0.44116  1.0000
  C   C24       1.0  0.06871  0.12700  0.55884  1.0000
  C   C25       1.0  0.30932  0.53401  0.54208  1.0000
  C   C26       1.0  0.80931  0.96600  0.45792  1.0000
  C   C27       1.0  0.69068  0.46600  0.45792  1.0000
  C   C28       1.0  0.19068  0.03401  0.54208  1.0000
  C   C29       1.0  0.21561  0.54328  0.48092  1.0000
  C   C30       1.0  0.71561  0.95672  0.51908  1.0000
  C   C31       1.0  0.78439  0.45672  0.51907  1.0000
  C   C32       1.0  0.28438  0.04329  0.48092  1.0000
  S   S1        1.0  0.92518  0.51307  0.88753  1.0000
  S   S2        1.0  0.42519  0.98692  0.11247  1.0000
  S   S3        1.0  0.07482  0.48692  0.11247  1.0000
  S   S4        1.0  0.57482  0.01308  0.88753  1.0000
  S   S5        1.0  0.38048  0.35579  0.63994  1.0000
  S   S6        1.0  0.88048  0.14422  0.36006  1.0000
  S   S7        1.0  0.61952  0.64421  0.36006  1.0000
  S   S8        1.0  0.11952  0.85578  0.63994  1.0000
  N   N1        1.0  0.83576  0.61979  0.83649  1.0000
  N   N2        1.0  0.33576  0.88021  0.16351  1.0000
  N   N3        1.0  0.16424  0.38021  0.16351  1.0000
  N   N4        1.0  0.66424  0.11979  0.83649  1.0000
  N   N5        1.0  0.47674  0.50097  0.66280  1.0000
  N   N6        1.0  0.97673  0.99903  0.33720  1.0000
  N   N7        1.0  0.52325  0.49903  0.33720  1.0000
  N   N8        1.0  0.02326  0.00097  0.66280  1.0000
  O   O1        1.0  0.90071  0.50823  0.68705  1.0000
  O   O2        1.0  0.40071  0.99177  0.31295  1.0000
  O   O3        1.0  0.09929  0.49177  0.31295  1.0000
  O   O4        1.0  0.59928  0.00823  0.68705  1.0000
  O   O5        1.0  0.43656  0.67244  0.79038  1.0000
  O   O6        1.0  0.93656  0.82755  0.20962  1.0000
  O   O7        1.0  0.56344  0.32756  0.20962  1.0000
  O   O8        1.0  0.06344  0.17245  0.79038  1.0000
  O   O9        1.0  0.81345  0.42350  0.92363  1.0000
  O   O10       1.0  0.31345  0.07651  0.07637  1.0000
  O   O11       1.0  0.18656  0.57650  0.07637  1.0000
  O   O12       1.0  0.68656  0.92350  0.92363  1.0000
  O   O13       1.0  0.06250  0.43663  0.85925  1.0000
  O   O14       1.0  0.56250  0.06337  0.14075  1.0000
  O   O15       1.0  0.93751  0.56336  0.14075  1.0000
  O   O16       1.0  0.43751  0.93663  0.85925  1.0000
  O   O17       1.0  0.00238  0.63394  0.94101  1.0000
  O   O18       1.0  0.50239  0.86607  0.05899  1.0000
  O   O19       1.0  0.99763  0.36606  0.05899  1.0000
  O   O20       1.0  0.49762  0.13394  0.94101  1.0000
  O   O21       1.0  0.83525  0.82043  0.77055  1.0000
  O   O22       1.0  0.33525  0.67957  0.22945  1.0000
  O   O23       1.0  0.16475  0.17957  0.22945  1.0000
  O   O24       1.0  0.66475  0.32043  0.77055  1.0000
  O   O25       1.0  0.47981  0.24563  0.60593  1.0000
  O   O26       1.0  0.97980  0.25437  0.39408  1.0000
  O   O27       1.0  0.52019  0.75437  0.39408  1.0000
  O   O28       1.0  0.02019  0.74563  0.60592  1.0000
  O   O29       1.0  0.27847  0.29913  0.69059  1.0000
  O   O30       1.0  0.77846  0.20088  0.30942  1.0000
  O   O31       1.0  0.72153  0.70088  0.30941  1.0000
  O   O32       1.0  0.22154  0.79912  0.69058  1.0000
  O   O33       1.0  0.25533  0.42060  0.58271  1.0000
  O   O34       1.0  0.75532  0.07941  0.41730  1.0000
  O   O35       1.0  0.74467  0.57940  0.41729  1.0000
  O   O36       1.0  0.24467  0.92059  0.58270  1.0000
  O   O37       1.0  0.60821  0.71729  0.64158  1.0000
  O   O38       1.0  0.10821  0.78272  0.35842  1.0000
  O   O39       1.0  0.39178  0.28271  0.35842  1.0000
  O   O40       1.0  0.89178  0.21728  0.64158  1.0000
