data_image0
_chemical_formula_structural       H16Pb2C16S4N4O16
_chemical_formula_sum              "H16 Pb2 C16 S4 N4 O16"
_cell_length_a       7.11055
_cell_length_b       7.61462
_cell_length_c       13.7797
_cell_angle_alpha    83.1356
_cell_angle_beta     86.9997
_cell_angle_gamma    62.0996

_space_group_name_H-M_alt    "P 1"
_space_group_IT_number       1

loop_
  _space_group_symop_operation_xyz
  'x, y, z'

loop_
  _atom_site_type_symbol
  _atom_site_label
  _atom_site_symmetry_multiplicity
  _atom_site_fract_x
  _atom_site_fract_y
  _atom_site_fract_z
  _atom_site_occupancy
  H   H1        1.0  0.48954  0.84077  0.27194  1.0000
  H   H2        1.0  0.51046  0.15923  0.72806  1.0000
  H   H3        1.0  0.65108  0.87919  0.11474  1.0000
  H   H4        1.0  0.34892  0.12081  0.88526  1.0000
  H   H5        1.0  0.58194  0.78683  0.01525  1.0000
  H   H6        1.0  0.41805  0.21317  0.98474  1.0000
  H   H7        1.0  0.82391  0.63605  0.08005  1.0000
  H   H8        1.0  0.17608  0.36395  0.91995  1.0000
  H   H9        1.0  0.91020  0.86476  0.22330  1.0000
  H   H10       1.0  0.08981  0.13524  0.77670  1.0000
  H   H11       1.0  0.07819  0.96115  0.08128  1.0000
  H   H12       1.0  0.92181  0.03884  0.91872  1.0000
  H   H13       1.0  0.20663  0.10790  0.10336  1.0000
  H   H14       1.0  0.79338  0.89211  0.89664  1.0000
  H   H15       1.0  0.93938  0.22826  0.06128  1.0000
  H   H16       1.0  0.06062  0.77174  0.93873  1.0000
  Pb  Pb1       1.0  0.40979  0.28692  0.48463  1.0000
  Pb  Pb2       1.0  0.59019  0.71309  0.51537  1.0000
  C   C1        1.0  0.39886  0.60427  0.31379  1.0000
  C   C2        1.0  0.60114  0.39573  0.68621  1.0000
  C   C3        1.0  0.47285  0.71871  0.24670  1.0000
  C   C4        1.0  0.52715  0.28129  0.75330  1.0000
  C   C5        1.0  0.54801  0.66076  0.15711  1.0000
  C   C6        1.0  0.45200  0.33924  0.84289  1.0000
  C   C7        1.0  0.65654  0.74726  0.08789  1.0000
  C   C8        1.0  0.34347  0.25274  0.91211  1.0000
  C   C9        1.0  0.79089  0.03512  0.34952  1.0000
  C   C10       1.0  0.20911  0.96489  0.65048  1.0000
  C   C11       1.0  0.90709  0.98575  0.25903  1.0000
  C   C12       1.0  0.09292  0.01425  0.74097  1.0000
  C   C13       1.0  0.98064  0.10667  0.21012  1.0000
  C   C14       1.0  0.01936  0.89332  0.78987  1.0000
  C   C15       1.0  0.05674  0.09908  0.10790  1.0000
  C   C16       1.0  0.94326  0.90092  0.89210  1.0000
  S   S1        1.0  0.35595  0.43856  0.17232  1.0000
  S   S2        1.0  0.64406  0.56143  0.82767  1.0000
  S   S3        1.0  0.97006  0.24874  0.37241  1.0000
  S   S4        1.0  0.02993  0.75128  0.62759  1.0000
  N   N1        1.0  0.36075  0.46004  0.28560  1.0000
  N   N2        1.0  0.63925  0.53995  0.71440  1.0000
  N   N3        1.0  0.79805  0.17591  0.40035  1.0000
  N   N4        1.0  0.20194  0.82409  0.59965  1.0000
  O   O1        1.0  0.43908  0.23270  0.15610  1.0000
  O   O2        1.0  0.56093  0.76731  0.84389  1.0000
  O   O3        1.0  0.15879  0.58280  0.12493  1.0000
  O   O4        1.0  0.84121  0.41719  0.87506  1.0000
  O   O5        1.0  0.53897  0.50247  0.12271  1.0000
  O   O6        1.0  0.46103  0.49753  0.87728  1.0000
  O   O7        1.0  0.38055  0.62443  0.40617  1.0000
  O   O8        1.0  0.61945  0.37556  0.59383  1.0000
  O   O9        1.0  0.89816  0.45116  0.39477  1.0000
  O   O10       1.0  0.10183  0.54884  0.60523  1.0000
  O   O11       1.0  0.18401  0.10638  0.40445  1.0000
  O   O12       1.0  0.81599  0.89362  0.59555  1.0000
  O   O13       1.0  0.97876  0.26499  0.25125  1.0000
  O   O14       1.0  0.02124  0.73501  0.74875  1.0000
  O   O15       1.0  0.66246  0.96767  0.37901  1.0000
  O   O16       1.0  0.33754  0.03233  0.62099  1.0000
