data_image0
_chemical_formula_structural       Tb4H56C44N4O32
_chemical_formula_sum              "Tb4 H56 C44 N4 O32"
_cell_length_a       8.37048
_cell_length_b       11.8889
_cell_length_c       13.2782
_cell_angle_alpha    90
_cell_angle_beta     90
_cell_angle_gamma    96.3699

_space_group_name_H-M_alt    "P 1"
_space_group_IT_number       1

loop_
  _space_group_symop_operation_xyz
  'x, y, z'

loop_
  _atom_site_type_symbol
  _atom_site_label
  _atom_site_symmetry_multiplicity
  _atom_site_fract_x
  _atom_site_fract_y
  _atom_site_fract_z
  _atom_site_occupancy
  Tb  Tb1       1.0  0.00555  0.33509  0.59522  1.0000
  Tb  Tb2       1.0  0.49445  0.66491  0.09522  1.0000
  Tb  Tb3       1.0  0.99445  0.66491  0.40478  1.0000
  Tb  Tb4       1.0  0.50555  0.33509  0.90478  1.0000
  H   H1        1.0  0.80213  0.52193  0.61416  1.0000
  H   H2        1.0  0.69788  0.47807  0.11416  1.0000
  H   H3        1.0  0.19788  0.47807  0.38584  1.0000
  H   H4        1.0  0.30213  0.52193  0.88584  1.0000
  H   H5        1.0  0.77916  0.46850  0.72554  1.0000
  H   H6        1.0  0.72085  0.53150  0.22554  1.0000
  H   H7        1.0  0.22085  0.53150  0.27446  1.0000
  H   H8        1.0  0.27916  0.46850  0.77446  1.0000
  H   H9        1.0  0.93635  0.26331  0.80793  1.0000
  H   H10       1.0  0.56365  0.73669  0.30793  1.0000
  H   H11       1.0  0.06365  0.73669  0.19207  1.0000
  H   H12       1.0  0.43635  0.26331  0.69207  1.0000
  H   H13       1.0  0.12569  0.25356  0.79851  1.0000
  H   H14       1.0  0.37431  0.74644  0.29851  1.0000
  H   H15       1.0  0.87431  0.74644  0.20149  1.0000
  H   H16       1.0  0.62569  0.25356  0.70149  1.0000
  H   H17       1.0  0.15632  0.19881  0.38015  1.0000
  H   H18       1.0  0.34368  0.80119  0.88015  1.0000
  H   H19       1.0  0.84368  0.80119  0.61985  1.0000
  H   H20       1.0  0.65632  0.19881  0.11985  1.0000
  H   H21       1.0  0.06190  0.05084  0.25246  1.0000
  H   H22       1.0  0.43809  0.94915  0.75247  1.0000
  H   H23       1.0  0.93809  0.94915  0.74753  1.0000
  H   H24       1.0  0.56190  0.05084  0.24754  1.0000
  H   H25       1.0  0.80756  0.92637  0.28457  1.0000
  H   H26       1.0  0.69244  0.07362  0.78456  1.0000
  H   H27       1.0  0.19244  0.07362  0.71544  1.0000
  H   H28       1.0  0.30756  0.92637  0.21543  1.0000
  H   H29       1.0  0.65110  0.95860  0.44344  1.0000
  H   H30       1.0  0.84890  0.04140  0.94344  1.0000
  H   H31       1.0  0.34890  0.04140  0.55656  1.0000
  H   H32       1.0  0.15110  0.95860  0.05656  1.0000
  H   H33       1.0  0.52047  0.22688  0.50105  1.0000
  H   H34       1.0  0.97953  0.77312  0.00105  1.0000
  H   H35       1.0  0.47953  0.77312  0.49895  1.0000
  H   H36       1.0  0.02047  0.22688  0.99895  1.0000
  H   H37       1.0  0.56941  0.37139  0.52540  1.0000
  H   H38       1.0  0.93059  0.62861  0.02540  1.0000
  H   H39       1.0  0.43059  0.62861  0.47460  1.0000
  H   H40       1.0  0.06941  0.37139  0.97460  1.0000
  H   H41       1.0  0.47751  0.41603  0.34729  1.0000
  H   H42       1.0  0.02249  0.58397  0.84729  1.0000
  H   H43       1.0  0.52248  0.58397  0.65271  1.0000
  H   H44       1.0  0.97752  0.41603  0.15271  1.0000
  H   H45       1.0  0.42934  0.26942  0.32614  1.0000
  H   H46       1.0  0.07066  0.73058  0.82614  1.0000
  H   H47       1.0  0.57066  0.73058  0.67386  1.0000
  H   H48       1.0  0.92934  0.26942  0.17386  1.0000
  H   H49       1.0  0.71939  0.23913  0.35596  1.0000
  H   H50       1.0  0.78061  0.76087  0.85596  1.0000
  H   H51       1.0  0.28061  0.76087  0.64404  1.0000
  H   H52       1.0  0.21939  0.23913  0.14404  1.0000
  H   H53       1.0  0.68786  0.32745  0.25082  1.0000
  H   H54       1.0  0.81214  0.67255  0.75082  1.0000
  H   H55       1.0  0.31214  0.67255  0.74918  1.0000
  H   H56       1.0  0.18786  0.32745  0.24918  1.0000
  C   C1        1.0  0.04497  0.14367  0.39148  1.0000
  C   C2        1.0  0.45503  0.85633  0.89149  1.0000
  C   C3        1.0  0.95503  0.85633  0.60851  1.0000
  C   C4        1.0  0.54497  0.14367  0.10852  1.0000
  C   C5        1.0  0.99283  0.06110  0.32068  1.0000
  C   C6        1.0  0.50717  0.93890  0.82068  1.0000
  C   C7        1.0  0.00717  0.93890  0.67932  1.0000
  C   C8        1.0  0.49283  0.06110  0.17932  1.0000
  C   C9        1.0  0.85012  0.99178  0.33851  1.0000
  C   C10       1.0  0.64988  0.00822  0.83851  1.0000
  C   C11       1.0  0.14988  0.00822  0.66149  1.0000
  C   C12       1.0  0.35012  0.99178  0.16149  1.0000
  C   C13       1.0  0.76481  0.00824  0.42626  1.0000
  C   C14       1.0  0.73518  0.99176  0.92626  1.0000
  C   C15       1.0  0.23518  0.99176  0.57374  1.0000
  C   C16       1.0  0.26482  0.00824  0.07374  1.0000
  C   C17       1.0  0.82408  0.09397  0.49240  1.0000
  C   C18       1.0  0.67592  0.90604  0.99240  1.0000
  C   C19       1.0  0.17591  0.90604  0.50760  1.0000
  C   C20       1.0  0.32408  0.09397  0.00760  1.0000
  C   C21       1.0  0.72865  0.11759  0.58471  1.0000
  C   C22       1.0  0.77135  0.88242  0.08471  1.0000
  C   C23       1.0  0.27135  0.88242  0.41529  1.0000
  C   C24       1.0  0.22865  0.11759  0.91529  1.0000
  C   C25       1.0  0.32039  0.31787  0.52005  1.0000
  C   C26       1.0  0.17961  0.68213  0.02005  1.0000
  C   C27       1.0  0.67961  0.68213  0.47995  1.0000
  C   C28       1.0  0.82039  0.31787  0.97995  1.0000
  C   C29       1.0  0.48802  0.31106  0.48095  1.0000
  C   C30       1.0  0.01198  0.68894  0.98095  1.0000
  C   C31       1.0  0.51198  0.68894  0.51905  1.0000
  C   C32       1.0  0.98802  0.31106  0.01905  1.0000
  C   C33       1.0  0.51014  0.33201  0.36814  1.0000
  C   C34       1.0  0.98986  0.66799  0.86814  1.0000
  C   C35       1.0  0.48986  0.66799  0.63186  1.0000
  C   C36       1.0  0.01014  0.33201  0.13186  1.0000
  C   C37       1.0  0.68325  0.32142  0.33327  1.0000
  C   C38       1.0  0.81675  0.67857  0.83327  1.0000
  C   C39       1.0  0.31675  0.67858  0.66673  1.0000
  C   C40       1.0  0.18325  0.32142  0.16673  1.0000
  C   C41       1.0  0.79975  0.41537  0.37700  1.0000
  C   C42       1.0  0.70025  0.58463  0.87700  1.0000
  C   C43       1.0  0.20025  0.58463  0.62300  1.0000
  C   C44       1.0  0.29975  0.41537  0.12300  1.0000
  N   N1        1.0  0.96240  0.16153  0.47586  1.0000
  N   N2        1.0  0.53760  0.83847  0.97587  1.0000
  N   N3        1.0  0.03760  0.83847  0.52413  1.0000
  N   N4        1.0  0.46240  0.16153  0.02414  1.0000
  O   O1        1.0  0.61020  0.05097  0.60915  1.0000
  O   O2        1.0  0.88980  0.94904  0.10915  1.0000
  O   O3        1.0  0.38980  0.94904  0.39085  1.0000
  O   O4        1.0  0.11020  0.05097  0.89085  1.0000
  O   O5        1.0  0.77729  0.21157  0.63163  1.0000
  O   O6        1.0  0.72271  0.78843  0.13163  1.0000
  O   O7        1.0  0.22271  0.78843  0.36837  1.0000
  O   O8        1.0  0.27729  0.21157  0.86837  1.0000
  O   O9        1.0  0.21935  0.36982  0.47057  1.0000
  O   O10       1.0  0.28065  0.63018  0.97057  1.0000
  O   O11       1.0  0.78065  0.63018  0.52943  1.0000
  O   O12       1.0  0.71935  0.36982  0.02943  1.0000
  O   O13       1.0  0.27721  0.27032  0.60368  1.0000
  O   O14       1.0  0.22279  0.72968  0.10368  1.0000
  O   O15       1.0  0.72279  0.72968  0.39632  1.0000
  O   O16       1.0  0.77721  0.27032  0.89632  1.0000
  O   O17       1.0  0.87828  0.39857  0.45612  1.0000
  O   O18       1.0  0.62172  0.60143  0.95612  1.0000
  O   O19       1.0  0.12172  0.60143  0.54388  1.0000
  O   O20       1.0  0.37828  0.39857  0.04388  1.0000
  O   O21       1.0  0.81132  0.51211  0.33368  1.0000
  O   O22       1.0  0.68868  0.48788  0.83368  1.0000
  O   O23       1.0  0.18868  0.48789  0.66632  1.0000
  O   O24       1.0  0.31132  0.51211  0.16632  1.0000
  O   O25       1.0  0.82962  0.45942  0.65793  1.0000
  O   O26       1.0  0.67038  0.54058  0.15793  1.0000
  O   O27       1.0  0.17038  0.54058  0.34207  1.0000
  O   O28       1.0  0.32962  0.45942  0.84207  1.0000
  O   O29       1.0  0.03010  0.27763  0.76210  1.0000
  O   O30       1.0  0.46990  0.72237  0.26210  1.0000
  O   O31       1.0  0.96990  0.72237  0.23790  1.0000
  O   O32       1.0  0.53010  0.27763  0.73790  1.0000
