data_image0
_chemical_formula_structural       Er4H56C44N4O32
_chemical_formula_sum              "Er4 H56 C44 N4 O32"
_cell_length_a       8.32345
_cell_length_b       11.9821
_cell_length_c       13.1583
_cell_angle_alpha    90
_cell_angle_beta     90
_cell_angle_gamma    96.4891

_space_group_name_H-M_alt    "P 1"
_space_group_IT_number       1

loop_
  _space_group_symop_operation_xyz
  'x, y, z'

loop_
  _atom_site_type_symbol
  _atom_site_label
  _atom_site_symmetry_multiplicity
  _atom_site_fract_x
  _atom_site_fract_y
  _atom_site_fract_z
  _atom_site_occupancy
  Er  Er1       1.0  0.00466  0.33584  0.59514  1.0000
  Er  Er2       1.0  0.49534  0.66416  0.09514  1.0000
  Er  Er3       1.0  0.99534  0.66416  0.40486  1.0000
  Er  Er4       1.0  0.50466  0.33584  0.90486  1.0000
  H   H1        1.0  0.80435  0.52003  0.61446  1.0000
  H   H2        1.0  0.69565  0.47996  0.11446  1.0000
  H   H3        1.0  0.19565  0.47997  0.38554  1.0000
  H   H4        1.0  0.30435  0.52003  0.88554  1.0000
  H   H5        1.0  0.77992  0.46616  0.72648  1.0000
  H   H6        1.0  0.72008  0.53384  0.22648  1.0000
  H   H7        1.0  0.22008  0.53384  0.27352  1.0000
  H   H8        1.0  0.27992  0.46616  0.77352  1.0000
  H   H9        1.0  0.93413  0.26469  0.80654  1.0000
  H   H10       1.0  0.56587  0.73531  0.30654  1.0000
  H   H11       1.0  0.06587  0.73531  0.19346  1.0000
  H   H12       1.0  0.43413  0.26469  0.69346  1.0000
  H   H13       1.0  0.12529  0.25708  0.79747  1.0000
  H   H14       1.0  0.37471  0.74292  0.29747  1.0000
  H   H15       1.0  0.87471  0.74292  0.20253  1.0000
  H   H16       1.0  0.62529  0.25708  0.70253  1.0000
  H   H17       1.0  0.15887  0.20252  0.37993  1.0000
  H   H18       1.0  0.34113  0.79748  0.87993  1.0000
  H   H19       1.0  0.84113  0.79747  0.62007  1.0000
  H   H20       1.0  0.65887  0.20252  0.12007  1.0000
  H   H21       1.0  0.06829  0.05201  0.25364  1.0000
  H   H22       1.0  0.43171  0.94800  0.75364  1.0000
  H   H23       1.0  0.93171  0.94800  0.74636  1.0000
  H   H24       1.0  0.56829  0.05201  0.24637  1.0000
  H   H25       1.0  0.81450  0.92638  0.28701  1.0000
  H   H26       1.0  0.68551  0.07362  0.78701  1.0000
  H   H27       1.0  0.18551  0.07362  0.71299  1.0000
  H   H28       1.0  0.31449  0.92638  0.21299  1.0000
  H   H29       1.0  0.65372  0.96058  0.44544  1.0000
  H   H30       1.0  0.84628  0.03942  0.94544  1.0000
  H   H31       1.0  0.34628  0.03942  0.55456  1.0000
  H   H32       1.0  0.15372  0.96058  0.05456  1.0000
  H   H33       1.0  0.51791  0.22910  0.50049  1.0000
  H   H34       1.0  0.98209  0.77090  0.00049  1.0000
  H   H35       1.0  0.48208  0.77090  0.49951  1.0000
  H   H36       1.0  0.01791  0.22910  0.99951  1.0000
  H   H37       1.0  0.56780  0.37203  0.52705  1.0000
  H   H38       1.0  0.93220  0.62797  0.02705  1.0000
  H   H39       1.0  0.43220  0.62797  0.47295  1.0000
  H   H40       1.0  0.06780  0.37203  0.97295  1.0000
  H   H41       1.0  0.47745  0.41969  0.34778  1.0000
  H   H42       1.0  0.02255  0.58031  0.84778  1.0000
  H   H43       1.0  0.52255  0.58031  0.65222  1.0000
  H   H44       1.0  0.97745  0.41969  0.15222  1.0000
  H   H45       1.0  0.42766  0.27474  0.32426  1.0000
  H   H46       1.0  0.07234  0.72526  0.82426  1.0000
  H   H47       1.0  0.57234  0.72526  0.67574  1.0000
  H   H48       1.0  0.92766  0.27474  0.17574  1.0000
  H   H49       1.0  0.71832  0.24280  0.35437  1.0000
  H   H50       1.0  0.78168  0.75720  0.85437  1.0000
  H   H51       1.0  0.28168  0.75720  0.64563  1.0000
  H   H52       1.0  0.21832  0.24280  0.14563  1.0000
  H   H53       1.0  0.68820  0.33252  0.24949  1.0000
  H   H54       1.0  0.81179  0.66748  0.74949  1.0000
  H   H55       1.0  0.31179  0.66748  0.75051  1.0000
  H   H56       1.0  0.18820  0.33252  0.25051  1.0000
  C   C1        1.0  0.04781  0.14692  0.39189  1.0000
  C   C2        1.0  0.45219  0.85308  0.89189  1.0000
  C   C3        1.0  0.95220  0.85308  0.60811  1.0000
  C   C4        1.0  0.54780  0.14692  0.10812  1.0000
  C   C5        1.0  0.99763  0.06297  0.32177  1.0000
  C   C6        1.0  0.50237  0.93703  0.82178  1.0000
  C   C7        1.0  0.00237  0.93703  0.67823  1.0000
  C   C8        1.0  0.49763  0.06297  0.17823  1.0000
  C   C9        1.0  0.85516  0.99300  0.34029  1.0000
  C   C10       1.0  0.64484  0.00700  0.84030  1.0000
  C   C11       1.0  0.14484  0.00700  0.65970  1.0000
  C   C12       1.0  0.35516  0.99300  0.15971  1.0000
  C   C13       1.0  0.76770  0.01048  0.42787  1.0000
  C   C14       1.0  0.73230  0.98952  0.92787  1.0000
  C   C15       1.0  0.23230  0.98952  0.57213  1.0000
  C   C16       1.0  0.26770  0.01048  0.07213  1.0000
  C   C17       1.0  0.82510  0.09753  0.49327  1.0000
  C   C18       1.0  0.67490  0.90247  0.99327  1.0000
  C   C19       1.0  0.17490  0.90247  0.50673  1.0000
  C   C20       1.0  0.32510  0.09753  0.00673  1.0000
  C   C21       1.0  0.72774  0.12258  0.58531  1.0000
  C   C22       1.0  0.77227  0.87742  0.08531  1.0000
  C   C23       1.0  0.27227  0.87742  0.41469  1.0000
  C   C24       1.0  0.22774  0.12258  0.91469  1.0000
  C   C25       1.0  0.31719  0.31937  0.52039  1.0000
  C   C26       1.0  0.18281  0.68063  0.02039  1.0000
  C   C27       1.0  0.68281  0.68063  0.47961  1.0000
  C   C28       1.0  0.81718  0.31937  0.97961  1.0000
  C   C29       1.0  0.48591  0.31304  0.48121  1.0000
  C   C30       1.0  0.01409  0.68696  0.98121  1.0000
  C   C31       1.0  0.51409  0.68696  0.51879  1.0000
  C   C32       1.0  0.98591  0.31304  0.01879  1.0000
  C   C33       1.0  0.50917  0.33579  0.36774  1.0000
  C   C34       1.0  0.99083  0.66421  0.86774  1.0000
  C   C35       1.0  0.49083  0.66422  0.63226  1.0000
  C   C36       1.0  0.00917  0.33579  0.13226  1.0000
  C   C37       1.0  0.68308  0.32510  0.33260  1.0000
  C   C38       1.0  0.81692  0.67490  0.83260  1.0000
  C   C39       1.0  0.31692  0.67490  0.66740  1.0000
  C   C40       1.0  0.18308  0.32510  0.16740  1.0000
  C   C41       1.0  0.80106  0.41700  0.37826  1.0000
  C   C42       1.0  0.69894  0.58300  0.87826  1.0000
  C   C43       1.0  0.19894  0.58300  0.62174  1.0000
  C   C44       1.0  0.30106  0.41700  0.12174  1.0000
  N   N1        1.0  0.96351  0.16550  0.47628  1.0000
  N   N2        1.0  0.53649  0.83450  0.97628  1.0000
  N   N3        1.0  0.03649  0.83450  0.52372  1.0000
  N   N4        1.0  0.46351  0.16550  0.02372  1.0000
  O   O1        1.0  0.60724  0.05752  0.60993  1.0000
  O   O2        1.0  0.89276  0.94248  0.10993  1.0000
  O   O3        1.0  0.39276  0.94247  0.39007  1.0000
  O   O4        1.0  0.10724  0.05752  0.89007  1.0000
  O   O5        1.0  0.77717  0.21636  0.63174  1.0000
  O   O6        1.0  0.72283  0.78364  0.13174  1.0000
  O   O7        1.0  0.22283  0.78364  0.36826  1.0000
  O   O8        1.0  0.27717  0.21635  0.86826  1.0000
  O   O9        1.0  0.21612  0.37175  0.47097  1.0000
  O   O10       1.0  0.28388  0.62824  0.97097  1.0000
  O   O11       1.0  0.78388  0.62825  0.52903  1.0000
  O   O12       1.0  0.71612  0.37175  0.02903  1.0000
  O   O13       1.0  0.27246  0.27097  0.60404  1.0000
  O   O14       1.0  0.22754  0.72903  0.10404  1.0000
  O   O15       1.0  0.72754  0.72903  0.39596  1.0000
  O   O16       1.0  0.77246  0.27097  0.89596  1.0000
  O   O17       1.0  0.87929  0.39813  0.45774  1.0000
  O   O18       1.0  0.62071  0.60187  0.95774  1.0000
  O   O19       1.0  0.12071  0.60186  0.54226  1.0000
  O   O20       1.0  0.37929  0.39813  0.04227  1.0000
  O   O21       1.0  0.81390  0.51382  0.33599  1.0000
  O   O22       1.0  0.68610  0.48618  0.83599  1.0000
  O   O23       1.0  0.18610  0.48618  0.66401  1.0000
  O   O24       1.0  0.31390  0.51382  0.16401  1.0000
  O   O25       1.0  0.83143  0.45779  0.65851  1.0000
  O   O26       1.0  0.66857  0.54221  0.15851  1.0000
  O   O27       1.0  0.16857  0.54221  0.34149  1.0000
  O   O28       1.0  0.33143  0.45778  0.84149  1.0000
  O   O29       1.0  0.02879  0.28058  0.76084  1.0000
  O   O30       1.0  0.47121  0.71943  0.26084  1.0000
  O   O31       1.0  0.97121  0.71942  0.23916  1.0000
  O   O32       1.0  0.52879  0.28057  0.73916  1.0000
