data_image0
_chemical_formula_structural       Gd4H56C44N4O32
_chemical_formula_sum              "Gd4 H56 C44 N4 O32"
_cell_length_a       8.38692
_cell_length_b       11.8735
_cell_length_c       13.3448
_cell_angle_alpha    90
_cell_angle_beta     90
_cell_angle_gamma    96.2795

_space_group_name_H-M_alt    "P 1"
_space_group_IT_number       1

loop_
  _space_group_symop_operation_xyz
  'x, y, z'

loop_
  _atom_site_type_symbol
  _atom_site_label
  _atom_site_symmetry_multiplicity
  _atom_site_fract_x
  _atom_site_fract_y
  _atom_site_fract_z
  _atom_site_occupancy
  Gd  Gd1       1.0  0.00667  0.33539  0.59518  1.0000
  Gd  Gd2       1.0  0.49333  0.66461  0.09518  1.0000
  Gd  Gd3       1.0  0.99333  0.66461  0.40482  1.0000
  Gd  Gd4       1.0  0.50668  0.33539  0.90482  1.0000
  H   H1        1.0  0.80226  0.52346  0.61448  1.0000
  H   H2        1.0  0.69774  0.47654  0.11448  1.0000
  H   H3        1.0  0.19774  0.47654  0.38552  1.0000
  H   H4        1.0  0.30226  0.52346  0.88552  1.0000
  H   H5        1.0  0.78026  0.46977  0.72534  1.0000
  H   H6        1.0  0.71974  0.53023  0.22534  1.0000
  H   H7        1.0  0.21974  0.53023  0.27466  1.0000
  H   H8        1.0  0.28026  0.46977  0.77466  1.0000
  H   H9        1.0  0.93830  0.26340  0.80839  1.0000
  H   H10       1.0  0.56170  0.73660  0.30839  1.0000
  H   H11       1.0  0.06170  0.73660  0.19161  1.0000
  H   H12       1.0  0.43830  0.26340  0.69161  1.0000
  H   H13       1.0  0.12695  0.25308  0.79868  1.0000
  H   H14       1.0  0.37305  0.74692  0.29868  1.0000
  H   H15       1.0  0.87306  0.74692  0.20132  1.0000
  H   H16       1.0  0.62694  0.25308  0.70132  1.0000
  H   H17       1.0  0.15445  0.19842  0.37966  1.0000
  H   H18       1.0  0.34555  0.80158  0.87966  1.0000
  H   H19       1.0  0.84555  0.80158  0.62034  1.0000
  H   H20       1.0  0.65444  0.19842  0.12034  1.0000
  H   H21       1.0  0.05856  0.05049  0.25257  1.0000
  H   H22       1.0  0.44144  0.94951  0.75257  1.0000
  H   H23       1.0  0.94144  0.94951  0.74743  1.0000
  H   H24       1.0  0.55856  0.05049  0.24743  1.0000
  H   H25       1.0  0.80497  0.92669  0.28506  1.0000
  H   H26       1.0  0.69504  0.07331  0.78506  1.0000
  H   H27       1.0  0.19504  0.07331  0.71494  1.0000
  H   H28       1.0  0.30497  0.92669  0.21494  1.0000
  H   H29       1.0  0.65006  0.95888  0.44380  1.0000
  H   H30       1.0  0.84994  0.04112  0.94380  1.0000
  H   H31       1.0  0.34994  0.04112  0.55620  1.0000
  H   H32       1.0  0.15006  0.95888  0.05620  1.0000
  H   H33       1.0  0.52288  0.22762  0.50171  1.0000
  H   H34       1.0  0.97712  0.77238  0.00171  1.0000
  H   H35       1.0  0.47712  0.77238  0.49829  1.0000
  H   H36       1.0  0.02288  0.22762  0.99829  1.0000
  H   H37       1.0  0.56954  0.37262  0.52490  1.0000
  H   H38       1.0  0.93046  0.62738  0.02490  1.0000
  H   H39       1.0  0.43046  0.62738  0.47510  1.0000
  H   H40       1.0  0.06954  0.37262  0.97510  1.0000
  H   H41       1.0  0.47808  0.41504  0.34711  1.0000
  H   H42       1.0  0.02192  0.58496  0.84711  1.0000
  H   H43       1.0  0.52192  0.58496  0.65289  1.0000
  H   H44       1.0  0.97808  0.41504  0.15289  1.0000
  H   H45       1.0  0.43129  0.26793  0.32725  1.0000
  H   H46       1.0  0.06871  0.73207  0.82725  1.0000
  H   H47       1.0  0.56871  0.73207  0.67275  1.0000
  H   H48       1.0  0.93129  0.26793  0.17275  1.0000
  H   H49       1.0  0.72084  0.23862  0.35734  1.0000
  H   H50       1.0  0.77916  0.76138  0.85734  1.0000
  H   H51       1.0  0.27916  0.76138  0.64266  1.0000
  H   H52       1.0  0.22084  0.23862  0.14266  1.0000
  H   H53       1.0  0.68920  0.32607  0.25207  1.0000
  H   H54       1.0  0.81080  0.67393  0.75207  1.0000
  H   H55       1.0  0.31080  0.67393  0.74793  1.0000
  H   H56       1.0  0.18920  0.32607  0.24793  1.0000
  C   C1        1.0  0.04343  0.14332  0.39127  1.0000
  C   C2        1.0  0.45657  0.85668  0.89127  1.0000
  C   C3        1.0  0.95657  0.85668  0.60873  1.0000
  C   C4        1.0  0.54343  0.14332  0.10873  1.0000
  C   C5        1.0  0.99046  0.06094  0.32077  1.0000
  C   C6        1.0  0.50954  0.93906  0.82077  1.0000
  C   C7        1.0  0.00954  0.93906  0.67923  1.0000
  C   C8        1.0  0.49046  0.06094  0.17923  1.0000
  C   C9        1.0  0.84802  0.99187  0.33882  1.0000
  C   C10       1.0  0.65198  0.00813  0.83882  1.0000
  C   C11       1.0  0.15198  0.00813  0.66118  1.0000
  C   C12       1.0  0.34802  0.99187  0.16118  1.0000
  C   C13       1.0  0.76361  0.00827  0.42647  1.0000
  C   C14       1.0  0.73639  0.99173  0.92647  1.0000
  C   C15       1.0  0.23639  0.99173  0.57353  1.0000
  C   C16       1.0  0.26361  0.00827  0.07353  1.0000
  C   C17       1.0  0.82371  0.09371  0.49235  1.0000
  C   C18       1.0  0.67629  0.90629  0.99234  1.0000
  C   C19       1.0  0.17629  0.90629  0.50766  1.0000
  C   C20       1.0  0.32371  0.09371  0.00766  1.0000
  C   C21       1.0  0.72917  0.11730  0.58467  1.0000
  C   C22       1.0  0.77083  0.88270  0.08467  1.0000
  C   C23       1.0  0.27083  0.88270  0.41533  1.0000
  C   C24       1.0  0.22917  0.11730  0.91533  1.0000
  C   C25       1.0  0.32183  0.31756  0.51977  1.0000
  C   C26       1.0  0.17817  0.68244  0.01977  1.0000
  C   C27       1.0  0.67817  0.68244  0.48023  1.0000
  C   C28       1.0  0.82183  0.31756  0.98023  1.0000
  C   C29       1.0  0.48933  0.31139  0.48097  1.0000
  C   C30       1.0  0.01067  0.68861  0.98096  1.0000
  C   C31       1.0  0.51068  0.68861  0.51903  1.0000
  C   C32       1.0  0.98933  0.31139  0.01903  1.0000
  C   C33       1.0  0.51135  0.33128  0.36858  1.0000
  C   C34       1.0  0.98865  0.66872  0.86858  1.0000
  C   C35       1.0  0.48865  0.66872  0.63142  1.0000
  C   C36       1.0  0.01135  0.33128  0.13142  1.0000
  C   C37       1.0  0.68433  0.32070  0.33414  1.0000
  C   C38       1.0  0.81567  0.67930  0.83414  1.0000
  C   C39       1.0  0.31567  0.67930  0.66586  1.0000
  C   C40       1.0  0.18433  0.32070  0.16586  1.0000
  C   C41       1.0  0.79957  0.41549  0.37697  1.0000
  C   C42       1.0  0.70044  0.58451  0.87697  1.0000
  C   C43       1.0  0.20044  0.58451  0.62303  1.0000
  C   C44       1.0  0.29957  0.41549  0.12303  1.0000
  N   N1        1.0  0.96186  0.16103  0.47560  1.0000
  N   N2        1.0  0.53814  0.83897  0.97560  1.0000
  N   N3        1.0  0.03814  0.83897  0.52440  1.0000
  N   N4        1.0  0.46186  0.16103  0.02440  1.0000
  O   O1        1.0  0.61116  0.05069  0.60923  1.0000
  O   O2        1.0  0.88884  0.94931  0.10923  1.0000
  O   O3        1.0  0.38884  0.94931  0.39077  1.0000
  O   O4        1.0  0.11116  0.05069  0.89077  1.0000
  O   O5        1.0  0.77798  0.21126  0.63145  1.0000
  O   O6        1.0  0.72202  0.78874  0.13145  1.0000
  O   O7        1.0  0.22202  0.78874  0.36855  1.0000
  O   O8        1.0  0.27798  0.21126  0.86855  1.0000
  O   O9        1.0  0.22038  0.36880  0.47018  1.0000
  O   O10       1.0  0.27962  0.63120  0.97018  1.0000
  O   O11       1.0  0.77962  0.63120  0.52982  1.0000
  O   O12       1.0  0.72038  0.36880  0.02982  1.0000
  O   O13       1.0  0.27955  0.27049  0.60328  1.0000
  O   O14       1.0  0.22045  0.72951  0.10328  1.0000
  O   O15       1.0  0.72044  0.72951  0.39672  1.0000
  O   O16       1.0  0.77956  0.27049  0.89672  1.0000
  O   O17       1.0  0.87891  0.40002  0.45565  1.0000
  O   O18       1.0  0.62109  0.59998  0.95564  1.0000
  O   O19       1.0  0.12109  0.59998  0.54436  1.0000
  O   O20       1.0  0.37891  0.40002  0.04435  1.0000
  O   O21       1.0  0.80932  0.51199  0.33324  1.0000
  O   O22       1.0  0.69068  0.48801  0.83325  1.0000
  O   O23       1.0  0.19068  0.48801  0.66675  1.0000
  O   O24       1.0  0.30932  0.51199  0.16676  1.0000
  O   O25       1.0  0.83071  0.46116  0.65804  1.0000
  O   O26       1.0  0.66929  0.53884  0.15804  1.0000
  O   O27       1.0  0.16929  0.53884  0.34196  1.0000
  O   O28       1.0  0.33071  0.46116  0.84196  1.0000
  O   O29       1.0  0.03137  0.27684  0.76234  1.0000
  O   O30       1.0  0.46863  0.72316  0.26234  1.0000
  O   O31       1.0  0.96863  0.72316  0.23766  1.0000
  O   O32       1.0  0.53138  0.27684  0.73766  1.0000
