data_image0
_chemical_formula_structural       Dy4H56C44N4O32
_chemical_formula_sum              "Dy4 H56 C44 N4 O32"
_cell_length_a       8.34391
_cell_length_b       11.9152
_cell_length_c       13.2553
_cell_angle_alpha    90
_cell_angle_beta     90
_cell_angle_gamma    96.4368

_space_group_name_H-M_alt    "P 1"
_space_group_IT_number       1

loop_
  _space_group_symop_operation_xyz
  'x, y, z'

loop_
  _atom_site_type_symbol
  _atom_site_label
  _atom_site_symmetry_multiplicity
  _atom_site_fract_x
  _atom_site_fract_y
  _atom_site_fract_z
  _atom_site_occupancy
  Dy  Dy1       1.0  0.00492  0.33527  0.59522  1.0000
  Dy  Dy2       1.0  0.49508  0.66473  0.09522  1.0000
  Dy  Dy3       1.0  0.99508  0.66473  0.40478  1.0000
  Dy  Dy4       1.0  0.50492  0.33528  0.90478  1.0000
  H   H1        1.0  0.80286  0.52153  0.61421  1.0000
  H   H2        1.0  0.69714  0.47847  0.11421  1.0000
  H   H3        1.0  0.19714  0.47847  0.38579  1.0000
  H   H4        1.0  0.30286  0.52153  0.88579  1.0000
  H   H5        1.0  0.77885  0.46792  0.72566  1.0000
  H   H6        1.0  0.72115  0.53208  0.22566  1.0000
  H   H7        1.0  0.22115  0.53208  0.27434  1.0000
  H   H8        1.0  0.27885  0.46792  0.77434  1.0000
  H   H9        1.0  0.93555  0.26410  0.80752  1.0000
  H   H10       1.0  0.56445  0.73590  0.30752  1.0000
  H   H11       1.0  0.06445  0.73590  0.19248  1.0000
  H   H12       1.0  0.43555  0.26410  0.69248  1.0000
  H   H13       1.0  0.12542  0.25447  0.79795  1.0000
  H   H14       1.0  0.37458  0.74553  0.29795  1.0000
  H   H15       1.0  0.87459  0.74553  0.20205  1.0000
  H   H16       1.0  0.62542  0.25447  0.70205  1.0000
  H   H17       1.0  0.15674  0.20082  0.37977  1.0000
  H   H18       1.0  0.34326  0.79918  0.87977  1.0000
  H   H19       1.0  0.84326  0.79918  0.62023  1.0000
  H   H20       1.0  0.65674  0.20082  0.12023  1.0000
  H   H21       1.0  0.06397  0.05163  0.25273  1.0000
  H   H22       1.0  0.43603  0.94837  0.75273  1.0000
  H   H23       1.0  0.93603  0.94836  0.74727  1.0000
  H   H24       1.0  0.56397  0.05163  0.24727  1.0000
  H   H25       1.0  0.81016  0.92614  0.28546  1.0000
  H   H26       1.0  0.68984  0.07386  0.78546  1.0000
  H   H27       1.0  0.18984  0.07386  0.71454  1.0000
  H   H28       1.0  0.31016  0.92614  0.21454  1.0000
  H   H29       1.0  0.65195  0.95878  0.44405  1.0000
  H   H30       1.0  0.84805  0.04122  0.94405  1.0000
  H   H31       1.0  0.34804  0.04122  0.55595  1.0000
  H   H32       1.0  0.15195  0.95878  0.05595  1.0000
  H   H33       1.0  0.52006  0.22792  0.50075  1.0000
  H   H34       1.0  0.97993  0.77208  0.00075  1.0000
  H   H35       1.0  0.47994  0.77208  0.49925  1.0000
  H   H36       1.0  0.02007  0.22792  0.99925  1.0000
  H   H37       1.0  0.56942  0.37193  0.52569  1.0000
  H   H38       1.0  0.93057  0.62807  0.02569  1.0000
  H   H39       1.0  0.43058  0.62807  0.47431  1.0000
  H   H40       1.0  0.06943  0.37193  0.97431  1.0000
  H   H41       1.0  0.47768  0.41750  0.34741  1.0000
  H   H42       1.0  0.02232  0.58250  0.84741  1.0000
  H   H43       1.0  0.52233  0.58250  0.65259  1.0000
  H   H44       1.0  0.97768  0.41750  0.15259  1.0000
  H   H45       1.0  0.42868  0.27143  0.32560  1.0000
  H   H46       1.0  0.07132  0.72857  0.82560  1.0000
  H   H47       1.0  0.57132  0.72857  0.67440  1.0000
  H   H48       1.0  0.92868  0.27143  0.17440  1.0000
  H   H49       1.0  0.71900  0.24029  0.35524  1.0000
  H   H50       1.0  0.78100  0.75971  0.85524  1.0000
  H   H51       1.0  0.28100  0.75971  0.64476  1.0000
  H   H52       1.0  0.21900  0.24029  0.14476  1.0000
  H   H53       1.0  0.68817  0.32933  0.25046  1.0000
  H   H54       1.0  0.81183  0.67067  0.75045  1.0000
  H   H55       1.0  0.31183  0.67067  0.74955  1.0000
  H   H56       1.0  0.18817  0.32933  0.24954  1.0000
  C   C1        1.0  0.04568  0.14519  0.39137  1.0000
  C   C2        1.0  0.45432  0.85481  0.89137  1.0000
  C   C3        1.0  0.95432  0.85481  0.60863  1.0000
  C   C4        1.0  0.54568  0.14519  0.10863  1.0000
  C   C5        1.0  0.99441  0.06200  0.32092  1.0000
  C   C6        1.0  0.50559  0.93800  0.82092  1.0000
  C   C7        1.0  0.00559  0.93800  0.67908  1.0000
  C   C8        1.0  0.49441  0.06200  0.17908  1.0000
  C   C9        1.0  0.85192  0.99208  0.33907  1.0000
  C   C10       1.0  0.64808  0.00792  0.83907  1.0000
  C   C11       1.0  0.14808  0.00792  0.66093  1.0000
  C   C12       1.0  0.35192  0.99208  0.16093  1.0000
  C   C13       1.0  0.76577  0.00870  0.42667  1.0000
  C   C14       1.0  0.73423  0.99131  0.92667  1.0000
  C   C15       1.0  0.23423  0.99131  0.57333  1.0000
  C   C16       1.0  0.26577  0.00870  0.07333  1.0000
  C   C17       1.0  0.82430  0.09501  0.49246  1.0000
  C   C18       1.0  0.67570  0.90499  0.99246  1.0000
  C   C19       1.0  0.17570  0.90499  0.50754  1.0000
  C   C20       1.0  0.32430  0.09501  0.00754  1.0000
  C   C21       1.0  0.72814  0.11893  0.58473  1.0000
  C   C22       1.0  0.77186  0.88107  0.08473  1.0000
  C   C23       1.0  0.27186  0.88107  0.41527  1.0000
  C   C24       1.0  0.22814  0.11893  0.91527  1.0000
  C   C25       1.0  0.31956  0.31864  0.52027  1.0000
  C   C26       1.0  0.18044  0.68136  0.02027  1.0000
  C   C27       1.0  0.68044  0.68136  0.47973  1.0000
  C   C28       1.0  0.81956  0.31864  0.97973  1.0000
  C   C29       1.0  0.48761  0.31201  0.48094  1.0000
  C   C30       1.0  0.01239  0.68799  0.98094  1.0000
  C   C31       1.0  0.51239  0.68799  0.51906  1.0000
  C   C32       1.0  0.98761  0.31201  0.01906  1.0000
  C   C33       1.0  0.50991  0.33350  0.36802  1.0000
  C   C34       1.0  0.99010  0.66650  0.86802  1.0000
  C   C35       1.0  0.49010  0.66650  0.63198  1.0000
  C   C36       1.0  0.00991  0.33350  0.13198  1.0000
  C   C37       1.0  0.68340  0.32272  0.33302  1.0000
  C   C38       1.0  0.81660  0.67728  0.83302  1.0000
  C   C39       1.0  0.31660  0.67728  0.66698  1.0000
  C   C40       1.0  0.18340  0.32272  0.16698  1.0000
  C   C41       1.0  0.80063  0.41586  0.37743  1.0000
  C   C42       1.0  0.69936  0.58414  0.87742  1.0000
  C   C43       1.0  0.19937  0.58414  0.62257  1.0000
  C   C44       1.0  0.30063  0.41586  0.12257  1.0000
  N   N1        1.0  0.96258  0.16307  0.47575  1.0000
  N   N2        1.0  0.53742  0.83693  0.97575  1.0000
  N   N3        1.0  0.03742  0.83693  0.52425  1.0000
  N   N4        1.0  0.46258  0.16307  0.02425  1.0000
  O   O1        1.0  0.60908  0.05261  0.60929  1.0000
  O   O2        1.0  0.89091  0.94739  0.10929  1.0000
  O   O3        1.0  0.39092  0.94740  0.39071  1.0000
  O   O4        1.0  0.10908  0.05261  0.89071  1.0000
  O   O5        1.0  0.77698  0.21296  0.63138  1.0000
  O   O6        1.0  0.72302  0.78704  0.13138  1.0000
  O   O7        1.0  0.22302  0.78704  0.36863  1.0000
  O   O8        1.0  0.27698  0.21296  0.86863  1.0000
  O   O9        1.0  0.21817  0.37065  0.47100  1.0000
  O   O10       1.0  0.28183  0.62934  0.97100  1.0000
  O   O11       1.0  0.78183  0.62934  0.52900  1.0000
  O   O12       1.0  0.71817  0.37066  0.02900  1.0000
  O   O13       1.0  0.27605  0.27088  0.60389  1.0000
  O   O14       1.0  0.22395  0.72912  0.10389  1.0000
  O   O15       1.0  0.72395  0.72912  0.39611  1.0000
  O   O16       1.0  0.77605  0.27088  0.89611  1.0000
  O   O17       1.0  0.87865  0.39837  0.45675  1.0000
  O   O18       1.0  0.62135  0.60163  0.95675  1.0000
  O   O19       1.0  0.12135  0.60163  0.54325  1.0000
  O   O20       1.0  0.37865  0.39837  0.04325  1.0000
  O   O21       1.0  0.81306  0.51260  0.33435  1.0000
  O   O22       1.0  0.68694  0.48740  0.83435  1.0000
  O   O23       1.0  0.18694  0.48740  0.66565  1.0000
  O   O24       1.0  0.31306  0.51260  0.16565  1.0000
  O   O25       1.0  0.82986  0.45902  0.65808  1.0000
  O   O26       1.0  0.67015  0.54098  0.15808  1.0000
  O   O27       1.0  0.17014  0.54098  0.34192  1.0000
  O   O28       1.0  0.32985  0.45902  0.84192  1.0000
  O   O29       1.0  0.02946  0.27839  0.76149  1.0000
  O   O30       1.0  0.47054  0.72161  0.26149  1.0000
  O   O31       1.0  0.97054  0.72161  0.23851  1.0000
  O   O32       1.0  0.52946  0.27839  0.73851  1.0000
