data_image0
_chemical_formula_structural       V2H8C12N2Cl8
_chemical_formula_sum              "V2 H8 C12 N2 Cl8"
_cell_length_a       5.84297
_cell_length_b       9.66308
_cell_length_c       10.0734
_cell_angle_alpha    116.224
_cell_angle_beta     94.2516
_cell_angle_gamma    105.84

_space_group_name_H-M_alt    "P 1"
_space_group_IT_number       1

loop_
  _space_group_symop_operation_xyz
  'x, y, z'

loop_
  _atom_site_type_symbol
  _atom_site_label
  _atom_site_symmetry_multiplicity
  _atom_site_fract_x
  _atom_site_fract_y
  _atom_site_fract_z
  _atom_site_occupancy
  V   V1        1.0  0.29220  0.11302  0.47122  1.0000
  V   V2        1.0  0.70779  0.88698  0.52877  1.0000
  H   H1        1.0  0.87921  0.33083  0.44713  1.0000
  H   H2        1.0  0.12079  0.66918  0.55287  1.0000
  H   H3        1.0  0.67228  0.42978  0.29894  1.0000
  H   H4        1.0  0.32772  0.57023  0.70106  1.0000
  H   H5        1.0  0.03938  0.23354  0.93924  1.0000
  H   H6        1.0  0.96063  0.76646  0.06076  1.0000
  H   H7        1.0  0.24733  0.13440  0.08726  1.0000
  H   H8        1.0  0.75267  0.86561  0.91275  1.0000
  C   C1        1.0  0.07303  0.22434  0.27523  1.0000
  C   C2        1.0  0.92698  0.77565  0.72477  1.0000
  C   C3        1.0  0.91212  0.30967  0.33588  1.0000
  C   C4        1.0  0.08788  0.69033  0.66412  1.0000
  C   C5        1.0  0.79659  0.36394  0.25325  1.0000
  C   C6        1.0  0.20341  0.63607  0.74675  1.0000
  C   C7        1.0  0.84131  0.33406  0.11000  1.0000
  C   C8        1.0  0.15871  0.66593  0.89000  1.0000
  C   C9        1.0  0.00430  0.25279  0.04962  1.0000
  C   C10       1.0  0.99569  0.74721  0.95037  1.0000
  C   C11       1.0  0.12056  0.19816  0.13197  1.0000
  C   C12       1.0  0.87944  0.80184  0.86803  1.0000
  N   N1        1.0  0.17733  0.16715  0.35572  1.0000
  N   N2        1.0  0.82267  0.83284  0.64429  1.0000
  Cl  Cl1       1.0  0.56645  0.35478  0.63237  1.0000
  Cl  Cl2       1.0  0.43355  0.64522  0.36763  1.0000
  Cl  Cl3       1.0  0.02011  0.16188  0.63955  1.0000
  Cl  Cl4       1.0  0.97990  0.83812  0.36045  1.0000
  Cl  Cl5       1.0  0.46799  0.01325  0.66530  1.0000
  Cl  Cl6       1.0  0.53201  0.98675  0.33470  1.0000
  Cl  Cl7       1.0  0.69305  0.39904  0.00704  1.0000
  Cl  Cl8       1.0  0.30695  0.60096  0.99295  1.0000
