data_image0
_chemical_formula_structural       Ho2H12C18O14
_chemical_formula_sum              "Ho2 H12 C18 O14"
_cell_length_a       7.03086
_cell_length_b       7.56566
_cell_length_c       10.1912
_cell_angle_alpha    75.6935
_cell_angle_beta     71.7062
_cell_angle_gamma    88.284

_space_group_name_H-M_alt    "P 1"
_space_group_IT_number       1

loop_
  _space_group_symop_operation_xyz
  'x, y, z'

loop_
  _atom_site_type_symbol
  _atom_site_label
  _atom_site_symmetry_multiplicity
  _atom_site_fract_x
  _atom_site_fract_y
  _atom_site_fract_z
  _atom_site_occupancy
  Ho  Ho1       1.0  0.81191  0.21553  0.01651  1.0000
  Ho  Ho2       1.0  0.18809  0.78447  0.98349  1.0000
  H   H1        1.0  0.72188  0.84014  0.16837  1.0000
  H   H2        1.0  0.27812  0.15985  0.83164  1.0000
  H   H3        1.0  0.50275  0.91301  0.16835  1.0000
  H   H4        1.0  0.49725  0.08698  0.83165  1.0000
  H   H5        1.0  0.44177  0.30521  0.34993  1.0000
  H   H6        1.0  0.55823  0.69479  0.65007  1.0000
  H   H7        1.0  0.80779  0.70394  0.41289  1.0000
  H   H8        1.0  0.19221  0.29606  0.58711  1.0000
  H   H9        1.0  0.33170  0.87734  0.40017  1.0000
  H   H10       1.0  0.66830  0.12265  0.59983  1.0000
  H   H11       1.0  0.78160  0.10218  0.34875  1.0000
  H   H12       1.0  0.21840  0.89782  0.65125  1.0000
  C   C1        1.0  0.46749  0.38910  0.41634  1.0000
  C   C2        1.0  0.53251  0.61090  0.58366  1.0000
  C   C3        1.0  0.78798  0.51607  0.22250  1.0000
  C   C4        1.0  0.21202  0.48393  0.77750  1.0000
  C   C5        1.0  0.41865  0.43250  0.05965  1.0000
  C   C6        1.0  0.58137  0.56750  0.94035  1.0000
  C   C7        1.0  0.64037  0.50565  0.36674  1.0000
  C   C8        1.0  0.35962  0.49435  0.63326  1.0000
  C   C9        1.0  0.67202  0.61578  0.45111  1.0000
  C   C10       1.0  0.32798  0.38422  0.54889  1.0000
  C   C11       1.0  0.06452  0.99010  0.35725  1.0000
  C   C12       1.0  0.93548  0.00990  0.64275  1.0000
  C   C13       1.0  0.12700  0.96705  0.20913  1.0000
  C   C14       1.0  0.87300  0.03295  0.79088  1.0000
  C   C15       1.0  0.18661  0.93127  0.44368  1.0000
  C   C16       1.0  0.81339  0.06873  0.55632  1.0000
  C   C17       1.0  0.87723  0.05815  0.41501  1.0000
  C   C18       1.0  0.12277  0.94186  0.58499  1.0000
  O   O1        1.0  0.63944  0.94956  0.16486  1.0000
  O   O2        1.0  0.36056  0.05043  0.83514  1.0000
  O   O3        1.0  0.47087  0.27109  0.09898  1.0000
  O   O4        1.0  0.52914  0.72892  0.90101  1.0000
  O   O5        1.0  0.80853  0.37643  0.17363  1.0000
  O   O6        1.0  0.19147  0.62357  0.82637  1.0000
  O   O7        1.0  0.88306  0.67050  0.15393  1.0000
  O   O8        1.0  0.11694  0.32950  0.84607  1.0000
  O   O9        1.0  0.24917  0.49449  0.10727  1.0000
  O   O10       1.0  0.75083  0.50551  0.89272  1.0000
  O   O11       1.0  0.03225  0.03782  0.12195  1.0000
  O   O12       1.0  0.96775  0.96217  0.87806  1.0000
  O   O13       1.0  0.26915  0.86108  0.17170  1.0000
  O   O14       1.0  0.73085  0.13891  0.82830  1.0000
