data_image0
_chemical_formula_structural       K4Zn4P4H16C32O28
_chemical_formula_sum              "K4 Zn4 P4 H16 C32 O28"
_cell_length_a       5.03345
_cell_length_b       9.42863
_cell_length_c       25.0132
_cell_angle_alpha    90
_cell_angle_beta     90
_cell_angle_gamma    104.637

_space_group_name_H-M_alt    "P 1"
_space_group_IT_number       1

loop_
  _space_group_symop_operation_xyz
  'x, y, z'

loop_
  _atom_site_type_symbol
  _atom_site_label
  _atom_site_symmetry_multiplicity
  _atom_site_fract_x
  _atom_site_fract_y
  _atom_site_fract_z
  _atom_site_occupancy
  K   K1        1.0  0.29122  0.09631  0.61043  1.0000
  K   K2        1.0  0.70878  0.40369  0.11043  1.0000
  K   K3        1.0  0.70878  0.90369  0.38957  1.0000
  K   K4        1.0  0.29121  0.59631  0.88957  1.0000
  Zn  Zn1       1.0  0.78430  0.18222  0.51823  1.0000
  Zn  Zn2       1.0  0.21570  0.31778  0.01823  1.0000
  Zn  Zn3       1.0  0.21570  0.81778  0.48177  1.0000
  Zn  Zn4       1.0  0.78430  0.68222  0.98177  1.0000
  P   P1        1.0  0.25785  0.14047  0.44903  1.0000
  P   P2        1.0  0.74215  0.35953  0.94903  1.0000
  P   P3        1.0  0.74215  0.85953  0.55097  1.0000
  P   P4        1.0  0.25785  0.64047  0.05097  1.0000
  H   H1        1.0  0.29297  0.17650  0.19497  1.0000
  H   H2        1.0  0.70702  0.32350  0.69497  1.0000
  H   H3        1.0  0.70703  0.82350  0.80503  1.0000
  H   H4        1.0  0.29297  0.67650  0.30503  1.0000
  H   H5        1.0  0.25579  0.13596  0.33024  1.0000
  H   H6        1.0  0.74422  0.36403  0.83024  1.0000
  H   H7        1.0  0.74422  0.86403  0.66976  1.0000
  H   H8        1.0  0.25578  0.63597  0.16976  1.0000
  H   H9        1.0  0.90774  0.51222  0.29246  1.0000
  H   H10       1.0  0.09226  0.98778  0.79246  1.0000
  H   H11       1.0  0.09226  0.48778  0.70754  1.0000
  H   H12       1.0  0.90774  0.01221  0.20754  1.0000
  H   H13       1.0  0.67696  0.41738  0.45694  1.0000
  H   H14       1.0  0.32304  0.08262  0.95694  1.0000
  H   H15       1.0  0.32304  0.58262  0.54306  1.0000
  H   H16       1.0  0.67696  0.91738  0.04306  1.0000
  C   C1        1.0  0.44862  0.26342  0.39884  1.0000
  C   C2        1.0  0.55139  0.23658  0.89884  1.0000
  C   C3        1.0  0.55139  0.73658  0.60116  1.0000
  C   C4        1.0  0.44861  0.76342  0.10116  1.0000
  C   C5        1.0  0.40991  0.23203  0.34420  1.0000
  C   C6        1.0  0.59009  0.26797  0.84420  1.0000
  C   C7        1.0  0.59009  0.76797  0.65580  1.0000
  C   C8        1.0  0.40991  0.73203  0.15580  1.0000
  C   C9        1.0  0.57326  0.32384  0.30633  1.0000
  C   C10       1.0  0.42674  0.17616  0.80633  1.0000
  C   C11       1.0  0.42674  0.67616  0.69367  1.0000
  C   C12       1.0  0.57326  0.82384  0.19367  1.0000
  C   C13       1.0  0.78090  0.44487  0.32289  1.0000
  C   C14       1.0  0.21910  0.05512  0.82289  1.0000
  C   C15       1.0  0.21910  0.55512  0.67711  1.0000
  C   C16       1.0  0.78090  0.94488  0.17711  1.0000
  C   C17       1.0  0.81825  0.47780  0.37722  1.0000
  C   C18       1.0  0.18174  0.02220  0.87722  1.0000
  C   C19       1.0  0.18175  0.52220  0.62278  1.0000
  C   C20       1.0  0.81825  0.97780  0.12278  1.0000
  C   C21       1.0  0.64759  0.38843  0.41481  1.0000
  C   C22       1.0  0.35241  0.11157  0.91481  1.0000
  C   C23       1.0  0.35242  0.61157  0.58519  1.0000
  C   C24       1.0  0.64758  0.88843  0.08519  1.0000
  C   C25       1.0  0.53318  0.29688  0.24781  1.0000
  C   C26       1.0  0.46682  0.20312  0.74781  1.0000
  C   C27       1.0  0.46683  0.70312  0.75219  1.0000
  C   C28       1.0  0.53317  0.79688  0.25219  1.0000
  C   C29       1.0  0.03667  0.60678  0.39693  1.0000
  C   C30       1.0  0.96333  0.89322  0.89693  1.0000
  C   C31       1.0  0.96332  0.39323  0.60307  1.0000
  C   C32       1.0  0.03668  0.10677  0.10307  1.0000
  O   O1        1.0  0.40024  0.18035  0.50346  1.0000
  O   O2        1.0  0.59976  0.31965  0.00346  1.0000
  O   O3        1.0  0.59976  0.81965  0.49654  1.0000
  O   O4        1.0  0.40024  0.68035  0.99654  1.0000
  O   O5        1.0  0.96099  0.15704  0.45065  1.0000
  O   O6        1.0  0.03901  0.34296  0.95065  1.0000
  O   O7        1.0  0.03901  0.84296  0.54935  1.0000
  O   O8        1.0  0.96099  0.65704  0.04935  1.0000
  O   O9        1.0  0.25679  0.98381  0.42991  1.0000
  O   O10       1.0  0.74321  0.51619  0.92991  1.0000
  O   O11       1.0  0.74321  0.01619  0.57009  1.0000
  O   O12       1.0  0.25679  0.48381  0.07009  1.0000
  O   O13       1.0  0.32396  0.18368  0.23552  1.0000
  O   O14       1.0  0.67604  0.31632  0.73552  1.0000
  O   O15       1.0  0.67604  0.81632  0.76448  1.0000
  O   O16       1.0  0.32396  0.68368  0.26448  1.0000
  O   O17       1.0  0.68172  0.37489  0.21420  1.0000
  O   O18       1.0  0.31827  0.12511  0.71420  1.0000
  O   O19       1.0  0.31828  0.62511  0.78580  1.0000
  O   O20       1.0  0.68172  0.87489  0.28580  1.0000
  O   O21       1.0  0.22803  0.67590  0.36689  1.0000
  O   O22       1.0  0.77196  0.82410  0.86689  1.0000
  O   O23       1.0  0.77196  0.32410  0.63311  1.0000
  O   O24       1.0  0.22804  0.17590  0.13311  1.0000
  O   O25       1.0  0.00860  0.64076  0.44612  1.0000
  O   O26       1.0  0.99140  0.85924  0.94612  1.0000
  O   O27       1.0  0.99140  0.35924  0.55388  1.0000
  O   O28       1.0  0.00860  0.14076  0.05388  1.0000
