data_image0
_chemical_formula_structural       Nd2H42C54O12
_chemical_formula_sum              "Nd2 H42 C54 O12"
_cell_length_a       7.73108
_cell_length_b       13.306
_cell_length_c       13.3389
_cell_angle_alpha    116.338
_cell_angle_beta     101.43
_cell_angle_gamma    101.022

_space_group_name_H-M_alt    "P 1"
_space_group_IT_number       1

loop_
  _space_group_symop_operation_xyz
  'x, y, z'

loop_
  _atom_site_type_symbol
  _atom_site_label
  _atom_site_symmetry_multiplicity
  _atom_site_fract_x
  _atom_site_fract_y
  _atom_site_fract_z
  _atom_site_occupancy
  Nd  Nd1       1.0  0.00311  0.00003  0.00038  1.0000
  Nd  Nd2       1.0  0.50306  0.99999  0.00034  1.0000
  H   H1        1.0  0.43351  0.64903  0.82451  1.0000
  H   H2        1.0  0.78513  0.17517  0.35027  1.0000
  H   H3        1.0  0.60833  0.17531  0.82423  1.0000
  H   H4        1.0  0.11006  0.82513  0.17551  1.0000
  H   H5        1.0  0.93319  0.82461  0.64869  1.0000
  H   H6        1.0  0.28422  0.35070  0.17556  1.0000
  H   H7        1.0  0.76228  0.61550  0.96594  1.0000
  H   H8        1.0  0.14609  0.35054  0.38473  1.0000
  H   H9        1.0  0.79579  0.03416  0.65072  1.0000
  H   H10       1.0  0.29540  0.64973  0.03436  1.0000
  H   H11       1.0  0.26187  0.96577  0.61639  1.0000
  H   H12       1.0  0.64682  0.38450  0.35044  1.0000
  H   H13       1.0  0.27040  0.45678  0.74164  1.0000
  H   H14       1.0  0.81410  0.28467  0.54242  1.0000
  H   H15       1.0  0.52854  0.25812  0.71475  1.0000
  H   H16       1.0  0.02902  0.71523  0.25779  1.0000
  H   H17       1.0  0.77056  0.74196  0.45660  1.0000
  H   H18       1.0  0.31366  0.54308  0.28471  1.0000
  H   H19       1.0  0.07111  0.26768  0.70555  1.0000
  H   H20       1.0  0.80442  0.43757  0.73156  1.0000
  H   H21       1.0  0.36533  0.29437  0.56144  1.0000
  H   H22       1.0  0.86655  0.56215  0.29384  1.0000
  H   H23       1.0  0.57097  0.70577  0.26712  1.0000
  H   H24       1.0  0.30337  0.73223  0.43760  1.0000
  H   H25       1.0  0.17835  0.17705  0.82506  1.0000
  H   H26       1.0  0.00156  0.64776  0.82273  1.0000
  H   H27       1.0  0.35298  0.17519  0.35177  1.0000
  H   H28       1.0  0.85376  0.35203  0.17466  1.0000
  H   H29       1.0  0.67769  0.82487  0.17654  1.0000
  H   H30       1.0  0.50104  0.82294  0.64778  1.0000
  H   H31       1.0  0.49060  0.27794  0.97937  1.0000
  H   H32       1.0  0.21162  0.70140  0.72237  1.0000
  H   H33       1.0  0.51096  0.02119  0.29918  1.0000
  H   H34       1.0  0.01048  0.29870  0.02080  1.0000
  H   H35       1.0  0.98971  0.97882  0.27784  1.0000
  H   H36       1.0  0.71236  0.72211  0.70138  1.0000
  H   H37       1.0  0.69251  0.46670  0.01472  1.0000
  H   H38       1.0  0.22463  0.54812  0.53375  1.0000
  H   H39       1.0  0.67758  0.98571  0.45287  1.0000
  H   H40       1.0  0.17674  0.45219  0.98572  1.0000
  H   H41       1.0  0.19206  0.01420  0.46693  1.0000
  H   H42       1.0  0.72555  0.53332  0.54811  1.0000
  C   C1        1.0  0.71178  0.77827  0.91501  1.0000
  C   C2        1.0  0.93403  0.13680  0.22163  1.0000
  C   C3        1.0  0.79586  0.08469  0.86362  1.0000
  C   C4        1.0  0.29705  0.86341  0.08505  1.0000
  C   C5        1.0  0.21127  0.91522  0.77878  1.0000
  C   C6        1.0  0.43350  0.22160  0.13674  1.0000
  C   C7        1.0  0.57407  0.66507  0.87600  1.0000
  C   C8        1.0  0.90926  0.21085  0.33456  1.0000
  C   C9        1.0  0.69724  0.12377  0.78922  1.0000
  C   C10       1.0  0.19842  0.78944  0.12406  1.0000
  C   C11       1.0  0.07363  0.87613  0.66525  1.0000
  C   C12       1.0  0.40883  0.33473  0.21099  1.0000
  C   C13       1.0  0.61948  0.58879  0.90920  1.0000
  C   C14       1.0  0.03038  0.32042  0.41114  1.0000
  C   C15       1.0  0.70966  0.09080  0.68018  1.0000
  C   C16       1.0  0.20984  0.67983  0.09093  1.0000
  C   C17       1.0  0.11910  0.90914  0.58920  1.0000
  C   C18       1.0  0.53059  0.41111  0.32042  1.0000
  C   C19       1.0  0.49592  0.47622  0.88192  1.0000
  C   C20       1.0  0.01939  0.40562  0.52359  1.0000
  C   C21       1.0  0.61376  0.11818  0.59462  1.0000
  C   C22       1.0  0.11365  0.59452  0.11806  1.0000
  C   C23       1.0  0.99580  0.88179  0.47629  1.0000
  C   C24       1.0  0.51960  0.52370  0.40567  1.0000
  C   C25       1.0  0.31910  0.41837  0.79448  1.0000
  C   C26       1.0  0.90094  0.37596  0.58107  1.0000
  C   C27       1.0  0.52444  0.20550  0.62372  1.0000
  C   C28       1.0  0.02479  0.62400  0.20516  1.0000
  C   C29       1.0  0.81906  0.79457  0.41817  1.0000
  C   C30       1.0  0.40065  0.58151  0.37598  1.0000
  C   C31       1.0  0.20689  0.31142  0.77393  1.0000
  C   C32       1.0  0.89593  0.46223  0.68803  1.0000
  C   C33       1.0  0.43280  0.22614  0.53719  1.0000
  C   C34       1.0  0.93351  0.53759  0.22569  1.0000
  C   C35       1.0  0.70671  0.77396  0.31104  1.0000
  C   C36       1.0  0.39534  0.68848  0.46229  1.0000
  C   C37       1.0  0.26708  0.26024  0.84051  1.0000
  C   C38       1.0  0.00695  0.58007  0.73959  1.0000
  C   C39       1.0  0.42637  0.15977  0.41967  1.0000
  C   C40       1.0  0.92686  0.41982  0.15931  1.0000
  C   C41       1.0  0.76659  0.84032  0.25986  1.0000
  C   C42       1.0  0.50661  0.73974  0.58009  1.0000
  C   C43       1.0  0.44201  0.31696  0.92735  1.0000
  C   C44       1.0  0.12438  0.61031  0.68314  1.0000
  C   C45       1.0  0.51450  0.07306  0.39004  1.0000
  C   C46       1.0  0.01424  0.38975  0.07271  1.0000
  C   C47       1.0  0.94146  0.92696  0.31686  1.0000
  C   C48       1.0  0.62479  0.68306  0.61033  1.0000
  C   C49       1.0  0.55586  0.42308  0.94719  1.0000
  C   C50       1.0  0.13203  0.52413  0.57709  1.0000
  C   C51       1.0  0.60854  0.05319  0.47649  1.0000
  C   C52       1.0  0.10801  0.47607  0.05299  1.0000
  C   C53       1.0  0.05550  0.94678  0.42314  1.0000
  C   C54       1.0  0.63257  0.57693  0.52411  1.0000
  O   O1        1.0  0.88350  0.80027  0.96582  1.0000
  O   O2        1.0  0.08297  0.16608  0.19973  1.0000
  O   O3        1.0  0.91600  0.03343  0.83483  1.0000
  O   O4        1.0  0.41666  0.83411  0.03384  1.0000
  O   O5        1.0  0.38267  0.96653  0.80134  1.0000
  O   O6        1.0  0.58322  0.19961  0.16561  1.0000
  O   O7        1.0  0.65878  0.85734  0.89621  1.0000
  O   O8        1.0  0.80280  0.03844  0.14266  1.0000
  O   O9        1.0  0.76283  0.10388  0.96150  1.0000
  O   O10       1.0  0.26403  0.96169  0.10427  1.0000
  O   O11       1.0  0.15890  0.89595  0.85738  1.0000
  O   O12       1.0  0.30155  0.14258  0.03878  1.0000
