data_image0
_chemical_formula_structural       Dy2H42C54O12
_chemical_formula_sum              "Dy2 H42 C54 O12"
_cell_length_a       7.89309
_cell_length_b       11.2898
_cell_length_c       12.98
_cell_angle_alpha    93.654
_cell_angle_beta     90
_cell_angle_gamma    90

_space_group_name_H-M_alt    "P 1"
_space_group_IT_number       1

loop_
  _space_group_symop_operation_xyz
  'x, y, z'

loop_
  _atom_site_type_symbol
  _atom_site_label
  _atom_site_symmetry_multiplicity
  _atom_site_fract_x
  _atom_site_fract_y
  _atom_site_fract_z
  _atom_site_occupancy
  Dy  Dy1       1.0  0.49526  0.54175  0.47342  1.0000
  Dy  Dy2       1.0  0.99526  0.45825  0.52658  1.0000
  H   H1        1.0  0.32202  0.12101  0.60681  1.0000
  H   H2        1.0  0.82202  0.87900  0.39319  1.0000
  H   H3        1.0  0.65701  0.26159  0.60245  1.0000
  H   H4        1.0  0.15701  0.73841  0.39755  1.0000
  H   H5        1.0  0.45588  0.95339  0.59754  1.0000
  H   H6        1.0  0.95588  0.04661  0.40246  1.0000
  H   H7        1.0  0.61779  0.77339  0.63010  1.0000
  H   H8        1.0  0.11779  0.22661  0.36990  1.0000
  H   H9        1.0  0.92539  0.78533  0.66894  1.0000
  H   H10       1.0  0.42539  0.21468  0.33106  1.0000
  H   H11       1.0  0.07384  0.98073  0.67135  1.0000
  H   H12       1.0  0.57384  0.01928  0.32865  1.0000
  H   H13       1.0  0.91122  0.16342  0.63731  1.0000
  H   H14       1.0  0.41122  0.83658  0.36268  1.0000
  H   H15       1.0  0.85581  0.18351  0.26109  1.0000
  H   H16       1.0  0.35581  0.81649  0.73891  1.0000
  H   H17       1.0  0.56033  0.33133  0.18187  1.0000
  H   H18       1.0  0.06032  0.66867  0.81813  1.0000
  H   H19       1.0  0.80511  0.04184  0.13963  1.0000
  H   H20       1.0  0.30511  0.95816  0.86037  1.0000
  H   H21       1.0  0.81658  0.92543  0.97261  1.0000
  H   H22       1.0  0.31658  0.07457  0.02739  1.0000
  H   H23       1.0  0.67849  0.00087  0.81734  1.0000
  H   H24       1.0  0.17848  0.99913  0.18266  1.0000
  H   H25       1.0  0.52561  0.19485  0.83080  1.0000
  H   H26       1.0  0.02560  0.80515  0.16920  1.0000
  H   H27       1.0  0.51261  0.31200  0.99899  1.0000
  H   H28       1.0  0.01260  0.68800  0.00101  1.0000
  H   H29       1.0  0.08670  0.37628  0.24012  1.0000
  H   H30       1.0  0.58670  0.62372  0.75988  1.0000
  H   H31       1.0  0.32044  0.55017  0.13337  1.0000
  H   H32       1.0  0.82044  0.44982  0.86663  1.0000
  H   H33       1.0  0.05141  0.26861  0.09610  1.0000
  H   H34       1.0  0.55142  0.73139  0.90389  1.0000
  H   H35       1.0  0.99019  0.17135  0.92458  1.0000
  H   H36       1.0  0.49019  0.82865  0.07542  1.0000
  H   H37       1.0  0.09315  0.26135  0.76515  1.0000
  H   H38       1.0  0.59315  0.73864  0.23485  1.0000
  H   H39       1.0  0.25907  0.44818  0.77902  1.0000
  H   H40       1.0  0.75907  0.55182  0.22099  1.0000
  H   H41       1.0  0.32021  0.54720  0.95208  1.0000
  H   H42       1.0  0.82021  0.45280  0.04792  1.0000
  C   C1        1.0  0.33120  0.31105  0.58926  1.0000
  C   C2        1.0  0.83120  0.68895  0.41073  1.0000
  C   C3        1.0  0.40977  0.19510  0.60245  1.0000
  C   C4        1.0  0.90977  0.80491  0.39755  1.0000
  C   C5        1.0  0.57964  0.18182  0.60642  1.0000
  C   C6        1.0  0.07964  0.81819  0.39357  1.0000
  C   C7        1.0  0.67137  0.07207  0.61859  1.0000
  C   C8        1.0  0.17137  0.92792  0.38141  1.0000
  C   C9        1.0  0.59049  0.96057  0.61578  1.0000
  C   C10       1.0  0.09050  0.03943  0.38422  1.0000
  C   C11       1.0  0.68172  0.85890  0.63420  1.0000
  C   C12       1.0  0.18173  0.14111  0.36580  1.0000
  C   C13       1.0  0.85542  0.86588  0.65519  1.0000
  C   C14       1.0  0.35542  0.13413  0.34481  1.0000
  C   C15       1.0  0.93811  0.97533  0.65592  1.0000
  C   C16       1.0  0.43811  0.02467  0.34408  1.0000
  C   C17       1.0  0.84731  0.07767  0.63714  1.0000
  C   C18       1.0  0.34731  0.92232  0.36286  1.0000
  C   C19       1.0  0.73809  0.32807  0.35467  1.0000
  C   C20       1.0  0.23809  0.67193  0.64533  1.0000
  C   C21       1.0  0.75429  0.24902  0.26064  1.0000
  C   C22       1.0  0.25429  0.75098  0.73936  1.0000
  C   C23       1.0  0.65378  0.25958  0.17736  1.0000
  C   C24       1.0  0.15378  0.74042  0.82263  1.0000
  C   C25       1.0  0.66024  0.18666  0.08093  1.0000
  C   C26       1.0  0.16024  0.81334  0.91907  1.0000
  C   C27       1.0  0.74490  0.07649  0.07213  1.0000
  C   C28       1.0  0.24490  0.92351  0.92787  1.0000
  C   C29       1.0  0.75066  0.01040  0.97807  1.0000
  C   C30       1.0  0.25066  0.98960  0.02193  1.0000
  C   C31       1.0  0.67231  0.05275  0.89093  1.0000
  C   C32       1.0  0.17231  0.94725  0.10907  1.0000
  C   C33       1.0  0.58682  0.16140  0.89846  1.0000
  C   C34       1.0  0.08682  0.83860  0.10155  1.0000
  C   C35       1.0  0.57976  0.22735  0.99286  1.0000
  C   C36       1.0  0.07975  0.77265  0.00714  1.0000
  C   C37       1.0  0.25096  0.50467  0.32284  1.0000
  C   C38       1.0  0.75096  0.49533  0.67716  1.0000
  C   C39       1.0  0.17676  0.44764  0.22935  1.0000
  C   C40       1.0  0.67676  0.55235  0.77066  1.0000
  C   C41       1.0  0.23101  0.47620  0.13520  1.0000
  C   C42       1.0  0.73101  0.52379  0.86480  1.0000
  C   C43       1.0  0.18813  0.41644  0.03618  1.0000
  C   C44       1.0  0.68813  0.58355  0.96382  1.0000
  C   C45       1.0  0.09553  0.30939  0.02702  1.0000
  C   C46       1.0  0.59554  0.69061  0.97298  1.0000
  C   C47       1.0  0.06191  0.25400  0.93039  1.0000
  C   C48       1.0  0.56191  0.74600  0.06960  1.0000
  C   C49       1.0  0.12079  0.30366  0.84099  1.0000
  C   C50       1.0  0.62079  0.69633  0.15901  1.0000
  C   C51       1.0  0.21369  0.40928  0.84864  1.0000
  C   C52       1.0  0.71369  0.59071  0.15136  1.0000
  C   C53       1.0  0.24717  0.46500  0.94537  1.0000
  C   C54       1.0  0.74717  0.53499  0.05463  1.0000
  O   O1        1.0  0.42528  0.40288  0.58304  1.0000
  O   O2        1.0  0.92528  0.59712  0.41697  1.0000
  O   O3        1.0  0.16929  0.31549  0.58504  1.0000
  O   O4        1.0  0.66929  0.68452  0.41496  1.0000
  O   O5        1.0  0.61090  0.39743  0.36551  1.0000
  O   O6        1.0  0.11090  0.60258  0.63448  1.0000
  O   O7        1.0  0.85604  0.32380  0.42245  1.0000
  O   O8        1.0  0.35604  0.67620  0.57755  1.0000
  O   O9        1.0  0.22277  0.45822  0.41123  1.0000
  O   O10       1.0  0.72277  0.54178  0.58877  1.0000
  O   O11       1.0  0.35404  0.59100  0.32112  1.0000
  O   O12       1.0  0.85404  0.40899  0.67888  1.0000
