data_image0
_chemical_formula_structural       Y2H42C54O12
_chemical_formula_sum              "Y2 H42 C54 O12"
_cell_length_a       7.89057
_cell_length_b       11.3308
_cell_length_c       13.0625
_cell_angle_alpha    94.2166
_cell_angle_beta     90
_cell_angle_gamma    90

_space_group_name_H-M_alt    "P 1"
_space_group_IT_number       1

loop_
  _space_group_symop_operation_xyz
  'x, y, z'

loop_
  _atom_site_type_symbol
  _atom_site_label
  _atom_site_symmetry_multiplicity
  _atom_site_fract_x
  _atom_site_fract_y
  _atom_site_fract_z
  _atom_site_occupancy
  Y   Y1        1.0  0.46375  0.54175  0.47463  1.0000
  Y   Y2        1.0  0.96376  0.45826  0.52537  1.0000
  H   H1        1.0  0.63765  0.12615  0.60875  1.0000
  H   H2        1.0  0.13766  0.87385  0.39125  1.0000
  H   H3        1.0  0.30222  0.26580  0.60435  1.0000
  H   H4        1.0  0.80223  0.73420  0.39564  1.0000
  H   H5        1.0  0.50424  0.95899  0.59753  1.0000
  H   H6        1.0  0.00424  0.04101  0.40248  1.0000
  H   H7        1.0  0.34256  0.77907  0.62771  1.0000
  H   H8        1.0  0.84256  0.22093  0.37229  1.0000
  H   H9        1.0  0.03471  0.79069  0.66633  1.0000
  H   H10       1.0  0.53471  0.20931  0.33368  1.0000
  H   H11       1.0  0.88606  0.98546  0.67120  1.0000
  H   H12       1.0  0.38606  0.01454  0.32880  1.0000
  H   H13       1.0  0.04839  0.16787  0.63904  1.0000
  H   H14       1.0  0.54840  0.83214  0.36096  1.0000
  H   H15       1.0  0.37091  0.62640  0.75960  1.0000
  H   H16       1.0  0.87091  0.37360  0.24040  1.0000
  H   H17       1.0  0.13979  0.45172  0.86455  1.0000
  H   H18       1.0  0.63979  0.54828  0.13545  1.0000
  H   H19       1.0  0.41241  0.73092  0.90441  1.0000
  H   H20       1.0  0.91241  0.26908  0.09559  1.0000
  H   H21       1.0  0.47564  0.82655  0.07584  1.0000
  H   H22       1.0  0.97564  0.17345  0.92416  1.0000
  H   H23       1.0  0.37273  0.73634  0.23339  1.0000
  H   H24       1.0  0.87273  0.26366  0.76661  1.0000
  H   H25       1.0  0.20478  0.55109  0.21755  1.0000
  H   H26       1.0  0.70478  0.44891  0.78245  1.0000
  H   H27       1.0  0.14056  0.45404  0.04462  1.0000
  H   H28       1.0  0.64056  0.54596  0.95538  1.0000
  H   H29       1.0  0.10633  0.18211  0.26142  1.0000
  H   H30       1.0  0.60633  0.81789  0.73858  1.0000
  H   H31       1.0  0.40217  0.33075  0.18571  1.0000
  H   H32       1.0  0.90217  0.66925  0.81429  1.0000
  H   H33       1.0  0.15789  0.04199  0.13829  1.0000
  H   H34       1.0  0.65789  0.95801  0.86171  1.0000
  H   H35       1.0  0.14780  0.92767  0.97049  1.0000
  H   H36       1.0  0.64780  0.07233  0.02951  1.0000
  H   H37       1.0  0.28756  0.00467  0.81794  1.0000
  H   H38       1.0  0.78757  0.99533  0.18206  1.0000
  H   H39       1.0  0.44071  0.19789  0.83525  1.0000
  H   H40       1.0  0.94071  0.80211  0.16475  1.0000
  H   H41       1.0  0.45230  0.31282  0.00423  1.0000
  H   H42       1.0  0.95231  0.68718  0.99577  1.0000
  C   C1        1.0  0.62843  0.31504  0.59105  1.0000
  C   C2        1.0  0.12843  0.68496  0.40895  1.0000
  C   C3        1.0  0.54983  0.19986  0.60451  1.0000
  C   C4        1.0  0.04983  0.80014  0.39549  1.0000
  C   C5        1.0  0.37988  0.18649  0.60817  1.0000
  C   C6        1.0  0.87988  0.81351  0.39183  1.0000
  C   C7        1.0  0.28841  0.07699  0.61956  1.0000
  C   C8        1.0  0.78842  0.92301  0.38044  1.0000
  C   C9        1.0  0.36950  0.96588  0.61564  1.0000
  C   C10       1.0  0.86951  0.03412  0.38436  1.0000
  C   C11       1.0  0.27842  0.86427  0.63274  1.0000
  C   C12       1.0  0.77842  0.13574  0.36726  1.0000
  C   C13       1.0  0.10466  0.87111  0.65363  1.0000
  C   C14       1.0  0.60466  0.12889  0.34637  1.0000
  C   C15       1.0  0.02184  0.98021  0.65578  1.0000
  C   C16       1.0  0.52185  0.01979  0.34422  1.0000
  C   C17       1.0  0.11243  0.08238  0.63813  1.0000
  C   C18       1.0  0.61244  0.91762  0.36187  1.0000
  C   C19       1.0  0.20722  0.49817  0.67636  1.0000
  C   C20       1.0  0.70722  0.50183  0.32364  1.0000
  C   C21       1.0  0.28151  0.55488  0.76983  1.0000
  C   C22       1.0  0.78151  0.44511  0.23018  1.0000
  C   C23       1.0  0.22901  0.52558  0.86326  1.0000
  C   C24       1.0  0.72901  0.47442  0.13674  1.0000
  C   C25       1.0  0.27356  0.58418  0.96234  1.0000
  C   C26       1.0  0.77355  0.41582  0.03766  1.0000
  C   C27       1.0  0.36783  0.69022  0.97262  1.0000
  C   C28       1.0  0.86783  0.30978  0.02738  1.0000
  C   C29       1.0  0.40278  0.74466  0.06924  1.0000
  C   C30       1.0  0.90278  0.25534  0.93076  1.0000
  C   C31       1.0  0.34399  0.69491  0.15758  1.0000
  C   C32       1.0  0.84398  0.30509  0.84242  1.0000
  C   C33       1.0  0.24995  0.59013  0.14881  1.0000
  C   C34       1.0  0.74995  0.40987  0.85119  1.0000
  C   C35       1.0  0.21477  0.53549  0.05212  1.0000
  C   C36       1.0  0.71477  0.46451  0.94788  1.0000
  C   C37       1.0  0.22186  0.32656  0.35638  1.0000
  C   C38       1.0  0.72187  0.67344  0.64362  1.0000
  C   C39       1.0  0.20761  0.24769  0.26213  1.0000
  C   C40       1.0  0.70761  0.75231  0.73787  1.0000
  C   C41       1.0  0.30902  0.25896  0.17996  1.0000
  C   C42       1.0  0.80903  0.74104  0.82004  1.0000
  C   C43       1.0  0.30387  0.18693  0.08306  1.0000
  C   C44       1.0  0.80387  0.81307  0.91694  1.0000
  C   C45       1.0  0.21910  0.07715  0.07211  1.0000
  C   C46       1.0  0.71911  0.92285  0.92789  1.0000
  C   C47       1.0  0.21395  0.01231  0.97754  1.0000
  C   C48       1.0  0.71396  0.98768  0.02246  1.0000
  C   C49       1.0  0.29321  0.05548  0.89197  1.0000
  C   C50       1.0  0.79321  0.94452  0.10803  1.0000
  C   C51       1.0  0.37888  0.16371  0.90163  1.0000
  C   C52       1.0  0.87888  0.83629  0.09837  1.0000
  C   C53       1.0  0.38527  0.22841  0.99655  1.0000
  C   C54       1.0  0.88528  0.77159  0.00345  1.0000
  O   O1        1.0  0.53465  0.40672  0.58525  1.0000
  O   O2        1.0  0.03465  0.59328  0.41475  1.0000
  O   O3        1.0  0.79035  0.31881  0.58595  1.0000
  O   O4        1.0  0.29035  0.68119  0.41405  1.0000
  O   O5        1.0  0.23561  0.54430  0.58888  1.0000
  O   O6        1.0  0.73561  0.45570  0.41112  1.0000
  O   O7        1.0  0.10434  0.41200  0.67746  1.0000
  O   O8        1.0  0.60435  0.58800  0.32254  1.0000
  O   O9        1.0  0.10276  0.32204  0.42298  1.0000
  O   O10       1.0  0.60276  0.67796  0.57703  1.0000
  O   O11       1.0  0.34874  0.39590  0.36846  1.0000
  O   O12       1.0  0.84874  0.60410  0.63154  1.0000
