data_image0
_chemical_formula_structural       Dy2H42C54O12
_chemical_formula_sum              "Dy2 H42 C54 O12"
_cell_length_a       7.57349
_cell_length_b       13.1813
_cell_length_c       13.2988
_cell_angle_alpha    116.565
_cell_angle_beta     101.494
_cell_angle_gamma    100.765

_space_group_name_H-M_alt    "P 1"
_space_group_IT_number       1

loop_
  _space_group_symop_operation_xyz
  'x, y, z'

loop_
  _atom_site_type_symbol
  _atom_site_label
  _atom_site_symmetry_multiplicity
  _atom_site_fract_x
  _atom_site_fract_y
  _atom_site_fract_z
  _atom_site_occupancy
  Dy  Dy1       1.0  0.50300  0.99949  0.00005  1.0000
  Dy  Dy2       1.0  0.00351  0.00041  0.00058  1.0000
  H   H1        1.0  0.57571  0.17489  0.35004  1.0000
  H   H2        1.0  0.39764  0.17228  0.82509  1.0000
  H   H3        1.0  0.90089  0.82516  0.17524  1.0000
  H   H4        1.0  0.22573  0.65067  0.82587  1.0000
  H   H5        1.0  0.07507  0.34933  0.17523  1.0000
  H   H6        1.0  0.72538  0.82781  0.65286  1.0000
  H   H7        1.0  0.23837  0.03188  0.37960  1.0000
  H   H8        1.0  0.20729  0.34932  0.96720  1.0000
  H   H9        1.0  0.70628  0.96819  0.34761  1.0000
  H   H10       1.0  0.85673  0.61908  0.65109  1.0000
  H   H11       1.0  0.73764  0.38090  0.03204  1.0000
  H   H12       1.0  0.35812  0.65063  0.61788  1.0000
  H   H13       1.0  0.73828  0.25845  0.54213  1.0000
  H   H14       1.0  0.47781  0.28209  0.74182  1.0000
  H   H15       1.0  0.97962  0.74165  0.28362  1.0000
  H   H16       1.0  0.19602  0.45806  0.71651  1.0000
  H   H17       1.0  0.23802  0.54196  0.25850  1.0000
  H   H18       1.0  0.69584  0.71779  0.45969  1.0000
  H   H19       1.0  0.94122  0.29549  0.73263  1.0000
  H   H20       1.0  0.64326  0.43631  0.70598  1.0000
  H   H21       1.0  0.14548  0.70460  0.43709  1.0000
  H   H22       1.0  0.20870  0.26728  0.56275  1.0000
  H   H23       1.0  0.44149  0.73270  0.29550  1.0000
  H   H24       1.0  0.70696  0.56356  0.26959  1.0000
  H   H25       1.0  0.83191  0.17583  0.82370  1.0000
  H   H26       1.0  0.65512  0.64893  0.82560  1.0000
  H   H27       1.0  0.15594  0.82431  0.64781  1.0000
  H   H28       1.0  0.00774  0.17545  0.35116  1.0000
  H   H29       1.0  0.33242  0.82454  0.17571  1.0000
  H   H30       1.0  0.50605  0.35095  0.17657  1.0000
  H   H31       1.0  0.51404  0.02054  0.72127  1.0000
  H   H32       1.0  0.49453  0.70307  0.97974  1.0000
  H   H33       1.0  0.99343  0.97963  0.70070  1.0000
  H   H34       1.0  0.79149  0.27722  0.29757  1.0000
  H   H35       1.0  0.01439  0.72280  0.02042  1.0000
  H   H36       1.0  0.29131  0.29688  0.27662  1.0000
  H   H37       1.0  0.30843  0.98453  0.53122  1.0000
  H   H38       1.0  0.32558  0.54852  0.01473  1.0000
  H   H39       1.0  0.82373  0.01560  0.54663  1.0000
  H   H40       1.0  0.77624  0.46769  0.45187  1.0000
  H   H41       1.0  0.80856  0.53239  0.98428  1.0000
  H   H42       1.0  0.27715  0.45142  0.46622  1.0000
  C   C1        1.0  0.29505  0.08360  0.21668  1.0000
  C   C2        1.0  0.21008  0.13270  0.91653  1.0000
  C   C3        1.0  0.71153  0.91636  0.13299  1.0000
  C   C4        1.0  0.07721  0.78302  0.86748  1.0000
  C   C5        1.0  0.79420  0.21692  0.08448  1.0000
  C   C6        1.0  0.57731  0.86726  0.78380  1.0000
  C   C7        1.0  0.43214  0.12253  0.33174  1.0000
  C   C8        1.0  0.30749  0.20799  0.87711  1.0000
  C   C9        1.0  0.80957  0.87749  0.20918  1.0000
  C   C10       1.0  0.09939  0.66809  0.79117  1.0000
  C   C11       1.0  0.93132  0.33189  0.12311  1.0000
  C   C12       1.0  0.59955  0.79201  0.66914  1.0000
  C   C13       1.0  0.38381  0.08932  0.40761  1.0000
  C   C14       1.0  0.29404  0.31842  0.90997  1.0000
  C   C15       1.0  0.79433  0.91076  0.31824  1.0000
  C   C16       1.0  0.97482  0.59162  0.68111  1.0000
  C   C17       1.0  0.88320  0.40837  0.08952  1.0000
  C   C18       1.0  0.47576  0.68154  0.59156  1.0000
  C   C19       1.0  0.50857  0.11752  0.52174  1.0000
  C   C20       1.0  0.39076  0.40427  0.88213  1.0000
  C   C21       1.0  0.89087  0.88258  0.40418  1.0000
  C   C22       1.0  0.98618  0.47765  0.59505  1.0000
  C   C23       1.0  0.00857  0.52235  0.11745  1.0000
  C   C24       1.0  0.48666  0.59566  0.47789  1.0000
  C   C25       1.0  0.68854  0.20566  0.58065  1.0000
  C   C26       1.0  0.48157  0.37426  0.79466  1.0000
  C   C27       1.0  0.98271  0.79445  0.37493  1.0000
  C   C28       1.0  0.10778  0.41922  0.62477  1.0000
  C   C29       1.0  0.18859  0.58081  0.20561  1.0000
  C   C30       1.0  0.60745  0.62563  0.42040  1.0000
  C   C31       1.0  0.80280  0.22675  0.68846  1.0000
  C   C32       1.0  0.57450  0.46142  0.77424  1.0000
  C   C33       1.0  0.07587  0.77337  0.46167  1.0000
  C   C34       1.0  0.11427  0.31126  0.53787  1.0000
  C   C35       1.0  0.30308  0.68875  0.22667  1.0000
  C   C36       1.0  0.61316  0.53845  0.31280  1.0000
  C   C37       1.0  0.74171  0.16011  0.73984  1.0000
  C   C38       1.0  0.58088  0.58052  0.84085  1.0000
  C   C39       1.0  0.08145  0.84003  0.57967  1.0000
  C   C40       1.0  0.00136  0.25941  0.41938  1.0000
  C   C41       1.0  0.24206  0.74059  0.16000  1.0000
  C   C42       1.0  0.50033  0.41936  0.26027  1.0000
  C   C43       1.0  0.56353  0.07266  0.68218  1.0000
  C   C44       1.0  0.49131  0.61104  0.92767  1.0000
  C   C45       1.0  0.99070  0.92747  0.60948  1.0000
  C   C46       1.0  0.88047  0.31671  0.38915  1.0000
  C   C47       1.0  0.06384  0.68329  0.07248  1.0000
  C   C48       1.0  0.38027  0.38889  0.31661  1.0000
  C   C49       1.0  0.44754  0.05238  0.57520  1.0000
  C   C50       1.0  0.39589  0.52403  0.94733  1.0000
  C   C51       1.0  0.89494  0.94773  0.52277  1.0000
  C   C52       1.0  0.87146  0.42382  0.47594  1.0000
  C   C53       1.0  0.94770  0.57620  0.05218  1.0000
  C   C54       1.0  0.37196  0.47590  0.42331  1.0000
  O   O1        1.0  0.35003  0.10347  0.13869  1.0000
  O   O2        1.0  0.24542  0.03387  0.89707  1.0000
  O   O3        1.0  0.74675  0.89645  0.03516  1.0000
  O   O4        1.0  0.21241  0.86198  0.96574  1.0000
  O   O5        1.0  0.85045  0.13797  0.10380  1.0000
  O   O6        1.0  0.71136  0.96615  0.86321  1.0000
  O   O7        1.0  0.11950  0.03175  0.19177  1.0000
  O   O8        1.0  0.08775  0.16097  0.96835  1.0000
  O   O9        1.0  0.58777  0.96819  0.15985  1.0000
  O   O10       1.0  0.92543  0.80726  0.84067  1.0000
  O   O11       1.0  0.61817  0.19267  0.03343  1.0000
  O   O12       1.0  0.42673  0.83889  0.80734  1.0000
