data_image0
_chemical_formula_structural       Ho2H42C54O12
_chemical_formula_sum              "Ho2 H42 C54 O12"
_cell_length_a       7.86363
_cell_length_b       11.278
_cell_length_c       13.071
_cell_angle_alpha    94.2337
_cell_angle_beta     90
_cell_angle_gamma    90

_space_group_name_H-M_alt    "P 1"
_space_group_IT_number       1

loop_
  _space_group_symop_operation_xyz
  'x, y, z'

loop_
  _atom_site_type_symbol
  _atom_site_label
  _atom_site_symmetry_multiplicity
  _atom_site_fract_x
  _atom_site_fract_y
  _atom_site_fract_z
  _atom_site_occupancy
  Ho  Ho1       1.0  0.51472  0.54117  0.47453  1.0000
  Ho  Ho2       1.0  0.01473  0.45882  0.52547  1.0000
  H   H1        1.0  0.68942  0.12421  0.60777  1.0000
  H   H2        1.0  0.18939  0.87579  0.39223  1.0000
  H   H3        1.0  0.35254  0.26433  0.60275  1.0000
  H   H4        1.0  0.85252  0.73567  0.39727  1.0000
  H   H5        1.0  0.55451  0.95546  0.59731  1.0000
  H   H6        1.0  0.05451  0.04453  0.40269  1.0000
  H   H7        1.0  0.39158  0.77575  0.62826  1.0000
  H   H8        1.0  0.89159  0.22424  0.37174  1.0000
  H   H9        1.0  0.08239  0.78819  0.66649  1.0000
  H   H10       1.0  0.58241  0.21181  0.33351  1.0000
  H   H11       1.0  0.93398  0.98416  0.67033  1.0000
  H   H12       1.0  0.43398  0.01585  0.32967  1.0000
  H   H13       1.0  0.09802  0.16683  0.63799  1.0000
  H   H14       1.0  0.59800  0.83317  0.36202  1.0000
  H   H15       1.0  0.42211  0.62702  0.75893  1.0000
  H   H16       1.0  0.92209  0.37298  0.24107  1.0000
  H   H17       1.0  0.18930  0.45229  0.86403  1.0000
  H   H18       1.0  0.68929  0.54771  0.13597  1.0000
  H   H19       1.0  0.18988  0.45376  0.04293  1.0000
  H   H20       1.0  0.68987  0.54625  0.95707  1.0000
  H   H21       1.0  0.25344  0.55010  0.21654  1.0000
  H   H22       1.0  0.75345  0.44991  0.78346  1.0000
  H   H23       1.0  0.42214  0.73631  0.23345  1.0000
  H   H24       1.0  0.92214  0.26370  0.76655  1.0000
  H   H25       1.0  0.52667  0.82750  0.07683  1.0000
  H   H26       1.0  0.02668  0.17251  0.92318  1.0000
  H   H27       1.0  0.46393  0.73285  0.90506  1.0000
  H   H28       1.0  0.96393  0.26716  0.09495  1.0000
  H   H29       1.0  0.65490  0.81825  0.73851  1.0000
  H   H30       1.0  0.15491  0.18175  0.26149  1.0000
  H   H31       1.0  0.95169  0.66955  0.81510  1.0000
  H   H32       1.0  0.45169  0.33045  0.18490  1.0000
  H   H33       1.0  0.70654  0.95991  0.86261  1.0000
  H   H34       1.0  0.20654  0.04009  0.13739  1.0000
  H   H35       1.0  0.69712  0.07455  0.03025  1.0000
  H   H36       1.0  0.19711  0.92546  0.96976  1.0000
  H   H37       1.0  0.83677  0.99674  0.18262  1.0000
  H   H38       1.0  0.33677  0.00326  0.81738  1.0000
  H   H39       1.0  0.98893  0.80191  0.16526  1.0000
  H   H40       1.0  0.48893  0.19809  0.83473  1.0000
  H   H41       1.0  0.99982  0.68663  0.99629  1.0000
  H   H42       1.0  0.49983  0.31337  0.00370  1.0000
  C   C1        1.0  0.67938  0.31409  0.59000  1.0000
  C   C2        1.0  0.17938  0.68591  0.41001  1.0000
  C   C3        1.0  0.60111  0.19812  0.60324  1.0000
  C   C4        1.0  0.10109  0.80188  0.39676  1.0000
  C   C5        1.0  0.43058  0.18469  0.60704  1.0000
  C   C6        1.0  0.93057  0.81530  0.39297  1.0000
  C   C7        1.0  0.33861  0.07496  0.61898  1.0000
  C   C8        1.0  0.83861  0.92503  0.38101  1.0000
  C   C9        1.0  0.41944  0.96312  0.61550  1.0000
  C   C10       1.0  0.91944  0.03687  0.38449  1.0000
  C   C11       1.0  0.32744  0.86145  0.63290  1.0000
  C   C12       1.0  0.82744  0.13855  0.36710  1.0000
  C   C13       1.0  0.15296  0.86875  0.65355  1.0000
  C   C14       1.0  0.65297  0.13125  0.34644  1.0000
  C   C15       1.0  0.07032  0.97854  0.65518  1.0000
  C   C16       1.0  0.57032  0.02146  0.34482  1.0000
  C   C17       1.0  0.16189  0.08086  0.63730  1.0000
  C   C18       1.0  0.66189  0.91914  0.36270  1.0000
  C   C19       1.0  0.25736  0.49807  0.67592  1.0000
  C   C20       1.0  0.75734  0.50193  0.32409  1.0000
  C   C21       1.0  0.33210  0.55539  0.76922  1.0000
  C   C22       1.0  0.83209  0.44462  0.23078  1.0000
  C   C23       1.0  0.27918  0.52633  0.86265  1.0000
  C   C24       1.0  0.77917  0.47368  0.13734  1.0000
  C   C25       1.0  0.32371  0.58507  0.96176  1.0000
  C   C26       1.0  0.82370  0.41493  0.03824  1.0000
  C   C27       1.0  0.26422  0.53559  0.05111  1.0000
  C   C28       1.0  0.76421  0.46441  0.94889  1.0000
  C   C29       1.0  0.29894  0.58981  0.14809  1.0000
  C   C30       1.0  0.79895  0.41019  0.85191  1.0000
  C   C31       1.0  0.39348  0.69502  0.15753  1.0000
  C   C32       1.0  0.89349  0.30499  0.84247  1.0000
  C   C33       1.0  0.45307  0.74547  0.06963  1.0000
  C   C34       1.0  0.95307  0.25454  0.93037  1.0000
  C   C35       1.0  0.41853  0.69144  0.97275  1.0000
  C   C36       1.0  0.91851  0.30856  0.02726  1.0000
  C   C37       1.0  0.77233  0.67346  0.64393  1.0000
  C   C38       1.0  0.27234  0.32654  0.35607  1.0000
  C   C39       1.0  0.75679  0.75259  0.73819  1.0000
  C   C40       1.0  0.25680  0.24739  0.26181  1.0000
  C   C41       1.0  0.85780  0.74146  0.82066  1.0000
  C   C42       1.0  0.35781  0.25855  0.17933  1.0000
  C   C43       1.0  0.85179  0.81359  0.91761  1.0000
  C   C44       1.0  0.35179  0.18641  0.08238  1.0000
  C   C45       1.0  0.76743  0.92412  0.92868  1.0000
  C   C46       1.0  0.26742  0.07589  0.07132  1.0000
  C   C47       1.0  0.76289  0.98929  0.02319  1.0000
  C   C48       1.0  0.26288  0.01071  0.97680  1.0000
  C   C49       1.0  0.84206  0.94563  0.10867  1.0000
  C   C50       1.0  0.34206  0.05437  0.89133  1.0000
  C   C51       1.0  0.92720  0.83656  0.09894  1.0000
  C   C52       1.0  0.42720  0.16344  0.90105  1.0000
  C   C53       1.0  0.93305  0.77159  0.00406  1.0000
  C   C54       1.0  0.43305  0.22841  0.99593  1.0000
  O   O1        1.0  0.58462  0.40595  0.58458  1.0000
  O   O2        1.0  0.08462  0.59404  0.41543  1.0000
  O   O3        1.0  0.84181  0.31845  0.58480  1.0000
  O   O4        1.0  0.34180  0.68155  0.41520  1.0000
  O   O5        1.0  0.28616  0.54380  0.58820  1.0000
  O   O6        1.0  0.78614  0.45620  0.41180  1.0000
  O   O7        1.0  0.15354  0.41183  0.67711  1.0000
  O   O8        1.0  0.65353  0.58817  0.32289  1.0000
  O   O9        1.0  0.65268  0.67725  0.57740  1.0000
  O   O10       1.0  0.15269  0.32275  0.42259  1.0000
  O   O11       1.0  0.90058  0.60465  0.63164  1.0000
  O   O12       1.0  0.40058  0.39536  0.36835  1.0000
