data_image0
_chemical_formula_structural       Lu2H42C54O12
_chemical_formula_sum              "Lu2 H42 C54 O12"
_cell_length_a       7.76595
_cell_length_b       11.3539
_cell_length_c       13.021
_cell_angle_alpha    94.4444
_cell_angle_beta     90
_cell_angle_gamma    90

_space_group_name_H-M_alt    "P 1"
_space_group_IT_number       1

loop_
  _space_group_symop_operation_xyz
  'x, y, z'

loop_
  _atom_site_type_symbol
  _atom_site_label
  _atom_site_symmetry_multiplicity
  _atom_site_fract_x
  _atom_site_fract_y
  _atom_site_fract_z
  _atom_site_occupancy
  Lu  Lu1       1.0  0.49790  0.53999  0.47497  1.0000
  Lu  Lu2       1.0  0.99790  0.46001  0.52503  1.0000
  H   H1        1.0  0.67711  0.12997  0.60886  1.0000
  H   H2        1.0  0.17708  0.87002  0.39116  1.0000
  H   H3        1.0  0.33355  0.26584  0.60255  1.0000
  H   H4        1.0  0.83351  0.73417  0.39746  1.0000
  H   H5        1.0  0.54301  0.96125  0.59609  1.0000
  H   H6        1.0  0.04299  0.03876  0.40392  1.0000
  H   H7        1.0  0.38077  0.78039  0.62508  1.0000
  H   H8        1.0  0.88076  0.21961  0.37492  1.0000
  H   H9        1.0  0.06823  0.79039  0.66429  1.0000
  H   H10       1.0  0.56822  0.20962  0.33570  1.0000
  H   H11       1.0  0.91490  0.98400  0.67052  1.0000
  H   H12       1.0  0.41489  0.01600  0.32946  1.0000
  H   H13       1.0  0.07777  0.16716  0.63862  1.0000
  H   H14       1.0  0.57776  0.83285  0.36139  1.0000
  H   H15       1.0  0.40795  0.62637  0.75648  1.0000
  H   H16       1.0  0.90794  0.37362  0.24351  1.0000
  H   H17       1.0  0.17411  0.45177  0.86171  1.0000
  H   H18       1.0  0.67410  0.54823  0.13829  1.0000
  H   H19       1.0  0.44597  0.73296  0.90378  1.0000
  H   H20       1.0  0.94596  0.26704  0.09621  1.0000
  H   H21       1.0  0.50738  0.82806  0.07666  1.0000
  H   H22       1.0  0.00738  0.17194  0.92334  1.0000
  H   H23       1.0  0.40585  0.73526  0.23369  1.0000
  H   H24       1.0  0.90585  0.26475  0.76631  1.0000
  H   H25       1.0  0.24038  0.54815  0.21602  1.0000
  H   H26       1.0  0.74037  0.45186  0.78398  1.0000
  H   H27       1.0  0.17803  0.45170  0.04158  1.0000
  H   H28       1.0  0.67802  0.54830  0.95842  1.0000
  H   H29       1.0  0.13789  0.18442  0.26368  1.0000
  H   H30       1.0  0.63790  0.81559  0.73631  1.0000
  H   H31       1.0  0.43810  0.33214  0.18691  1.0000
  H   H32       1.0  0.93811  0.66786  0.81309  1.0000
  H   H33       1.0  0.19304  0.04242  0.14057  1.0000
  H   H34       1.0  0.69304  0.95758  0.85943  1.0000
  H   H35       1.0  0.18207  0.92736  0.97231  1.0000
  H   H36       1.0  0.68205  0.07264  0.02769  1.0000
  H   H37       1.0  0.32113  0.00395  0.81858  1.0000
  H   H38       1.0  0.82112  0.99604  0.18142  1.0000
  H   H39       1.0  0.47428  0.19792  0.83507  1.0000
  H   H40       1.0  0.97429  0.80207  0.16492  1.0000
  H   H41       1.0  0.48569  0.31398  0.00429  1.0000
  H   H42       1.0  0.98569  0.68602  0.99570  1.0000
  C   C1        1.0  0.66283  0.31812  0.58932  1.0000
  C   C2        1.0  0.16281  0.68187  0.41069  1.0000
  C   C3        1.0  0.58618  0.20243  0.60390  1.0000
  C   C4        1.0  0.08613  0.79757  0.39611  1.0000
  C   C5        1.0  0.41380  0.18750  0.60729  1.0000
  C   C6        1.0  0.91380  0.81250  0.39273  1.0000
  C   C7        1.0  0.32250  0.07774  0.61894  1.0000
  C   C8        1.0  0.82248  0.92226  0.38108  1.0000
  C   C9        1.0  0.40613  0.96725  0.61448  1.0000
  C   C10       1.0  0.90613  0.03275  0.38553  1.0000
  C   C11       1.0  0.31484  0.86522  0.63098  1.0000
  C   C12       1.0  0.81483  0.13479  0.36902  1.0000
  C   C13       1.0  0.13827  0.87112  0.65209  1.0000
  C   C14       1.0  0.63827  0.12888  0.34791  1.0000
  C   C15       1.0  0.05290  0.97962  0.65497  1.0000
  C   C16       1.0  0.55288  0.02038  0.34503  1.0000
  C   C17       1.0  0.14369  0.08216  0.63763  1.0000
  C   C18       1.0  0.64367  0.91785  0.36238  1.0000
  C   C19       1.0  0.24071  0.49835  0.67324  1.0000
  C   C20       1.0  0.74071  0.50164  0.32676  1.0000
  C   C21       1.0  0.31724  0.55501  0.76686  1.0000
  C   C22       1.0  0.81724  0.44499  0.23314  1.0000
  C   C23       1.0  0.26454  0.52567  0.86062  1.0000
  C   C24       1.0  0.76452  0.47433  0.13938  1.0000
  C   C25       1.0  0.30907  0.58416  0.96038  1.0000
  C   C26       1.0  0.80907  0.41585  0.03963  1.0000
  C   C27       1.0  0.40175  0.69122  0.97173  1.0000
  C   C28       1.0  0.90175  0.30879  0.02826  1.0000
  C   C29       1.0  0.43570  0.74533  0.06917  1.0000
  C   C30       1.0  0.93570  0.25467  0.93083  1.0000
  C   C31       1.0  0.37753  0.69418  0.15725  1.0000
  C   C32       1.0  0.87752  0.30583  0.84275  1.0000
  C   C33       1.0  0.28500  0.58829  0.14745  1.0000
  C   C34       1.0  0.78500  0.41171  0.85255  1.0000
  C   C35       1.0  0.25089  0.53403  0.04993  1.0000
  C   C36       1.0  0.75089  0.46597  0.95007  1.0000
  C   C37       1.0  0.25546  0.32963  0.35843  1.0000
  C   C38       1.0  0.75547  0.67037  0.64157  1.0000
  C   C39       1.0  0.24070  0.24994  0.26411  1.0000
  C   C40       1.0  0.74071  0.75007  0.73589  1.0000
  C   C41       1.0  0.34343  0.26049  0.18142  1.0000
  C   C42       1.0  0.84343  0.73952  0.81858  1.0000
  C   C43       1.0  0.33794  0.18790  0.08430  1.0000
  C   C44       1.0  0.83794  0.81210  0.91569  1.0000
  C   C45       1.0  0.25353  0.07768  0.07383  1.0000
  C   C46       1.0  0.75352  0.92232  0.92617  1.0000
  C   C47       1.0  0.24810  0.01231  0.97903  1.0000
  C   C48       1.0  0.74808  0.98769  0.02097  1.0000
  C   C49       1.0  0.32693  0.05527  0.89276  1.0000
  C   C50       1.0  0.82693  0.94473  0.10724  1.0000
  C   C51       1.0  0.41248  0.16393  0.90195  1.0000
  C   C52       1.0  0.91249  0.83607  0.09804  1.0000
  C   C53       1.0  0.41891  0.22923  0.99705  1.0000
  C   C54       1.0  0.91891  0.77077  0.00294  1.0000
  O   O1        1.0  0.56467  0.40805  0.58309  1.0000
  O   O2        1.0  0.06464  0.59193  0.41691  1.0000
  O   O3        1.0  0.82707  0.32387  0.58365  1.0000
  O   O4        1.0  0.32705  0.67612  0.41635  1.0000
  O   O5        1.0  0.26945  0.54324  0.58513  1.0000
  O   O6        1.0  0.76945  0.45675  0.41487  1.0000
  O   O7        1.0  0.13412  0.41357  0.67427  1.0000
  O   O8        1.0  0.63412  0.58643  0.32573  1.0000
  O   O9        1.0  0.13387  0.32655  0.42500  1.0000
  O   O10       1.0  0.63388  0.67344  0.57500  1.0000
  O   O11       1.0  0.38494  0.39834  0.37038  1.0000
  O   O12       1.0  0.88496  0.60165  0.62963  1.0000
