data_image0
_chemical_formula_structural       Hg2H32C44Br4N8
_chemical_formula_sum              "Hg2 H32 C44 Br4 N8"
_cell_length_a       5.07775
_cell_length_b       13.3548
_cell_length_c       15.6471
_cell_angle_alpha    95.9307
_cell_angle_beta     89.9999
_cell_angle_gamma    89.9998

_space_group_name_H-M_alt    "P 1"
_space_group_IT_number       1

loop_
  _space_group_symop_operation_xyz
  'x, y, z'

loop_
  _atom_site_type_symbol
  _atom_site_label
  _atom_site_symmetry_multiplicity
  _atom_site_fract_x
  _atom_site_fract_y
  _atom_site_fract_z
  _atom_site_occupancy
  Hg  Hg1       1.0  0.53186  0.00000  0.25000  1.0000
  Hg  Hg2       1.0  0.46815  1.00000  0.75000  1.0000
  H   H1        1.0  0.76522  0.03643  0.43980  1.0000
  H   H2        1.0  0.76521  0.96357  0.06020  1.0000
  H   H3        1.0  0.23478  0.96357  0.56020  1.0000
  H   H4        1.0  0.23479  0.03643  0.93980  1.0000
  H   H5        1.0  0.09504  0.13676  0.53159  1.0000
  H   H6        1.0  0.09503  0.86324  0.96841  1.0000
  H   H7        1.0  0.90497  0.86324  0.46841  1.0000
  H   H8        1.0  0.90497  0.13676  0.03159  1.0000
  H   H9        1.0  0.25819  0.30409  0.31565  1.0000
  H   H10       1.0  0.25819  0.69591  0.18434  1.0000
  H   H11       1.0  0.74180  0.69591  0.68434  1.0000
  H   H12       1.0  0.74180  0.30409  0.81565  1.0000
  H   H13       1.0  0.91586  0.19764  0.23275  1.0000
  H   H14       1.0  0.91586  0.80236  0.26725  1.0000
  H   H15       1.0  0.08412  0.80236  0.76725  1.0000
  H   H16       1.0  0.08413  0.19764  0.73275  1.0000
  H   H17       1.0  0.37763  0.27637  0.55419  1.0000
  H   H18       1.0  0.37764  0.72363  0.94581  1.0000
  H   H19       1.0  0.62237  0.72363  0.44580  1.0000
  H   H20       1.0  0.62237  0.27637  0.05419  1.0000
  H   H21       1.0  0.70801  0.31143  0.61975  1.0000
  H   H22       1.0  0.70800  0.68857  0.88025  1.0000
  H   H23       1.0  0.29200  0.68857  0.38025  1.0000
  H   H24       1.0  0.29200  0.31143  0.11975  1.0000
  H   H25       1.0  0.04277  0.40748  0.70769  1.0000
  H   H26       1.0  0.04277  0.59252  0.79231  1.0000
  H   H27       1.0  0.95723  0.59251  0.29231  1.0000
  H   H28       1.0  0.95723  0.40748  0.20769  1.0000
  H   H29       1.0  0.29792  0.54413  0.64789  1.0000
  H   H30       1.0  0.29792  0.45587  0.85211  1.0000
  H   H31       1.0  0.70208  0.45587  0.35211  1.0000
  H   H32       1.0  0.70207  0.54412  0.14789  1.0000
  C   C1        1.0  0.87955  0.09622  0.41483  1.0000
  C   C2        1.0  0.87954  0.90378  0.08517  1.0000
  C   C3        1.0  0.12046  0.90378  0.58517  1.0000
  C   C4        1.0  0.12046  0.09622  0.91483  1.0000
  C   C5        1.0  0.06195  0.15240  0.46544  1.0000
  C   C6        1.0  0.06195  0.84760  0.03456  1.0000
  C   C7        1.0  0.93806  0.84760  0.53456  1.0000
  C   C8        1.0  0.93805  0.15240  0.96544  1.0000
  C   C9        1.0  0.20481  0.22827  0.43045  1.0000
  C   C10       1.0  0.20481  0.77173  0.06955  1.0000
  C   C11       1.0  0.79519  0.77173  0.56955  1.0000
  C   C12       1.0  0.79519  0.22826  0.93045  1.0000
  C   C13       1.0  0.15287  0.24534  0.34500  1.0000
  C   C14       1.0  0.15287  0.75466  0.15500  1.0000
  C   C15       1.0  0.84712  0.75466  0.65500  1.0000
  C   C16       1.0  0.84712  0.24534  0.84499  1.0000
  C   C17       1.0  0.96406  0.18680  0.29912  1.0000
  C   C18       1.0  0.96406  0.81320  0.20088  1.0000
  C   C19       1.0  0.03593  0.81320  0.70088  1.0000
  C   C20       1.0  0.03594  0.18680  0.79911  1.0000
  C   C21       1.0  0.39450  0.28645  0.48544  1.0000
  C   C22       1.0  0.39450  0.71356  0.01456  1.0000
  C   C23       1.0  0.60550  0.71356  0.51456  1.0000
  C   C24       1.0  0.60550  0.28644  0.98544  1.0000
  C   C25       1.0  0.75261  0.39556  0.50995  1.0000
  C   C26       1.0  0.75261  0.60444  0.99005  1.0000
  C   C27       1.0  0.24739  0.60444  0.49005  1.0000
  C   C28       1.0  0.24739  0.39556  0.00995  1.0000
  C   C29       1.0  0.80964  0.37301  0.59301  1.0000
  C   C30       1.0  0.80964  0.62699  0.90699  1.0000
  C   C31       1.0  0.19036  0.62699  0.40699  1.0000
  C   C32       1.0  0.19036  0.37301  0.09301  1.0000
  C   C33       1.0  0.00376  0.42665  0.64273  1.0000
  C   C34       1.0  0.00376  0.57335  0.85727  1.0000
  C   C35       1.0  0.99624  0.57335  0.35727  1.0000
  C   C36       1.0  0.99624  0.42665  0.14273  1.0000
  C   C37       1.0  0.14587  0.50251  0.61022  1.0000
  C   C38       1.0  0.14587  0.49749  0.88978  1.0000
  C   C39       1.0  0.85414  0.49749  0.38978  1.0000
  C   C40       1.0  0.85413  0.50251  0.11022  1.0000
  C   C41       1.0  0.90062  0.47309  0.47432  1.0000
  C   C42       1.0  0.90061  0.52691  0.02568  1.0000
  C   C43       1.0  0.09939  0.52691  0.52568  1.0000
  C   C44       1.0  0.09938  0.47309  0.97432  1.0000
  Br  Br1       1.0  0.39933  0.10579  0.13049  1.0000
  Br  Br2       1.0  0.39926  0.89425  0.36955  1.0000
  Br  Br3       1.0  0.60074  0.89426  0.86955  1.0000
  Br  Br4       1.0  0.60074  0.10574  0.63045  1.0000
  N   N1        1.0  0.83179  0.11306  0.33316  1.0000
  N   N2        1.0  0.83178  0.88694  0.16684  1.0000
  N   N3        1.0  0.16821  0.88694  0.66684  1.0000
  N   N4        1.0  0.16821  0.11306  0.83316  1.0000
  N   N5        1.0  0.56697  0.34420  0.45561  1.0000
  N   N6        1.0  0.56697  0.65580  0.04439  1.0000
  N   N7        1.0  0.43303  0.65580  0.54439  1.0000
  N   N8        1.0  0.43303  0.34420  0.95561  1.0000
