data_image0
_chemical_formula_structural       Pr2H42C54O12
_chemical_formula_sum              "Pr2 H42 C54 O12"
_cell_length_a       7.77106
_cell_length_b       13.3241
_cell_length_c       13.3616
_cell_angle_alpha    116.302
_cell_angle_beta     101.533
_cell_angle_gamma    101.033

_space_group_name_H-M_alt    "P 1"
_space_group_IT_number       1

loop_
  _space_group_symop_operation_xyz
  'x, y, z'

loop_
  _atom_site_type_symbol
  _atom_site_label
  _atom_site_symmetry_multiplicity
  _atom_site_fract_x
  _atom_site_fract_y
  _atom_site_fract_z
  _atom_site_occupancy
  Pr  Pr1       1.0  0.49710  0.99997  0.99966  1.0000
  Pr  Pr2       1.0  0.99711  0.00001  0.99967  1.0000
  H   H1        1.0  0.56733  0.17391  0.35138  1.0000
  H   H2        1.0  0.39223  0.17635  0.82611  1.0000
  H   H3        1.0  0.89360  0.82618  0.17753  1.0000
  H   H4        1.0  0.21645  0.64914  0.82299  1.0000
  H   H5        1.0  0.06734  0.35093  0.17412  1.0000
  H   H6        1.0  0.71565  0.82342  0.64970  1.0000
  H   H7        1.0  0.23899  0.03447  0.38400  1.0000
  H   H8        1.0  0.20535  0.35065  0.96502  1.0000
  H   H9        1.0  0.70448  0.96543  0.34953  1.0000
  H   H10       1.0  0.85353  0.61492  0.64931  1.0000
  H   H11       1.0  0.73881  0.38501  0.03437  1.0000
  H   H12       1.0  0.35437  0.64923  0.61439  1.0000
  H   H13       1.0  0.72894  0.25681  0.54307  1.0000
  H   H14       1.0  0.47163  0.28564  0.74318  1.0000
  H   H15       1.0  0.97215  0.74308  0.28630  1.0000
  H   H16       1.0  0.18619  0.45704  0.71434  1.0000
  H   H17       1.0  0.22939  0.54289  0.25725  1.0000
  H   H18       1.0  0.68571  0.71436  0.45763  1.0000
  H   H19       1.0  0.92880  0.29302  0.73210  1.0000
  H   H20       1.0  0.63441  0.43850  0.70754  1.0000
  H   H21       1.0  0.13573  0.70696  0.43924  1.0000
  H   H22       1.0  0.19705  0.26843  0.56183  1.0000
  H   H23       1.0  0.42883  0.73150  0.29335  1.0000
  H   H24       1.0  0.69579  0.56167  0.26915  1.0000
  H   H25       1.0  0.82246  0.17522  0.82356  1.0000
  H   H26       1.0  0.64610  0.64830  0.82554  1.0000
  H   H27       1.0  0.14711  0.82488  0.64847  1.0000
  H   H28       1.0  0.99861  0.17695  0.35193  1.0000
  H   H29       1.0  0.32179  0.82303  0.17501  1.0000
  H   H30       1.0  0.49785  0.35180  0.17719  1.0000
  H   H31       1.0  0.51091  0.02209  0.72322  1.0000
  H   H32       1.0  0.48904  0.70166  0.97846  1.0000
  H   H33       1.0  0.98887  0.97813  0.70116  1.0000
  H   H34       1.0  0.78678  0.27700  0.29827  1.0000
  H   H35       1.0  0.00980  0.72310  0.02146  1.0000
  H   H36       1.0  0.28744  0.29829  0.27670  1.0000
  H   H37       1.0  0.30837  0.98664  0.53446  1.0000
  H   H38       1.0  0.32266  0.54829  0.01314  1.0000
  H   H39       1.0  0.82179  0.01340  0.54769  1.0000
  H   H40       1.0  0.77319  0.46528  0.45133  1.0000
  H   H41       1.0  0.80792  0.53480  0.98621  1.0000
  H   H42       1.0  0.27423  0.45151  0.46474  1.0000
  C   C1        1.0  0.28952  0.08482  0.22230  1.0000
  C   C2        1.0  0.20415  0.13779  0.91505  1.0000
  C   C3        1.0  0.70492  0.91531  0.13757  1.0000
  C   C4        1.0  0.06659  0.77726  0.86216  1.0000
  C   C5        1.0  0.78934  0.22277  0.08505  1.0000
  C   C6        1.0  0.56621  0.86217  0.77722  1.0000
  C   C7        1.0  0.42718  0.12329  0.33535  1.0000
  C   C8        1.0  0.30320  0.21181  0.87654  1.0000
  C   C9        1.0  0.80403  0.87678  0.21210  1.0000
  C   C10       1.0  0.09149  0.66455  0.78785  1.0000
  C   C11       1.0  0.92702  0.33551  0.12350  1.0000
  C   C12       1.0  0.59119  0.78806  0.66473  1.0000
  C   C13       1.0  0.38156  0.09062  0.41136  1.0000
  C   C14       1.0  0.29111  0.32100  0.90902  1.0000
  C   C15       1.0  0.79095  0.90932  0.32073  1.0000
  C   C16       1.0  0.96945  0.58814  0.67876  1.0000
  C   C17       1.0  0.88146  0.41183  0.09067  1.0000
  C   C18       1.0  0.46984  0.67889  0.58803  1.0000
  C   C19       1.0  0.50428  0.11791  0.52417  1.0000
  C   C20       1.0  0.38658  0.40621  0.88194  1.0000
  C   C21       1.0  0.88637  0.88201  0.40623  1.0000
  C   C22       1.0  0.97985  0.47569  0.59356  1.0000
  C   C23       1.0  0.00432  0.52427  0.11790  1.0000
  C   C24       1.0  0.48013  0.59369  0.47571  1.0000
  C   C25       1.0  0.68065  0.20472  0.58181  1.0000
  C   C26       1.0  0.47557  0.37672  0.79538  1.0000
  C   C27       1.0  0.97593  0.79521  0.37713  1.0000
  C   C28       1.0  0.09898  0.41834  0.62326  1.0000
  C   C29       1.0  0.18082  0.58160  0.20490  1.0000
  C   C30       1.0  0.59864  0.62329  0.41872  1.0000
  C   C31       1.0  0.79310  0.22535  0.68870  1.0000
  C   C32       1.0  0.56688  0.46302  0.77505  1.0000
  C   C33       1.0  0.06768  0.77462  0.46346  1.0000
  C   C34       1.0  0.10452  0.31166  0.53714  1.0000
  C   C35       1.0  0.29302  0.68829  0.22547  1.0000
  C   C36       1.0  0.60377  0.53708  0.31211  1.0000
  C   C37       1.0  0.73344  0.15965  0.74033  1.0000
  C   C38       1.0  0.57311  0.58063  0.84085  1.0000
  C   C39       1.0  0.07373  0.84039  0.58076  1.0000
  C   C40       1.0  0.99290  0.26002  0.41947  1.0000
  C   C41       1.0  0.23297  0.73996  0.15950  1.0000
  C   C42       1.0  0.49246  0.41942  0.26022  1.0000
  C   C43       1.0  0.55875  0.07356  0.68392  1.0000
  C   C44       1.0  0.48529  0.61065  0.92681  1.0000
  C   C45       1.0  0.98521  0.92653  0.61039  1.0000
  C   C46       1.0  0.87431  0.31622  0.38927  1.0000
  C   C47       1.0  0.05813  0.68382  0.07317  1.0000
  C   C48       1.0  0.37462  0.38930  0.31612  1.0000
  C   C49       1.0  0.44467  0.05363  0.57776  1.0000
  C   C50       1.0  0.39157  0.52441  0.94637  1.0000
  C   C51       1.0  0.89108  0.94639  0.52411  1.0000
  C   C52       1.0  0.86640  0.42213  0.47536  1.0000
  C   C53       1.0  0.94436  0.57790  0.05334  1.0000
  C   C54       1.0  0.36701  0.47546  0.42190  1.0000
  O   O1        1.0  0.34137  0.10408  0.14377  1.0000
  O   O2        1.0  0.23627  0.03938  0.89555  1.0000
  O   O3        1.0  0.73740  0.89597  0.03974  1.0000
  O   O4        1.0  0.19798  0.85616  0.96019  1.0000
  O   O5        1.0  0.84182  0.14382  0.10407  1.0000
  O   O6        1.0  0.69675  0.96060  0.85610  1.0000
  O   O7        1.0  0.11887  0.03403  0.20017  1.0000
  O   O8        1.0  0.08527  0.16726  0.96604  1.0000
  O   O9        1.0  0.58526  0.96627  0.16634  1.0000
  O   O10       1.0  0.91728  0.79890  0.83319  1.0000
  O   O11       1.0  0.61840  0.20119  0.03452  1.0000
  O   O12       1.0  0.41782  0.83279  0.79875  1.0000
