data_image0
_chemical_formula_structural       Na3H6C2S2NO10
_chemical_formula_sum              "Na3 H6 C2 S2 N1 O10"
_cell_length_a       5.0954
_cell_length_b       7.05052
_cell_length_c       8.40362
_cell_angle_alpha    114.802
_cell_angle_beta     91.5325
_cell_angle_gamma    89.9939

_space_group_name_H-M_alt    "P 1"
_space_group_IT_number       1

loop_
  _space_group_symop_operation_xyz
  'x, y, z'

loop_
  _atom_site_type_symbol
  _atom_site_label
  _atom_site_symmetry_multiplicity
  _atom_site_fract_x
  _atom_site_fract_y
  _atom_site_fract_z
  _atom_site_occupancy
  Na  Na1       1.0  0.85539  0.58656  0.17306  1.0000
  Na  Na2       1.0  0.45839  0.96595  0.40405  1.0000
  Na  Na3       1.0  0.45845  0.43812  0.40396  1.0000
  H   H1        1.0  0.84957  0.29381  0.58758  1.0000
  H   H2        1.0  0.60490  0.35338  0.70664  1.0000
  H   H3        1.0  0.71356  0.03838  0.82246  1.0000
  H   H4        1.0  0.71358  0.78389  0.82245  1.0000
  H   H5        1.0  0.18225  0.09658  0.94011  1.0000
  H   H6        1.0  0.18238  0.84350  0.94015  1.0000
  C   C1        1.0  0.83691  0.90685  0.81392  1.0000
  C   C2        1.0  0.05856  0.97561  0.95130  1.0000
  S   S1        1.0  0.96998  0.79936  0.59878  1.0000
  S   S2        1.0  0.94125  0.08523  0.17043  1.0000
  N   N1        1.0  0.33886  0.50187  0.00371  1.0000
  O   O1        1.0  0.73738  0.73820  0.47634  1.0000
  O   O2        1.0  0.12497  0.96655  0.58465  1.0000
  O   O3        1.0  0.12502  0.61800  0.58457  1.0000
  O   O4        1.0  0.17895  0.14244  0.28471  1.0000
  O   O5        1.0  0.78306  0.92124  0.18868  1.0000
  O   O6        1.0  0.78292  0.26735  0.18849  1.0000
  O   O7        1.0  0.33560  0.58639  0.17285  1.0000
  O   O8        1.0  0.55935  0.46565  0.93139  1.0000
  O   O9        1.0  0.12794  0.45812  0.91596  1.0000
  O   O10       1.0  0.65787  0.29140  0.58261  1.0000
