data_image0
_chemical_formula_structural       U2H22C26S2N4O12
_chemical_formula_sum              "U2 H22 C26 S2 N4 O12"
_cell_length_a       7.56067
_cell_length_b       8.83222
_cell_length_c       12.2917
_cell_angle_alpha    86.3815
_cell_angle_beta     73.4175
_cell_angle_gamma    75.9995

_space_group_name_H-M_alt    "P 1"
_space_group_IT_number       1

loop_
  _space_group_symop_operation_xyz
  'x, y, z'

loop_
  _atom_site_type_symbol
  _atom_site_label
  _atom_site_symmetry_multiplicity
  _atom_site_fract_x
  _atom_site_fract_y
  _atom_site_fract_z
  _atom_site_occupancy
  U   U1        1.0  0.44058  0.42565  0.15442  1.0000
  U   U2        1.0  0.55942  0.57436  0.84558  1.0000
  H   H1        1.0  0.76366  0.37082  0.97427  1.0000
  H   H2        1.0  0.23632  0.62918  0.02573  1.0000
  H   H3        1.0  0.38540  0.88422  0.06749  1.0000
  H   H4        1.0  0.61460  0.11578  0.93251  1.0000
  H   H5        1.0  0.30272  0.09329  0.06965  1.0000
  H   H6        1.0  0.69727  0.90671  0.93036  1.0000
  H   H7        1.0  0.11618  0.78171  0.16997  1.0000
  H   H8        1.0  0.88382  0.21829  0.83003  1.0000
  H   H9        1.0  0.87913  0.98227  0.29867  1.0000
  H   H10       1.0  0.12088  0.01774  0.70134  1.0000
  H   H11       1.0  0.83246  0.95062  0.51166  1.0000
  H   H12       1.0  0.16755  0.04938  0.48835  1.0000
  H   H13       1.0  0.11526  0.56199  0.73731  1.0000
  H   H14       1.0  0.88474  0.43800  0.26269  1.0000
  H   H15       1.0  0.91945  0.79698  0.66914  1.0000
  H   H16       1.0  0.08056  0.20302  0.33086  1.0000
  H   H17       1.0  0.35506  0.30941  0.69548  1.0000
  H   H18       1.0  0.64494  0.69059  0.30452  1.0000
  H   H19       1.0  0.57695  0.11537  0.55217  1.0000
  H   H20       1.0  0.42305  0.88462  0.44783  1.0000
  H   H21       1.0  0.59791  0.16466  0.34525  1.0000
  H   H22       1.0  0.40209  0.83534  0.65475  1.0000
  C   C1        1.0  0.42833  0.99582  0.05705  1.0000
  C   C2        1.0  0.57166  0.00418  0.94295  1.0000
  C   C3        1.0  0.09333  0.76860  0.26115  1.0000
  C   C4        1.0  0.90667  0.23140  0.73886  1.0000
  C   C5        1.0  0.96011  0.88353  0.33487  1.0000
  C   C6        1.0  0.03990  0.11648  0.66513  1.0000
  C   C7        1.0  0.93458  0.86609  0.45013  1.0000
  C   C8        1.0  0.06542  0.13391  0.54987  1.0000
  C   C9        1.0  0.04290  0.73369  0.49110  1.0000
  C   C10       1.0  0.95710  0.26631  0.50889  1.0000
  C   C11       1.0  0.17309  0.62182  0.41040  1.0000
  C   C12       1.0  0.82691  0.37818  0.58960  1.0000
  C   C13       1.0  0.28107  0.48354  0.45010  1.0000
  C   C14       1.0  0.71893  0.51645  0.54990  1.0000
  C   C15       1.0  0.26003  0.46475  0.56870  1.0000
  C   C16       1.0  0.73996  0.53525  0.43130  1.0000
  C   C17       1.0  0.12923  0.58071  0.64716  1.0000
  C   C18       1.0  0.87077  0.41929  0.35284  1.0000
  C   C19       1.0  0.02336  0.71021  0.60974  1.0000
  C   C20       1.0  0.97664  0.28979  0.39026  1.0000
  C   C21       1.0  0.36922  0.32870  0.60517  1.0000
  C   C22       1.0  0.63078  0.67130  0.39483  1.0000
  C   C23       1.0  0.49216  0.22094  0.52512  1.0000
  C   C24       1.0  0.50785  0.77905  0.47488  1.0000
  C   C25       1.0  0.50342  0.24794  0.41004  1.0000
  C   C26       1.0  0.49658  0.75206  0.58996  1.0000
  S   S1        1.0  0.52597  0.00326  0.17321  1.0000
  S   S2        1.0  0.47403  0.99674  0.82680  1.0000
  N   N1        1.0  0.19752  0.64090  0.29642  1.0000
  N   N2        1.0  0.80248  0.35910  0.70357  1.0000
  N   N3        1.0  0.39969  0.37408  0.37256  1.0000
  N   N4        1.0  0.60031  0.62592  0.62744  1.0000
  O   O1        1.0  0.23638  0.36411  0.14054  1.0000
  O   O2        1.0  0.76361  0.63590  0.85947  1.0000
  O   O3        1.0  0.63870  0.49638  0.16816  1.0000
  O   O4        1.0  0.36131  0.50362  0.83183  1.0000
  O   O5        1.0  0.57903  0.16117  0.16301  1.0000
  O   O6        1.0  0.42096  0.83884  0.83699  1.0000
  O   O7        1.0  0.37361  0.99847  0.27694  1.0000
  O   O8        1.0  0.62639  0.00153  0.72307  1.0000
  O   O9        1.0  0.69715  0.87939  0.15761  1.0000
  O   O10       1.0  0.30285  0.12062  0.84238  1.0000
  O   O11       1.0  0.64009  0.36909  0.96501  1.0000
  O   O12       1.0  0.35989  0.63091  0.03498  1.0000
