data_image0
_chemical_formula_structural       Cu4H40C56N8O12
_chemical_formula_sum              "Cu4 H40 C56 N8 O12"
_cell_length_a       6.393
_cell_length_b       9.90782
_cell_length_c       18.567
_cell_angle_alpha    90
_cell_angle_beta     90
_cell_angle_gamma    95.8667

_space_group_name_H-M_alt    "P 1"
_space_group_IT_number       1

loop_
  _space_group_symop_operation_xyz
  'x, y, z'

loop_
  _atom_site_type_symbol
  _atom_site_label
  _atom_site_symmetry_multiplicity
  _atom_site_fract_x
  _atom_site_fract_y
  _atom_site_fract_z
  _atom_site_occupancy
  Cu  Cu1       1.0  0.80343  0.51450  0.54691  1.0000
  Cu  Cu2       1.0  0.69656  0.98548  0.04692  1.0000
  Cu  Cu3       1.0  0.19656  0.48550  0.45308  1.0000
  Cu  Cu4       1.0  0.30344  0.01449  0.95309  1.0000
  H   H1        1.0  0.25164  0.75132  0.39128  1.0000
  H   H2        1.0  0.24835  0.74867  0.89127  1.0000
  H   H3        1.0  0.74832  0.24868  0.60872  1.0000
  H   H4        1.0  0.75167  0.25131  0.10872  1.0000
  H   H5        1.0  0.22024  0.97816  0.34100  1.0000
  H   H6        1.0  0.27977  0.52183  0.84100  1.0000
  H   H7        1.0  0.77973  0.02184  0.65900  1.0000
  H   H8        1.0  0.72028  0.47815  0.15900  1.0000
  H   H9        1.0  0.90781  0.10030  0.36841  1.0000
  H   H10       1.0  0.59221  0.39969  0.86841  1.0000
  H   H11       1.0  0.09219  0.89971  0.63160  1.0000
  H   H12       1.0  0.40783  0.60029  0.13160  1.0000
  H   H13       1.0  0.62285  0.98685  0.44618  1.0000
  H   H14       1.0  0.87714  0.51316  0.94618  1.0000
  H   H15       1.0  0.37714  0.01319  0.55382  1.0000
  H   H16       1.0  0.12286  0.48683  0.05383  1.0000
  H   H17       1.0  0.47132  0.81421  0.51447  1.0000
  H   H18       1.0  0.02868  0.68579  0.01447  1.0000
  H   H19       1.0  0.52866  0.18580  0.48554  1.0000
  H   H20       1.0  0.97135  0.31420  0.98553  1.0000
  H   H21       1.0  0.46686  0.28050  0.71383  1.0000
  H   H22       1.0  0.03313  0.21949  0.21383  1.0000
  H   H23       1.0  0.53315  0.71951  0.28616  1.0000
  H   H24       1.0  0.96686  0.78051  0.78616  1.0000
  H   H25       1.0  0.20585  0.19691  0.80705  1.0000
  H   H26       1.0  0.29414  0.30309  0.30705  1.0000
  H   H27       1.0  0.79417  0.80310  0.19295  1.0000
  H   H28       1.0  0.70585  0.69692  0.69294  1.0000
  H   H29       1.0  0.88007  0.31176  0.82301  1.0000
  H   H30       1.0  0.61992  0.18824  0.32302  1.0000
  H   H31       1.0  0.11994  0.68824  0.17698  1.0000
  H   H32       1.0  0.38008  0.81178  0.67698  1.0000
  H   H33       1.0  0.82000  0.51266  0.74879  1.0000
  H   H34       1.0  0.67999  0.98734  0.24880  1.0000
  H   H35       1.0  0.18000  0.48734  0.25120  1.0000
  H   H36       1.0  0.32000  0.01267  0.75121  1.0000
  H   H37       1.0  0.19400  0.63796  0.61520  1.0000
  H   H38       1.0  0.30601  0.86204  0.11521  1.0000
  H   H39       1.0  0.80600  0.36204  0.38479  1.0000
  H   H40       1.0  0.69400  0.13795  0.88480  1.0000
  C   C1        1.0  0.95999  0.73915  0.44962  1.0000
  C   C2        1.0  0.54001  0.76086  0.94962  1.0000
  C   C3        1.0  0.03999  0.26088  0.55038  1.0000
  C   C4        1.0  0.46000  0.23912  0.05038  1.0000
  C   C5        1.0  0.11625  0.80435  0.40476  1.0000
  C   C6        1.0  0.38375  0.69565  0.90476  1.0000
  C   C7        1.0  0.88373  0.19566  0.59523  1.0000
  C   C8        1.0  0.61628  0.30433  0.09523  1.0000
  C   C9        1.0  0.09641  0.93170  0.37602  1.0000
  C   C10       1.0  0.40360  0.56829  0.87602  1.0000
  C   C11       1.0  0.90357  0.06831  0.62398  1.0000
  C   C12       1.0  0.59645  0.43169  0.12398  1.0000
  C   C13       1.0  0.92005  0.99998  0.39099  1.0000
  C   C14       1.0  0.57996  0.50002  0.89099  1.0000
  C   C15       1.0  0.07995  0.00004  0.60901  1.0000
  C   C16       1.0  0.42008  0.49996  0.10902  1.0000
  C   C17       1.0  0.76378  0.93723  0.43452  1.0000
  C   C18       1.0  0.73622  0.56277  0.93452  1.0000
  C   C19       1.0  0.23619  0.06278  0.56548  1.0000
  C   C20       1.0  0.26381  0.43723  0.06549  1.0000
  C   C21       1.0  0.77838  0.80769  0.46532  1.0000
  C   C22       1.0  0.72160  0.69231  0.96532  1.0000
  C   C23       1.0  0.22158  0.19232  0.53469  1.0000
  C   C24       1.0  0.27839  0.30768  0.03469  1.0000
  C   C25       1.0  0.60710  0.75541  0.51033  1.0000
  C   C26       1.0  0.89288  0.74459  0.01034  1.0000
  C   C27       1.0  0.39285  0.24461  0.48967  1.0000
  C   C28       1.0  0.10712  0.25540  0.98967  1.0000
  C   C29       1.0  0.45249  0.49097  0.62571  1.0000
  C   C30       1.0  0.04749  0.00903  0.12572  1.0000
  C   C31       1.0  0.54749  0.50904  0.37427  1.0000
  C   C32       1.0  0.95249  0.99097  0.87428  1.0000
  C   C33       1.0  0.29272  0.44303  0.67890  1.0000
  C   C34       1.0  0.20730  0.05697  0.17892  1.0000
  C   C35       1.0  0.70730  0.55698  0.32108  1.0000
  C   C36       1.0  0.79271  0.94304  0.82109  1.0000
  C   C37       1.0  0.32392  0.32981  0.72186  1.0000
  C   C38       1.0  0.17607  0.17018  0.22187  1.0000
  C   C39       1.0  0.67609  0.67020  0.27813  1.0000
  C   C40       1.0  0.82393  0.82981  0.77814  1.0000
  C   C41       1.0  0.17708  0.28272  0.77333  1.0000
  C   C42       1.0  0.32290  0.21729  0.27333  1.0000
  C   C43       1.0  0.82293  0.71730  0.22667  1.0000
  C   C44       1.0  0.67707  0.78272  0.72667  1.0000
  C   C45       1.0  0.99555  0.34879  0.78266  1.0000
  C   C46       1.0  0.50443  0.15120  0.28266  1.0000
  C   C47       1.0  0.00446  0.65120  0.21734  1.0000
  C   C48       1.0  0.49556  0.84881  0.71734  1.0000
  C   C49       1.0  0.96104  0.46129  0.74127  1.0000
  C   C50       1.0  0.53898  0.03871  0.24128  1.0000
  C   C51       1.0  0.03899  0.53871  0.25873  1.0000
  C   C52       1.0  0.46103  0.96130  0.75873  1.0000
  C   C53       1.0  0.10809  0.50910  0.68891  1.0000
  C   C54       1.0  0.39192  0.99089  0.18892  1.0000
  C   C55       1.0  0.89193  0.49089  0.31108  1.0000
  C   C56       1.0  0.60809  0.00910  0.81108  1.0000
  N   N1        1.0  0.59984  0.64330  0.54726  1.0000
  N   N2        1.0  0.90012  0.85671  0.04726  1.0000
  N   N3        1.0  0.40009  0.35673  0.45274  1.0000
  N   N4        1.0  0.09986  0.14329  0.95274  1.0000
  N   N5        1.0  0.42746  0.60469  0.58919  1.0000
  N   N6        1.0  0.07258  0.89529  0.08919  1.0000
  N   N7        1.0  0.57258  0.39531  0.41081  1.0000
  N   N8        1.0  0.92747  0.10468  0.91081  1.0000
  O   O1        1.0  0.98375  0.61413  0.47549  1.0000
  O   O2        1.0  0.51624  0.88586  0.97549  1.0000
  O   O3        1.0  0.01624  0.38589  0.52450  1.0000
  O   O4        1.0  0.48375  0.11410  0.02451  1.0000
  O   O5        1.0  0.61463  0.42374  0.61679  1.0000
  O   O6        1.0  0.88535  0.07626  0.11680  1.0000
  O   O7        1.0  0.38534  0.57627  0.38320  1.0000
  O   O8        1.0  0.11465  0.92374  0.88321  1.0000
  O   O9        1.0  0.06621  0.61682  0.64772  1.0000
  O   O10       1.0  0.43379  0.88318  0.14773  1.0000
  O   O11       1.0  0.93378  0.38318  0.35227  1.0000
  O   O12       1.0  0.56620  0.11682  0.85228  1.0000
