data_image0
_chemical_formula_structural       Na2H34C52O30
_chemical_formula_sum              "Na2 H34 C52 O30"
_cell_length_a       8.57533
_cell_length_b       10.3277
_cell_length_c       15.326
_cell_angle_alpha    74.5279
_cell_angle_beta     80.5973
_cell_angle_gamma    85.8647

_space_group_name_H-M_alt    "P 1"
_space_group_IT_number       1

loop_
  _space_group_symop_operation_xyz
  'x, y, z'

loop_
  _atom_site_type_symbol
  _atom_site_label
  _atom_site_symmetry_multiplicity
  _atom_site_fract_x
  _atom_site_fract_y
  _atom_site_fract_z
  _atom_site_occupancy
  Na  Na1       1.0  0.12884  0.38490  0.45597  1.0000
  Na  Na2       1.0  0.87115  0.61510  0.54403  1.0000
  H   H1        1.0  0.37910  0.46913  0.16381  1.0000
  H   H2        1.0  0.62090  0.53087  0.83620  1.0000
  H   H3        1.0  0.73522  0.72315  0.19204  1.0000
  H   H4        1.0  0.26477  0.27685  0.80795  1.0000
  H   H5        1.0  0.85469  0.44335  0.02508  1.0000
  H   H6        1.0  0.14531  0.55664  0.97492  1.0000
  H   H7        1.0  0.57925  0.36623  0.06260  1.0000
  H   H8        1.0  0.42075  0.63377  0.93740  1.0000
  H   H9        1.0  0.93333  0.62285  0.09034  1.0000
  H   H10       1.0  0.06667  0.37715  0.90966  1.0000
  H   H11       1.0  0.40896  0.61165  0.31898  1.0000
  H   H12       1.0  0.59104  0.38835  0.68102  1.0000
  H   H13       1.0  0.31111  0.88248  0.78955  1.0000
  H   H14       1.0  0.68889  0.11752  0.21045  1.0000
  H   H15       1.0  0.74883  0.75113  0.85266  1.0000
  H   H16       1.0  0.25117  0.24887  0.14734  1.0000
  H   H17       1.0  0.94017  0.65890  0.74253  1.0000
  H   H18       1.0  0.05983  0.34110  0.25747  1.0000
  H   H19       1.0  0.83863  0.90503  0.93319  1.0000
  H   H20       1.0  0.16136  0.09498  0.06681  1.0000
  H   H21       1.0  0.12169  0.97186  0.89969  1.0000
  H   H22       1.0  0.87831  0.02814  0.10031  1.0000
  H   H23       1.0  0.48808  0.56911  0.59450  1.0000
  H   H24       1.0  0.51192  0.43089  0.40550  1.0000
  H   H25       1.0  0.36492  0.05215  0.33398  1.0000
  H   H26       1.0  0.63508  0.94785  0.66602  1.0000
  H   H27       1.0  0.91206  0.75673  0.32891  1.0000
  H   H28       1.0  0.08795  0.24327  0.67109  1.0000
  H   H29       1.0  0.30524  0.60657  0.72877  1.0000
  H   H30       1.0  0.69477  0.39343  0.27123  1.0000
  H   H31       1.0  0.29872  0.18554  0.59476  1.0000
  H   H32       1.0  0.70128  0.81446  0.40524  1.0000
  H   H33       1.0  0.30289  0.34141  0.59655  1.0000
  H   H34       1.0  0.69711  0.65860  0.40345  1.0000
  C   C1        1.0  0.45698  0.88974  0.13707  1.0000
  C   C2        1.0  0.54302  0.11026  0.86292  1.0000
  C   C3        1.0  0.39031  0.81207  0.23126  1.0000
  C   C4        1.0  0.60969  0.18793  0.76874  1.0000
  C   C5        1.0  0.26762  0.72126  0.21791  1.0000
  C   C6        1.0  0.73238  0.27874  0.78209  1.0000
  C   C7        1.0  0.54404  0.60272  0.18441  1.0000
  C   C8        1.0  0.45596  0.39728  0.81559  1.0000
  C   C9        1.0  0.50101  0.50205  0.14764  1.0000
  C   C10       1.0  0.49899  0.49795  0.85236  1.0000
  C   C11       1.0  0.70066  0.64494  0.16377  1.0000
  C   C12       1.0  0.29934  0.35506  0.83623  1.0000
  C   C13       1.0  0.76818  0.48886  0.06936  1.0000
  C   C14       1.0  0.23182  0.51114  0.93064  1.0000
  C   C15       1.0  0.61282  0.44505  0.09056  1.0000
  C   C16       1.0  0.38718  0.55495  0.90944  1.0000
  C   C17       1.0  0.81218  0.58852  0.10609  1.0000
  C   C18       1.0  0.18782  0.41148  0.89391  1.0000
  C   C19       1.0  0.42275  0.66143  0.24586  1.0000
  C   C20       1.0  0.57725  0.33858  0.75414  1.0000
  C   C21       1.0  0.13742  0.76624  0.75763  1.0000
  C   C22       1.0  0.86258  0.23377  0.24237  1.0000
  C   C23       1.0  0.18760  0.85440  0.80214  1.0000
  C   C24       1.0  0.81240  0.14560  0.19786  1.0000
  C   C25       1.0  0.87216  0.77962  0.83885  1.0000
  C   C26       1.0  0.12784  0.22038  0.16115  1.0000
  C   C27       1.0  0.97903  0.72896  0.77619  1.0000
  C   C28       1.0  0.02097  0.27104  0.22381  1.0000
  C   C29       1.0  0.92255  0.86706  0.88351  1.0000
  C   C30       1.0  0.07745  0.13294  0.11649  1.0000
  C   C31       1.0  0.08022  0.90464  0.86487  1.0000
  C   C32       1.0  0.91978  0.09536  0.13513  1.0000
  C   C33       1.0  0.32319  0.93139  0.59105  1.0000
  C   C34       1.0  0.67681  0.06861  0.40895  1.0000
  C   C35       1.0  0.37144  0.78576  0.61815  1.0000
  C   C36       1.0  0.62856  0.21423  0.38185  1.0000
  C   C37       1.0  0.23734  0.71303  0.59663  1.0000
  C   C38       1.0  0.76266  0.28697  0.40337  1.0000
  C   C39       1.0  0.11416  0.68048  0.28070  1.0000
  C   C40       1.0  0.88584  0.31952  0.71930  1.0000
  C   C41       1.0  0.36722  0.87383  0.31113  1.0000
  C   C42       1.0  0.63278  0.12616  0.68887  1.0000
  C   C43       1.0  0.54493  0.74708  0.61179  1.0000
  C   C44       1.0  0.45508  0.25292  0.38821  1.0000
  C   C45       1.0  0.25025  0.58676  0.56305  1.0000
  C   C46       1.0  0.74975  0.41324  0.43695  1.0000
  C   C47       1.0  0.25357  0.70385  0.69577  1.0000
  C   C48       1.0  0.74643  0.29615  0.30423  1.0000
  C   C49       1.0  0.26412  0.76042  0.11685  1.0000
  C   C50       1.0  0.73588  0.23957  0.88315  1.0000
  C   C51       1.0  0.12366  0.82277  0.56001  1.0000
  C   C52       1.0  0.87634  0.17723  0.43999  1.0000
  O   O1        1.0  0.38373  0.84951  0.07289  1.0000
  O   O2        1.0  0.61627  0.15049  0.92711  1.0000
  O   O3        1.0  0.14652  0.56562  0.52127  1.0000
  O   O4        1.0  0.85348  0.43438  0.47873  1.0000
  O   O5        1.0  0.36746  0.50429  0.58459  1.0000
  O   O6        1.0  0.63254  0.49571  0.41541  1.0000
  O   O7        1.0  0.58751  0.62678  0.60167  1.0000
  O   O8        1.0  0.41249  0.37322  0.39833  1.0000
  O   O9        1.0  0.64433  0.82427  0.61727  1.0000
  O   O10       1.0  0.35567  0.17573  0.38273  1.0000
  O   O11       1.0  0.37032  0.00652  0.28271  1.0000
  O   O12       1.0  0.62968  0.99348  0.71729  1.0000
  O   O13       1.0  0.34595  0.80553  0.39072  1.0000
  O   O14       1.0  0.65406  0.19448  0.60928  1.0000
  O   O15       1.0  0.08961  0.56239  0.32184  1.0000
  O   O16       1.0  0.91038  0.43761  0.67816  1.0000
  O   O17       1.0  0.01515  0.78358  0.28254  1.0000
  O   O18       1.0  0.98485  0.21642  0.71746  1.0000
  O   O19       1.0  0.39323  0.02844  0.59303  1.0000
  O   O20       1.0  0.60677  0.97156  0.40697  1.0000
  O   O21       1.0  0.99979  0.81744  0.53412  1.0000
  O   O22       1.0  0.00021  0.18256  0.46588  1.0000
  O   O23       1.0  0.23328  0.26728  0.59873  1.0000
  O   O24       1.0  0.76672  0.73272  0.40127  1.0000
  O   O25       1.0  0.56019  0.97005  0.11300  1.0000
  O   O26       1.0  0.43981  0.02995  0.88700  1.0000
  O   O27       1.0  0.17564  0.72437  0.07479  1.0000
  O   O28       1.0  0.82436  0.27563  0.92521  1.0000
  O   O29       1.0  0.17775  0.94662  0.56244  1.0000
  O   O30       1.0  0.82225  0.05338  0.43757  1.0000
