data_image0
_chemical_formula_structural       Cu8H36C44I8N12
_chemical_formula_sum              "Cu8 H36 C44 I8 N12"
_cell_length_a       9.77518
_cell_length_b       11.3401
_cell_length_c       12.261
_cell_angle_alpha    90
_cell_angle_beta     90
_cell_angle_gamma    93.4574

_space_group_name_H-M_alt    "P 1"
_space_group_IT_number       1

loop_
  _space_group_symop_operation_xyz
  'x, y, z'

loop_
  _atom_site_type_symbol
  _atom_site_label
  _atom_site_symmetry_multiplicity
  _atom_site_fract_x
  _atom_site_fract_y
  _atom_site_fract_z
  _atom_site_occupancy
  Cu  Cu1       1.0  0.87432  0.55575  0.69870  1.0000
  Cu  Cu2       1.0  0.62568  0.94425  0.19869  1.0000
  Cu  Cu3       1.0  0.12568  0.44425  0.30131  1.0000
  Cu  Cu4       1.0  0.37432  0.05575  0.80130  1.0000
  Cu  Cu5       1.0  0.98100  0.38490  0.47433  1.0000
  Cu  Cu6       1.0  0.51900  0.11510  0.97433  1.0000
  Cu  Cu7       1.0  0.01900  0.61510  0.52567  1.0000
  Cu  Cu8       1.0  0.48101  0.88490  0.02567  1.0000
  H   H1        1.0  0.14721  0.42232  0.72723  1.0000
  H   H2        1.0  0.35280  0.07767  0.22722  1.0000
  H   H3        1.0  0.85280  0.57767  0.27277  1.0000
  H   H4        1.0  0.64720  0.92233  0.77277  1.0000
  H   H5        1.0  0.23476  0.28826  0.86878  1.0000
  H   H6        1.0  0.26524  0.21173  0.36877  1.0000
  H   H7        1.0  0.76524  0.71173  0.13123  1.0000
  H   H8        1.0  0.73476  0.78827  0.63123  1.0000
  H   H9        1.0  0.08640  0.23825  0.03451  1.0000
  H   H10       1.0  0.41360  0.26175  0.53451  1.0000
  H   H11       1.0  0.91360  0.76175  0.96549  1.0000
  H   H12       1.0  0.58640  0.73826  0.46549  1.0000
  H   H13       1.0  0.86078  0.32933  0.04988  1.0000
  H   H14       1.0  0.63922  0.17067  0.54987  1.0000
  H   H15       1.0  0.13922  0.67066  0.95013  1.0000
  H   H16       1.0  0.36077  0.82934  0.45013  1.0000
  H   H17       1.0  0.68648  0.45886  0.96829  1.0000
  H   H18       1.0  0.81352  0.04114  0.46829  1.0000
  H   H19       1.0  0.31352  0.54114  0.03171  1.0000
  H   H20       1.0  0.18647  0.95886  0.53170  1.0000
  H   H21       1.0  0.67099  0.70909  0.96146  1.0000
  H   H22       1.0  0.82901  0.79091  0.46145  1.0000
  H   H23       1.0  0.32902  0.29091  0.03855  1.0000
  H   H24       1.0  0.17098  0.20908  0.53854  1.0000
  H   H25       1.0  0.28712  0.78640  0.84731  1.0000
  H   H26       1.0  0.21288  0.71360  0.34731  1.0000
  H   H27       1.0  0.71287  0.21360  0.15269  1.0000
  H   H28       1.0  0.78712  0.28640  0.65269  1.0000
  H   H29       1.0  0.29251  0.63213  0.70334  1.0000
  H   H30       1.0  0.20749  0.86786  0.20334  1.0000
  H   H31       1.0  0.70749  0.36787  0.29666  1.0000
  H   H32       1.0  0.79251  0.13214  0.79667  1.0000
  H   H33       1.0  0.50363  0.51506  0.68465  1.0000
  H   H34       1.0  0.99637  0.98493  0.18465  1.0000
  H   H35       1.0  0.49637  0.48494  0.31535  1.0000
  H   H36       1.0  0.00363  0.01507  0.81535  1.0000
  C   C1        1.0  0.08667  0.39936  0.79986  1.0000
  C   C2        1.0  0.41333  0.10063  0.29985  1.0000
  C   C3        1.0  0.91333  0.60063  0.20015  1.0000
  C   C4        1.0  0.58667  0.89937  0.70015  1.0000
  C   C5        1.0  0.13486  0.32481  0.87991  1.0000
  C   C6        1.0  0.36515  0.17518  0.37989  1.0000
  C   C7        1.0  0.86515  0.67518  0.12010  1.0000
  C   C8        1.0  0.63485  0.82482  0.62010  1.0000
  C   C9        1.0  0.05289  0.29713  0.97078  1.0000
  C   C10       1.0  0.44711  0.20287  0.47078  1.0000
  C   C11       1.0  0.94711  0.70286  0.02922  1.0000
  C   C12       1.0  0.55289  0.79714  0.52922  1.0000
  C   C13       1.0  0.92634  0.34636  0.97909  1.0000
  C   C14       1.0  0.57366  0.15364  0.47908  1.0000
  C   C15       1.0  0.07366  0.65364  0.02091  1.0000
  C   C16       1.0  0.42634  0.84637  0.52091  1.0000
  C   C17       1.0  0.88431  0.41905  0.89494  1.0000
  C   C18       1.0  0.61569  0.08095  0.39493  1.0000
  C   C19       1.0  0.11569  0.58094  0.10507  1.0000
  C   C20       1.0  0.38431  0.91906  0.60506  1.0000
  C   C21       1.0  0.75439  0.47469  0.89805  1.0000
  C   C22       1.0  0.74560  0.02531  0.39804  1.0000
  C   C23       1.0  0.24560  0.52531  0.10196  1.0000
  C   C24       1.0  0.25439  0.97469  0.60196  1.0000
  C   C25       1.0  0.60166  0.60219  0.82368  1.0000
  C   C26       1.0  0.89834  0.89780  0.32368  1.0000
  C   C27       1.0  0.39833  0.39781  0.17632  1.0000
  C   C28       1.0  0.10166  0.10219  0.67632  1.0000
  C   C29       1.0  0.58835  0.68907  0.90352  1.0000
  C   C30       1.0  0.91165  0.81093  0.40352  1.0000
  C   C31       1.0  0.41165  0.31093  0.09648  1.0000
  C   C32       1.0  0.08834  0.18907  0.59648  1.0000
  C   C33       1.0  0.37454  0.73160  0.83986  1.0000
  C   C34       1.0  0.12546  0.76839  0.33986  1.0000
  C   C35       1.0  0.62546  0.26840  0.16014  1.0000
  C   C36       1.0  0.87454  0.23160  0.66014  1.0000
  C   C37       1.0  0.37917  0.64577  0.75882  1.0000
  C   C38       1.0  0.12083  0.85423  0.25882  1.0000
  C   C39       1.0  0.62083  0.35423  0.24118  1.0000
  C   C40       1.0  0.87917  0.14577  0.74118  1.0000
  C   C41       1.0  0.49492  0.58115  0.74836  1.0000
  C   C42       1.0  0.00507  0.91885  0.24836  1.0000
  C   C43       1.0  0.50507  0.41885  0.25164  1.0000
  C   C44       1.0  0.99493  0.08115  0.75164  1.0000
  I   I1        1.0  0.76423  0.50444  0.50980  1.0000
  I   I2        1.0  0.73577  0.99557  0.00979  1.0000
  I   I3        1.0  0.23577  0.49556  0.49021  1.0000
  I   I4        1.0  0.26423  0.00444  0.99020  1.0000
  I   I5        1.0  0.01606  0.75389  0.70511  1.0000
  I   I6        1.0  0.48394  0.74611  0.20511  1.0000
  I   I7        1.0  0.98394  0.24611  0.29489  1.0000
  I   I8        1.0  0.51607  0.25390  0.79489  1.0000
  N   N1        1.0  0.96292  0.44410  0.80533  1.0000
  N   N2        1.0  0.53708  0.05590  0.30532  1.0000
  N   N3        1.0  0.03708  0.55589  0.19467  1.0000
  N   N4        1.0  0.46292  0.94411  0.69467  1.0000
  N   N5        1.0  0.72291  0.54232  0.81777  1.0000
  N   N6        1.0  0.77710  0.95768  0.31776  1.0000
  N   N7        1.0  0.27710  0.45768  0.18223  1.0000
  N   N8        1.0  0.22290  0.04232  0.68223  1.0000
  N   N9        1.0  0.47825  0.75412  0.91069  1.0000
  N   N10       1.0  0.02175  0.74588  0.41069  1.0000
  N   N11       1.0  0.52175  0.24588  0.08931  1.0000
  N   N12       1.0  0.97825  0.25412  0.58931  1.0000
