data_image0
_chemical_formula_structural       Dy4H40C24O38
_chemical_formula_sum              "Dy4 H40 C24 O38"
_cell_length_a       8.82067
_cell_length_b       9.72761
_cell_length_c       15.0434
_cell_angle_alpha    90
_cell_angle_beta     90
_cell_angle_gamma    116.961

_space_group_name_H-M_alt    "P 1"
_space_group_IT_number       1

loop_
  _space_group_symop_operation_xyz
  'x, y, z'

loop_
  _atom_site_type_symbol
  _atom_site_label
  _atom_site_symmetry_multiplicity
  _atom_site_fract_x
  _atom_site_fract_y
  _atom_site_fract_z
  _atom_site_occupancy
  Dy  Dy1       1.0  0.61856  0.23738  0.99998  1.0000
  Dy  Dy2       1.0  0.38144  0.76262  0.49998  1.0000
  Dy  Dy3       1.0  0.99659  0.99998  0.75003  1.0000
  Dy  Dy4       1.0  0.00341  0.00002  0.25003  1.0000
  H   H1        1.0  0.74970  0.61479  0.87635  1.0000
  H   H2        1.0  0.25029  0.38521  0.37635  1.0000
  H   H3        1.0  0.13506  0.38557  0.62358  1.0000
  H   H4        1.0  0.86494  0.61443  0.12358  1.0000
  H   H5        1.0  0.89341  0.58891  0.80266  1.0000
  H   H6        1.0  0.10659  0.41109  0.30266  1.0000
  H   H7        1.0  0.30451  0.41115  0.69728  1.0000
  H   H8        1.0  0.69549  0.58885  0.19728  1.0000
  H   H9        1.0  0.59773  0.36640  0.72407  1.0000
  H   H10       1.0  0.40227  0.63360  0.22407  1.0000
  H   H11       1.0  0.23205  0.63393  0.77594  1.0000
  H   H12       1.0  0.76796  0.36607  0.27594  1.0000
  H   H13       1.0  0.52623  0.46190  0.80241  1.0000
  H   H14       1.0  0.47376  0.53810  0.30241  1.0000
  H   H15       1.0  0.06488  0.53838  0.69770  1.0000
  H   H16       1.0  0.93512  0.46162  0.19770  1.0000
  H   H17       1.0  0.40368  0.82911  0.88162  1.0000
  H   H18       1.0  0.59632  0.17090  0.38162  1.0000
  H   H19       1.0  0.57456  0.17088  0.61831  1.0000
  H   H20       1.0  0.42544  0.82913  0.11831  1.0000
  H   H21       1.0  0.51557  0.76619  0.95958  1.0000
  H   H22       1.0  0.48443  0.23381  0.45958  1.0000
  H   H23       1.0  0.74958  0.23383  0.54050  1.0000
  H   H24       1.0  0.25042  0.76617  0.04050  1.0000
  H   H25       1.0  0.19229  0.14621  0.58384  1.0000
  H   H26       1.0  0.80771  0.85379  0.08384  1.0000
  H   H27       1.0  0.04619  0.85376  0.91614  1.0000
  H   H28       1.0  0.95381  0.14625  0.41614  1.0000
  H   H29       1.0  0.16511  0.97564  0.59631  1.0000
  H   H30       1.0  0.83489  0.02435  0.09631  1.0000
  H   H31       1.0  0.18950  0.02434  0.90367  1.0000
  H   H32       1.0  0.81050  0.97566  0.40367  1.0000
  H   H33       1.0  0.68940  0.74602  0.74561  1.0000
  H   H34       1.0  0.31060  0.25398  0.24561  1.0000
  H   H35       1.0  0.94329  0.25389  0.75441  1.0000
  H   H36       1.0  0.05671  0.74611  0.25441  1.0000
  H   H37       1.0  0.71365  0.78944  0.64606  1.0000
  H   H38       1.0  0.28635  0.21056  0.14606  1.0000
  H   H39       1.0  0.92416  0.21063  0.85397  1.0000
  H   H40       1.0  0.07584  0.78937  0.35397  1.0000
  C   C1        1.0  0.92915  0.56016  0.94263  1.0000
  C   C2        1.0  0.07084  0.43983  0.44263  1.0000
  C   C3        1.0  0.36902  0.43984  0.55729  1.0000
  C   C4        1.0  0.63098  0.56016  0.05729  1.0000
  C   C5        1.0  0.81650  0.54446  0.86308  1.0000
  C   C6        1.0  0.18350  0.45554  0.36308  1.0000
  C   C7        1.0  0.27221  0.45570  0.63686  1.0000
  C   C8        1.0  0.72779  0.54430  0.13686  1.0000
  C   C9        1.0  0.56084  0.36680  0.79401  1.0000
  C   C10       1.0  0.43917  0.63320  0.29401  1.0000
  C   C11       1.0  0.19460  0.63347  0.70602  1.0000
  C   C12       1.0  0.80541  0.36653  0.20602  1.0000
  C   C13       1.0  0.40420  0.21906  0.81672  1.0000
  C   C14       1.0  0.59580  0.78094  0.31672  1.0000
  C   C15       1.0  0.18560  0.78115  0.68331  1.0000
  C   C16       1.0  0.81440  0.21885  0.18331  1.0000
  C   C17       1.0  0.50618  0.86668  0.93171  1.0000
  C   C18       1.0  0.49382  0.13332  0.43171  1.0000
  C   C19       1.0  0.63967  0.13331  0.56832  1.0000
  C   C20       1.0  0.36033  0.86668  0.06832  1.0000
  C   C21       1.0  0.67449  0.97115  0.88871  1.0000
  C   C22       1.0  0.32551  0.02885  0.38871  1.0000
  C   C23       1.0  0.70347  0.02885  0.61135  1.0000
  C   C24       1.0  0.29653  0.97115  0.11135  1.0000
  O   O1        1.0  0.89213  0.44016  0.99014  1.0000
  O   O2        1.0  0.10787  0.55985  0.49014  1.0000
  O   O3        1.0  0.45233  0.55985  0.50984  1.0000
  O   O4        1.0  0.54766  0.44015  0.00984  1.0000
  O   O5        1.0  0.04772  0.69262  0.95725  1.0000
  O   O6        1.0  0.95228  0.30738  0.45724  1.0000
  O   O7        1.0  0.35471  0.30728  0.54261  1.0000
  O   O8        1.0  0.64528  0.69272  0.04261  1.0000
  O   O9        1.0  0.69472  0.38608  0.85308  1.0000
  O   O10       1.0  0.30528  0.61393  0.35308  1.0000
  O   O11       1.0  0.30903  0.61413  0.64687  1.0000
  O   O12       1.0  0.69097  0.38587  0.14687  1.0000
  O   O13       1.0  0.40388  0.15151  0.88946  1.0000
  O   O14       1.0  0.59612  0.84849  0.38947  1.0000
  O   O15       1.0  0.25266  0.84862  0.61051  1.0000
  O   O16       1.0  0.74734  0.15138  0.11051  1.0000
  O   O17       1.0  0.28255  0.17554  0.76242  1.0000
  O   O18       1.0  0.71745  0.82446  0.26242  1.0000
  O   O19       1.0  0.10749  0.82469  0.73762  1.0000
  O   O20       1.0  0.89251  0.17531  0.23762  1.0000
  O   O21       1.0  0.47662  0.95366  0.99996  1.0000
  O   O22       1.0  0.52338  0.04634  0.49997  1.0000
  O   O23       1.0  0.74372  0.11398  0.91002  1.0000
  O   O24       1.0  0.25629  0.88602  0.41001  1.0000
  O   O25       1.0  0.63003  0.88606  0.58997  1.0000
  O   O26       1.0  0.36997  0.11394  0.08997  1.0000
  O   O27       1.0  0.73643  0.91110  0.83421  1.0000
  O   O28       1.0  0.26358  0.08890  0.33421  1.0000
  O   O29       1.0  0.82532  0.08890  0.66593  1.0000
  O   O30       1.0  0.17468  0.91110  0.16592  1.0000
  O   O31       1.0  0.10657  0.04131  0.60463  1.0000
  O   O32       1.0  0.89343  0.95868  0.10463  1.0000
  O   O33       1.0  0.06528  0.95864  0.89539  1.0000
  O   O34       1.0  0.93472  0.04137  0.39539  1.0000
  O   O35       1.0  0.76654  0.75729  0.69611  1.0000
  O   O36       1.0  0.23346  0.24271  0.19612  1.0000
  O   O37       1.0  0.00918  0.24268  0.80392  1.0000
  O   O38       1.0  0.99082  0.75732  0.30392  1.0000
