data_image0
_chemical_formula_structural       U2H28C44O14
_chemical_formula_sum              "U2 H28 C44 O14"
_cell_length_a       9.91738
_cell_length_b       9.91741
_cell_length_c       10.8297
_cell_angle_alpha    79.1922
_cell_angle_beta     79.1918
_cell_angle_gamma    69.9024

_space_group_name_H-M_alt    "P 1"
_space_group_IT_number       1

loop_
  _space_group_symop_operation_xyz
  'x, y, z'

loop_
  _atom_site_type_symbol
  _atom_site_label
  _atom_site_symmetry_multiplicity
  _atom_site_fract_x
  _atom_site_fract_y
  _atom_site_fract_z
  _atom_site_occupancy
  U   U1        1.0  0.42439  0.57562  0.75000  1.0000
  U   U2        1.0  0.57562  0.42438  0.25000  1.0000
  H   H1        1.0  0.12990  0.83325  0.82468  1.0000
  H   H2        1.0  0.16674  0.87008  0.67531  1.0000
  H   H3        1.0  0.87010  0.16675  0.17532  1.0000
  H   H4        1.0  0.83326  0.12991  0.32469  1.0000
  H   H5        1.0  0.75560  0.71270  0.11680  1.0000
  H   H6        1.0  0.28730  0.24441  0.38320  1.0000
  H   H7        1.0  0.24440  0.28731  0.88321  1.0000
  H   H8        1.0  0.71269  0.75560  0.61680  1.0000
  H   H9        1.0  0.48879  0.92953  0.76956  1.0000
  H   H10       1.0  0.07046  0.51120  0.73045  1.0000
  H   H11       1.0  0.51121  0.07046  0.23044  1.0000
  H   H12       1.0  0.92953  0.48879  0.26955  1.0000
  H   H13       1.0  0.48369  0.13718  0.59836  1.0000
  H   H14       1.0  0.86281  0.51630  0.90164  1.0000
  H   H15       1.0  0.51631  0.86281  0.40163  1.0000
  H   H16       1.0  0.13719  0.48369  0.09836  1.0000
  H   H17       1.0  0.58948  0.77511  0.95500  1.0000
  H   H18       1.0  0.22488  0.41053  0.54500  1.0000
  H   H19       1.0  0.41053  0.22488  0.04501  1.0000
  H   H20       1.0  0.77512  0.58948  0.45500  1.0000
  H   H21       1.0  0.91158  0.06910  0.94346  1.0000
  H   H22       1.0  0.93090  0.08843  0.55653  1.0000
  H   H23       1.0  0.08843  0.93090  0.05653  1.0000
  H   H24       1.0  0.06910  0.91158  0.44347  1.0000
  H   H25       1.0  0.91542  0.85917  0.11135  1.0000
  H   H26       1.0  0.14083  0.08458  0.38864  1.0000
  H   H27       1.0  0.08458  0.14083  0.88865  1.0000
  H   H28       1.0  0.85917  0.91542  0.61136  1.0000
  C   C1        1.0  0.75378  0.80330  0.04199  1.0000
  C   C2        1.0  0.19669  0.24622  0.45800  1.0000
  C   C3        1.0  0.24622  0.19669  0.95800  1.0000
  C   C4        1.0  0.80330  0.75378  0.54200  1.0000
  C   C5        1.0  0.64746  0.19344  0.66524  1.0000
  C   C6        1.0  0.80656  0.35254  0.83477  1.0000
  C   C7        1.0  0.35254  0.80657  0.33477  1.0000
  C   C8        1.0  0.19344  0.64746  0.16524  1.0000
  C   C9        1.0  0.74276  0.16411  0.75355  1.0000
  C   C10       1.0  0.83589  0.25724  0.74645  1.0000
  C   C11       1.0  0.25724  0.83589  0.24645  1.0000
  C   C12       1.0  0.16411  0.74276  0.25355  1.0000
  C   C13       1.0  0.62862  0.32219  0.56629  1.0000
  C   C14       1.0  0.67781  0.37137  0.93371  1.0000
  C   C15       1.0  0.37138  0.67781  0.43371  1.0000
  C   C16       1.0  0.32219  0.62863  0.06629  1.0000
  C   C17       1.0  0.65600  0.95741  0.85525  1.0000
  C   C18       1.0  0.04258  0.34400  0.64474  1.0000
  C   C19       1.0  0.34400  0.04259  0.14474  1.0000
  C   C20       1.0  0.95741  0.65601  0.35526  1.0000
  C   C21       1.0  0.74929  0.04254  0.85030  1.0000
  C   C22       1.0  0.95746  0.25071  0.64969  1.0000
  C   C23       1.0  0.25071  0.95746  0.14970  1.0000
  C   C24       1.0  0.04254  0.74929  0.35030  1.0000
  C   C25       1.0  0.55956  0.99416  0.76391  1.0000
  C   C26       1.0  0.00583  0.44045  0.73609  1.0000
  C   C27       1.0  0.44046  0.00583  0.23609  1.0000
  C   C28       1.0  0.99416  0.55956  0.26391  1.0000
  C   C29       1.0  0.55731  0.10802  0.66926  1.0000
  C   C30       1.0  0.89199  0.44269  0.83074  1.0000
  C   C31       1.0  0.44269  0.89199  0.33074  1.0000
  C   C32       1.0  0.10802  0.55731  0.16926  1.0000
  C   C33       1.0  0.66121  0.83824  0.95226  1.0000
  C   C34       1.0  0.16175  0.33879  0.54774  1.0000
  C   C35       1.0  0.33879  0.16176  0.04774  1.0000
  C   C36       1.0  0.83824  0.66121  0.45226  1.0000
  C   C37       1.0  0.84330  0.00316  0.94458  1.0000
  C   C38       1.0  0.99684  0.15671  0.55541  1.0000
  C   C39       1.0  0.15670  0.99684  0.05542  1.0000
  C   C40       1.0  0.00316  0.84329  0.44459  1.0000
  C   C41       1.0  0.84485  0.88709  0.03808  1.0000
  C   C42       1.0  0.11290  0.15515  0.46191  1.0000
  C   C43       1.0  0.15515  0.11290  0.96192  1.0000
  C   C44       1.0  0.88709  0.84485  0.53809  1.0000
  O   O1        1.0  0.53861  0.68297  0.75136  1.0000
  O   O2        1.0  0.31702  0.46140  0.74864  1.0000
  O   O3        1.0  0.46139  0.31703  0.24864  1.0000
  O   O4        1.0  0.68298  0.53860  0.25136  1.0000
  O   O5        1.0  0.60166  0.44654  0.60040  1.0000
  O   O6        1.0  0.55345  0.39834  0.89960  1.0000
  O   O7        1.0  0.39835  0.55346  0.39960  1.0000
  O   O8        1.0  0.44655  0.60166  0.10040  1.0000
  O   O9        1.0  0.19763  0.80237  0.75000  1.0000
  O   O10       1.0  0.80236  0.19763  0.25000  1.0000
  O   O11       1.0  0.63684  0.30110  0.45264  1.0000
  O   O12       1.0  0.69890  0.36316  0.04736  1.0000
  O   O13       1.0  0.36316  0.69890  0.54737  1.0000
  O   O14       1.0  0.30111  0.63685  0.95264  1.0000
