data_image0
_chemical_formula_structural       Cu2H44C52N24O28
_chemical_formula_sum              "Cu2 H44 C52 N24 O28"
_cell_length_a       12.5724
_cell_length_b       12.8339
_cell_length_c       12.836
_cell_angle_alpha    62.2492
_cell_angle_beta     68.0887
_cell_angle_gamma    89.6004

_space_group_name_H-M_alt    "P 1"
_space_group_IT_number       1

loop_
  _space_group_symop_operation_xyz
  'x, y, z'

loop_
  _atom_site_type_symbol
  _atom_site_label
  _atom_site_symmetry_multiplicity
  _atom_site_fract_x
  _atom_site_fract_y
  _atom_site_fract_z
  _atom_site_occupancy
  Cu  Cu1       1.0  0.72322  0.01204  0.24543  1.0000
  Cu  Cu2       1.0  0.27678  0.98796  0.75457  1.0000
  H   H1        1.0  0.92191  0.42095  0.19283  1.0000
  H   H2        1.0  0.07809  0.57905  0.80717  1.0000
  H   H3        1.0  0.79720  0.71905  0.96063  1.0000
  H   H4        1.0  0.20280  0.28096  0.03937  1.0000
  H   H5        1.0  0.69284  0.36024  0.03860  1.0000
  H   H6        1.0  0.30717  0.63976  0.96140  1.0000
  H   H7        1.0  0.01055  0.19331  0.50176  1.0000
  H   H8        1.0  0.98945  0.80669  0.49824  1.0000
  H   H9        1.0  0.88720  0.11201  0.51813  1.0000
  H   H10       1.0  0.11280  0.88799  0.48188  1.0000
  H   H11       1.0  0.04521  0.12430  0.70824  1.0000
  H   H12       1.0  0.95479  0.87569  0.29176  1.0000
  H   H13       1.0  0.29623  0.07164  0.25428  1.0000
  H   H14       1.0  0.70377  0.92836  0.74572  1.0000
  H   H15       1.0  0.46744  0.25609  0.26784  1.0000
  H   H16       1.0  0.53256  0.74391  0.73216  1.0000
  H   H17       1.0  0.48129  0.81147  0.19840  1.0000
  H   H18       1.0  0.51871  0.18853  0.80160  1.0000
  H   H19       1.0  0.60817  0.92601  0.08723  1.0000
  H   H20       1.0  0.39183  0.07399  0.91277  1.0000
  H   H21       1.0  0.43562  0.17800  0.01761  1.0000
  H   H22       1.0  0.56438  0.82200  0.98239  1.0000
  H   H23       1.0  0.57995  0.15221  0.97599  1.0000
  H   H24       1.0  0.42004  0.84779  0.02401  1.0000
  H   H25       1.0  0.81527  0.54432  0.47546  1.0000
  H   H26       1.0  0.18473  0.45567  0.52455  1.0000
  H   H27       1.0  0.59062  0.33099  0.42763  1.0000
  H   H28       1.0  0.40938  0.66902  0.57237  1.0000
  H   H29       1.0  0.85482  0.87109  0.64213  1.0000
  H   H30       1.0  0.14518  0.12891  0.35787  1.0000
  H   H31       1.0  0.95803  0.80635  0.70346  1.0000
  H   H32       1.0  0.04197  0.19365  0.29654  1.0000
  H   H33       1.0  0.88246  0.93381  0.04079  1.0000
  H   H34       1.0  0.11754  0.06619  0.95921  1.0000
  H   H35       1.0  0.25804  0.91006  0.55590  1.0000
  H   H36       1.0  0.74196  0.08994  0.44411  1.0000
  H   H37       1.0  0.60491  0.71374  0.26941  1.0000
  H   H38       1.0  0.39509  0.28626  0.73059  1.0000
  H   H39       1.0  0.35451  0.96053  0.15367  1.0000
  H   H40       1.0  0.64549  0.03947  0.84633  1.0000
  H   H41       1.0  0.07478  0.00546  0.61171  1.0000
  H   H42       1.0  0.92521  0.99453  0.38829  1.0000
  H   H43       1.0  0.85734  0.26647  0.75791  1.0000
  H   H44       1.0  0.14266  0.73353  0.24209  1.0000
  C   C1        1.0  0.86433  0.57627  0.07952  1.0000
  C   C2        1.0  0.13567  0.42373  0.92048  1.0000
  C   C3        1.0  0.86955  0.45468  0.13747  1.0000
  C   C4        1.0  0.13046  0.54533  0.86252  1.0000
  C   C5        1.0  0.74038  0.54318  0.99245  1.0000
  C   C6        1.0  0.25962  0.45683  0.00755  1.0000
  C   C7        1.0  0.80031  0.62388  0.00569  1.0000
  C   C8        1.0  0.19970  0.37613  0.99431  1.0000
  C   C9        1.0  0.70595  0.42867  0.45842  1.0000
  C   C10       1.0  0.29405  0.57133  0.54157  1.0000
  C   C11       1.0  0.74114  0.42073  0.05068  1.0000
  C   C12       1.0  0.25887  0.57927  0.94932  1.0000
  C   C13       1.0  0.97904  0.11197  0.50447  1.0000
  C   C14       1.0  0.02096  0.88802  0.49553  1.0000
  C   C15       1.0  0.80584  0.37621  0.12456  1.0000
  C   C16       1.0  0.19417  0.62380  0.87543  1.0000
  C   C17       1.0  0.76820  0.76348  0.33835  1.0000
  C   C18       1.0  0.23181  0.23652  0.66165  1.0000
  C   C19       1.0  0.71563  0.64156  0.36919  1.0000
  C   C20       1.0  0.28437  0.35844  0.63080  1.0000
  C   C21       1.0  0.41787  0.17859  0.36228  1.0000
  C   C22       1.0  0.58213  0.82141  0.63772  1.0000
  C   C23       1.0  0.51650  0.89863  0.10811  1.0000
  C   C24       1.0  0.48350  0.10137  0.89189  1.0000
  C   C25       1.0  0.48956  0.11463  0.00168  1.0000
  C   C26       1.0  0.51044  0.88537  0.99832  1.0000
  C   C27       1.0  0.80697  0.24345  0.18969  1.0000
  C   C28       1.0  0.19304  0.75654  0.81030  1.0000
  C   C29       1.0  0.75180  0.53838  0.43856  1.0000
  C   C30       1.0  0.24820  0.46161  0.56144  1.0000
  C   C31       1.0  0.62583  0.41728  0.41128  1.0000
  C   C32       1.0  0.37417  0.58273  0.58872  1.0000
  C   C33       1.0  0.94795  0.88381  0.62328  1.0000
  C   C34       1.0  0.05205  0.11618  0.37672  1.0000
  C   C35       1.0  0.59090  0.52203  0.34422  1.0000
  C   C36       1.0  0.40910  0.47798  0.65578  1.0000
  C   C37       1.0  0.86166  0.02157  0.99647  1.0000
  C   C38       1.0  0.13834  0.97842  0.00353  1.0000
  C   C39       1.0  0.30908  0.99943  0.50975  1.0000
  C   C40       1.0  0.69092  0.00057  0.49025  1.0000
  C   C41       1.0  0.63302  0.63313  0.32322  1.0000
  C   C42       1.0  0.36698  0.36687  0.67678  1.0000
  C   C43       1.0  0.45242  0.00531  0.23552  1.0000
  C   C44       1.0  0.54758  0.99469  0.76448  1.0000
  C   C45       1.0  0.90743  0.99809  0.74394  1.0000
  C   C46       1.0  0.09257  0.00191  0.25606  1.0000
  C   C47       1.0  0.44719  0.99123  0.12714  1.0000
  C   C48       1.0  0.55281  0.00877  0.87286  1.0000
  C   C49       1.0  0.98419  0.99891  0.62056  1.0000
  C   C50       1.0  0.01581  0.00108  0.37944  1.0000
  C   C51       1.0  0.84691  0.19343  0.85147  1.0000
  C   C52       1.0  0.15309  0.80657  0.14853  1.0000
  N   N1        1.0  0.79849  0.07665  0.05545  1.0000
  N   N2        1.0  0.20151  0.92335  0.94455  1.0000
  N   N3        1.0  0.33187  0.05317  0.56720  1.0000
  N   N4        1.0  0.66813  0.94683  0.43280  1.0000
  N   N5        1.0  0.40075  0.16603  0.47524  1.0000
  N   N6        1.0  0.59925  0.83397  0.52476  1.0000
  N   N7        1.0  0.78901  0.18509  0.96491  1.0000
  N   N8        1.0  0.21099  0.81491  0.03509  1.0000
  N   N9        1.0  0.66956  0.58778  0.91703  1.0000
  N   N10       1.0  0.33044  0.41222  0.08297  1.0000
  N   N11       1.0  0.92583  0.65627  0.10111  1.0000
  N   N12       1.0  0.07418  0.34373  0.89889  1.0000
  N   N13       1.0  0.74533  0.32031  0.52997  1.0000
  N   N14       1.0  0.25466  0.67968  0.47004  1.0000
  N   N15       1.0  0.50836  0.51518  0.28997  1.0000
  N   N16       1.0  0.49164  0.48482  0.71003  1.0000
  N   N17       1.0  0.96075  0.06844  0.77123  1.0000
  N   N18       1.0  0.03925  0.93156  0.22877  1.0000
  N   N19       1.0  0.89444  0.09323  0.86703  1.0000
  N   N20       1.0  0.10556  0.90677  0.13297  1.0000
  N   N21       1.0  0.36303  0.05392  0.28482  1.0000
  N   N22       1.0  0.63697  0.94608  0.71518  1.0000
  N   N23       1.0  0.36040  0.07727  0.37962  1.0000
  N   N24       1.0  0.63960  0.92273  0.62038  1.0000
  O   O1        1.0  0.73413  0.85026  0.26432  1.0000
  O   O2        1.0  0.26588  0.14974  0.73568  1.0000
  O   O3        1.0  0.52845  0.97897  0.27721  1.0000
  O   O4        1.0  0.47155  0.02103  0.72280  1.0000
  O   O5        1.0  0.89218  0.20922  0.21453  1.0000
  O   O6        1.0  0.10782  0.79078  0.78547  1.0000
  O   O7        1.0  0.71443  0.17721  0.21416  1.0000
  O   O8        1.0  0.28557  0.82279  0.78584  1.0000
  O   O9        1.0  0.62417  0.51628  0.89909  1.0000
  O   O10       1.0  0.37583  0.48372  0.10092  1.0000
  O   O11       1.0  0.65956  0.69447  0.87720  1.0000
  O   O12       1.0  0.34044  0.30553  0.12280  1.0000
  O   O13       1.0  0.98291  0.61205  0.16626  1.0000
  O   O14       1.0  0.01710  0.38796  0.83374  1.0000
  O   O15       1.0  0.91503  0.76273  0.05515  1.0000
  O   O16       1.0  0.08497  0.23727  0.94485  1.0000
  O   O17       1.0  0.44857  0.59361  0.26935  1.0000
  O   O18       1.0  0.55143  0.40639  0.73065  1.0000
  O   O19       1.0  0.50551  0.43174  0.26756  1.0000
  O   O20       1.0  0.49449  0.56826  0.73244  1.0000
  O   O21       1.0  0.80809  0.32847  0.58191  1.0000
  O   O22       1.0  0.19189  0.67152  0.41810  1.0000
  O   O23       1.0  0.71392  0.22700  0.53320  1.0000
  O   O24       1.0  0.28607  0.77300  0.46680  1.0000
  O   O25       1.0  0.84048  0.76928  0.38263  1.0000
  O   O26       1.0  0.15952  0.23071  0.61737  1.0000
  O   O27       1.0  0.80409  0.94286  0.81299  1.0000
  O   O28       1.0  0.19591  0.05714  0.18701  1.0000
