data_image0
_chemical_formula_structural       Cu2H44C52N24O28
_chemical_formula_sum              "Cu2 H44 C52 N24 O28"
_cell_length_a       10.1484
_cell_length_b       11.5534
_cell_length_c       14.8155
_cell_angle_alpha    74.9305
_cell_angle_beta     89.0614
_cell_angle_gamma    69.9758

_space_group_name_H-M_alt    "P 1"
_space_group_IT_number       1

loop_
  _space_group_symop_operation_xyz
  'x, y, z'

loop_
  _atom_site_type_symbol
  _atom_site_label
  _atom_site_symmetry_multiplicity
  _atom_site_fract_x
  _atom_site_fract_y
  _atom_site_fract_z
  _atom_site_occupancy
  Cu  Cu1       1.0  0.31923  0.07856  0.92451  1.0000
  Cu  Cu2       1.0  0.68076  0.92144  0.07549  1.0000
  H   H1        1.0  0.43691  0.38787  0.65826  1.0000
  H   H2        1.0  0.56309  0.61213  0.34174  1.0000
  H   H3        1.0  0.57919  0.99008  0.79198  1.0000
  H   H4        1.0  0.42081  0.00993  0.20802  1.0000
  H   H5        1.0  0.66253  0.29321  0.38800  1.0000
  H   H6        1.0  0.33747  0.70679  0.61200  1.0000
  H   H7        1.0  0.77780  0.27342  0.48376  1.0000
  H   H8        1.0  0.22220  0.72658  0.51624  1.0000
  H   H9        1.0  0.90514  0.25757  0.33965  1.0000
  H   H10       1.0  0.09487  0.74242  0.66035  1.0000
  H   H11       1.0  0.97163  0.11393  0.43091  1.0000
  H   H12       1.0  0.02838  0.88607  0.56909  1.0000
  H   H13       1.0  0.76255  0.16599  0.26558  1.0000
  H   H14       1.0  0.23745  0.83401  0.73443  1.0000
  H   H15       1.0  0.89170  0.91779  0.42162  1.0000
  H   H16       1.0  0.10830  0.08220  0.57838  1.0000
  H   H17       1.0  0.77668  0.94257  0.32428  1.0000
  H   H18       1.0  0.22332  0.05743  0.67572  1.0000
  H   H19       1.0  0.84110  0.07816  0.15006  1.0000
  H   H20       1.0  0.15890  0.92185  0.84994  1.0000
  H   H21       1.0  0.58453  0.10403  0.37886  1.0000
  H   H22       1.0  0.41547  0.89597  0.62114  1.0000
  H   H23       1.0  0.64678  0.95893  0.46809  1.0000
  H   H24       1.0  0.35322  0.04107  0.53191  1.0000
  H   H25       1.0  0.73613  0.10111  0.66532  1.0000
  H   H26       1.0  0.26387  0.89890  0.33468  1.0000
  H   H27       1.0  0.09112  0.80990  0.15084  1.0000
  H   H28       1.0  0.90888  0.19010  0.84916  1.0000
  H   H29       1.0  0.08615  0.19124  0.05628  1.0000
  H   H30       1.0  0.91385  0.80876  0.94372  1.0000
  H   H31       1.0  0.46889  0.71375  0.78374  1.0000
  H   H32       1.0  0.53112  0.28625  0.21626  1.0000
  H   H33       1.0  0.75176  0.34638  0.94681  1.0000
  H   H34       1.0  0.24825  0.65362  0.05319  1.0000
  H   H35       1.0  0.60824  0.66377  0.07022  1.0000
  H   H36       1.0  0.39176  0.33623  0.92977  1.0000
  H   H37       1.0  0.04705  0.30235  0.70039  1.0000
  H   H38       1.0  0.95295  0.69765  0.29961  1.0000
  H   H39       1.0  0.74733  0.68316  0.58043  1.0000
  H   H40       1.0  0.25267  0.31684  0.41957  1.0000
  H   H41       1.0  0.94127  0.57687  0.86296  1.0000
  H   H42       1.0  0.05873  0.42313  0.13704  1.0000
  H   H43       1.0  0.80019  0.04443  0.54205  1.0000
  H   H44       1.0  0.19981  0.95557  0.45795  1.0000
  C   C1        1.0  0.44581  0.29767  0.70798  1.0000
  C   C2        1.0  0.55418  0.70234  0.29202  1.0000
  C   C3        1.0  0.51893  0.09174  0.77660  1.0000
  C   C4        1.0  0.48106  0.90826  0.22340  1.0000
  C   C5        1.0  0.58826  0.15874  0.54971  1.0000
  C   C6        1.0  0.41175  0.84126  0.45029  1.0000
  C   C7        1.0  0.75220  0.22367  0.43647  1.0000
  C   C8        1.0  0.24780  0.77633  0.56353  1.0000
  C   C9        1.0  0.87917  0.17595  0.38196  1.0000
  C   C10       1.0  0.12083  0.82405  0.61804  1.0000
  C   C11       1.0  0.84931  0.10110  0.31810  1.0000
  C   C12       1.0  0.15069  0.89889  0.68190  1.0000
  C   C13       1.0  0.80313  0.99000  0.37315  1.0000
  C   C14       1.0  0.19687  0.01000  0.62685  1.0000
  C   C15       1.0  0.67627  0.03929  0.42768  1.0000
  C   C16       1.0  0.32373  0.96071  0.57232  1.0000
  C   C17       1.0  0.11999  0.89076  0.11410  1.0000
  C   C18       1.0  0.88001  0.10924  0.88590  1.0000
  C   C19       1.0  0.11419  0.08896  0.06613  1.0000
  C   C20       1.0  0.88581  0.91103  0.93387  1.0000
  C   C21       1.0  0.44248  0.84222  0.91324  1.0000
  C   C22       1.0  0.55753  0.15777  0.08676  1.0000
  C   C23       1.0  0.52987  0.70446  0.92535  1.0000
  C   C24       1.0  0.47014  0.29554  0.07465  1.0000
  C   C25       1.0  0.53053  0.65403  0.84915  1.0000
  C   C26       1.0  0.46947  0.34596  0.15084  1.0000
  C   C27       1.0  0.61179  0.52687  0.85745  1.0000
  C   C28       1.0  0.38822  0.47312  0.14255  1.0000
  C   C29       1.0  0.69106  0.44651  0.94023  1.0000
  C   C30       1.0  0.30895  0.55349  0.05977  1.0000
  C   C31       1.0  0.68533  0.49946  0.01504  1.0000
  C   C32       1.0  0.31467  0.50054  0.98496  1.0000
  C   C33       1.0  0.60730  0.62691  0.00974  1.0000
  C   C34       1.0  0.39270  0.37308  0.99026  1.0000
  C   C35       1.0  0.09873  0.32822  0.87295  1.0000
  C   C36       1.0  0.90127  0.67179  0.12705  1.0000
  C   C37       1.0  0.00459  0.42862  0.79061  1.0000
  C   C38       1.0  0.99540  0.57139  0.20939  1.0000
  C   C39       1.0  0.98910  0.39772  0.70717  1.0000
  C   C40       1.0  0.01090  0.60229  0.29283  1.0000
  C   C41       1.0  0.89756  0.48960  0.63333  1.0000
  C   C42       1.0  0.10243  0.51040  0.36667  1.0000
  C   C43       1.0  0.82157  0.61342  0.63795  1.0000
  C   C44       1.0  0.17842  0.38658  0.36206  1.0000
  C   C45       1.0  0.84184  0.64157  0.72160  1.0000
  C   C46       1.0  0.15816  0.35843  0.27840  1.0000
  C   C47       1.0  0.93077  0.55200  0.79805  1.0000
  C   C48       1.0  0.06923  0.44801  0.20195  1.0000
  C   C49       1.0  0.97601  0.05063  0.26627  1.0000
  C   C50       1.0  0.02400  0.94937  0.73373  1.0000
  C   C51       1.0  0.70994  0.11099  0.49248  1.0000
  C   C52       1.0  0.29006  0.88901  0.50752  1.0000
  N   N1        1.0  0.21491  0.01608  0.02669  1.0000
  N   N2        1.0  0.78509  0.98392  0.97331  1.0000
  N   N3        1.0  0.41793  0.15169  0.82319  1.0000
  N   N4        1.0  0.58206  0.84831  0.17681  1.0000
  N   N5        1.0  0.61436  0.47666  0.77560  1.0000
  N   N6        1.0  0.38564  0.52333  0.22440  1.0000
  N   N7        1.0  0.76670  0.41735  0.10368  1.0000
  N   N8        1.0  0.23330  0.58265  0.89632  1.0000
  N   N9        1.0  0.75943  0.76995  0.73099  1.0000
  N   N10       1.0  0.24056  0.23006  0.26900  1.0000
  N   N11       1.0  0.21963  0.89084  0.05640  1.0000
  N   N12       1.0  0.78037  0.10916  0.94360  1.0000
  N   N13       1.0  0.05079  0.01247  0.12129  1.0000
  N   N14       1.0  0.94921  0.98753  0.87871  1.0000
  N   N15       1.0  0.94420  0.04873  0.17762  1.0000
  N   N16       1.0  0.05580  0.95127  0.82238  1.0000
  N   N17       1.0  0.63511  0.15854  0.63749  1.0000
  N   N18       1.0  0.36489  0.84146  0.36251  1.0000
  N   N19       1.0  0.53981  0.18173  0.70362  1.0000
  N   N20       1.0  0.46019  0.81828  0.29638  1.0000
  N   N21       1.0  0.87860  0.45257  0.54748  1.0000
  N   N22       1.0  0.12140  0.54743  0.45252  1.0000
  N   N23       1.0  0.37060  0.28121  0.78016  1.0000
  N   N24       1.0  0.62940  0.71880  0.21983  1.0000
  O   O1        1.0  0.14055  0.21357  0.86202  1.0000
  O   O2        1.0  0.85944  0.78643  0.13798  1.0000
  O   O3        1.0  0.48217  0.90488  0.96026  1.0000
  O   O4        1.0  0.51783  0.09512  0.03974  1.0000
  O   O5        1.0  0.79132  0.53236  0.48418  1.0000
  O   O6        1.0  0.20868  0.46764  0.51582  1.0000
  O   O7        1.0  0.95225  0.34307  0.54413  1.0000
  O   O8        1.0  0.04774  0.65693  0.45588  1.0000
  O   O9        1.0  0.12592  0.35909  0.94302  1.0000
  O   O10       1.0  0.87409  0.64091  0.05697  1.0000
  O   O11       1.0  0.68653  0.85048  0.66131  1.0000
  O   O12       1.0  0.31346  0.14952  0.33869  1.0000
  O   O13       1.0  0.76493  0.78921  0.80944  1.0000
  O   O14       1.0  0.23506  0.21079  0.19055  1.0000
  O   O15       1.0  0.33578  0.89092  0.85518  1.0000
  O   O16       1.0  0.66423  0.10908  0.14482  1.0000
  O   O17       1.0  0.09937  0.01272  0.29974  1.0000
  O   O18       1.0  0.90063  0.98728  0.70026  1.0000
  O   O19       1.0  0.46266  0.19924  0.52319  1.0000
  O   O20       1.0  0.53733  0.80077  0.47681  1.0000
  O   O21       1.0  0.54167  0.54965  0.70322  1.0000
  O   O22       1.0  0.45833  0.45035  0.29678  1.0000
  O   O23       1.0  0.69063  0.36400  0.78327  1.0000
  O   O24       1.0  0.30937  0.63599  0.21673  1.0000
  O   O25       1.0  0.87268  0.32527  0.09941  1.0000
  O   O26       1.0  0.12732  0.67472  0.90059  1.0000
  O   O27       1.0  0.72437  0.44444  0.17695  1.0000
  O   O28       1.0  0.27563  0.55556  0.82305  1.0000
