data_image0
_chemical_formula_structural       CdH12C12N2O8
_chemical_formula_sum              "Cd1 H12 C12 N2 O8"
_cell_length_a       5.62365
_cell_length_b       6.87093
_cell_length_c       9.32053
_cell_angle_alpha    73.6423
_cell_angle_beta     85.6405
_cell_angle_gamma    76.7669

_space_group_name_H-M_alt    "P 1"
_space_group_IT_number       1

loop_
  _space_group_symop_operation_xyz
  'x, y, z'

loop_
  _atom_site_type_symbol
  _atom_site_label
  _atom_site_symmetry_multiplicity
  _atom_site_fract_x
  _atom_site_fract_y
  _atom_site_fract_z
  _atom_site_occupancy
  Cd  Cd1       1.0  0.00001  1.00000  0.99999  1.0000
  H   H1        1.0  0.51290  0.87372  0.72972  1.0000
  H   H2        1.0  0.48710  0.12626  0.27026  1.0000
  H   H3        1.0  0.62427  0.86940  0.46071  1.0000
  H   H4        1.0  0.37575  0.13063  0.53927  1.0000
  H   H5        1.0  0.35865  0.56901  0.60449  1.0000
  H   H6        1.0  0.64134  0.43099  0.39553  1.0000
  H   H7        1.0  0.21726  0.57862  0.86850  1.0000
  H   H8        1.0  0.78270  0.42132  0.13154  1.0000
  H   H9        1.0  0.64725  0.28899  0.85277  1.0000
  H   H10       1.0  0.35278  0.71099  0.14726  1.0000
  H   H11       1.0  0.48552  0.23469  0.00611  1.0000
  H   H12       1.0  0.51452  0.76532  0.99388  1.0000
  C   C1        1.0  0.69505  0.80891  0.69335  1.0000
  C   C2        1.0  0.30495  0.19110  0.30665  1.0000
  C   C3        1.0  0.76083  0.80910  0.54767  1.0000
  C   C4        1.0  0.23915  0.19092  0.45234  1.0000
  C   C5        1.0  0.00293  0.73383  0.51011  1.0000
  C   C6        1.0  0.99709  0.26620  0.48989  1.0000
  C   C7        1.0  0.17062  0.64126  0.62624  1.0000
  C   C8        1.0  0.82937  0.35874  0.37375  1.0000
  C   C9        1.0  0.09913  0.64111  0.77167  1.0000
  C   C10       1.0  0.90087  0.35888  0.22833  1.0000
  C   C11       1.0  0.08035  0.76174  0.34844  1.0000
  C   C12       1.0  0.91965  0.23824  0.65156  1.0000
  N   N1        1.0  0.86667  0.73301  0.80199  1.0000
  N   N2        1.0  0.13332  0.26700  0.19799  1.0000
  O   O1        1.0  0.80821  0.75315  0.93851  1.0000
  O   O2        1.0  0.19175  0.24684  0.06150  1.0000
  O   O3        1.0  0.91868  0.87376  0.25211  1.0000
  O   O4        1.0  0.08133  0.12625  0.74789  1.0000
  O   O5        1.0  0.29816  0.67854  0.32152  1.0000
  O   O6        1.0  0.70188  0.32146  0.67848  1.0000
  O   O7        1.0  0.65078  0.25392  0.96605  1.0000
  O   O8        1.0  0.34917  0.74609  0.03393  1.0000
