data_image0
_chemical_formula_structural       Cd4H24C32S8N16O4
_chemical_formula_sum              "Cd4 H24 C32 S8 N16 O4"
_cell_length_a       9.09543
_cell_length_b       10.5303
_cell_length_c       12.0717
_cell_angle_alpha    99.7137
_cell_angle_beta     92.4555
_cell_angle_gamma    92.0651

_space_group_name_H-M_alt    "P 1"
_space_group_IT_number       1

loop_
  _space_group_symop_operation_xyz
  'x, y, z'

loop_
  _atom_site_type_symbol
  _atom_site_label
  _atom_site_symmetry_multiplicity
  _atom_site_fract_x
  _atom_site_fract_y
  _atom_site_fract_z
  _atom_site_occupancy
  Cd  Cd1       1.0  0.75620  0.35481  0.03440  1.0000
  Cd  Cd2       1.0  0.24380  0.64519  0.96560  1.0000
  Cd  Cd3       1.0  0.75339  0.83954  0.47527  1.0000
  Cd  Cd4       1.0  0.24662  0.16046  0.52473  1.0000
  H   H1        1.0  0.66988  0.87433  0.11923  1.0000
  H   H2        1.0  0.33013  0.12567  0.88078  1.0000
  H   H3        1.0  0.78483  0.75764  0.95126  1.0000
  H   H4        1.0  0.21517  0.24236  0.04874  1.0000
  H   H5        1.0  0.88700  0.88444  0.81075  1.0000
  H   H6        1.0  0.11300  0.11556  0.18925  1.0000
  H   H7        1.0  0.87318  0.12522  0.84872  1.0000
  H   H8        1.0  0.12682  0.87478  0.15128  1.0000
  H   H9        1.0  0.51725  0.13821  0.30569  1.0000
  H   H10       1.0  0.48274  0.86179  0.69431  1.0000
  H   H11       1.0  0.55860  0.98473  0.23482  1.0000
  H   H12       1.0  0.44140  0.01527  0.76518  1.0000
  H   H13       1.0  0.66746  0.36899  0.58783  1.0000
  H   H14       1.0  0.33254  0.63101  0.41217  1.0000
  H   H15       1.0  0.82897  0.24932  0.44980  1.0000
  H   H16       1.0  0.17103  0.75068  0.55021  1.0000
  H   H17       1.0  0.96247  0.36955  0.31881  1.0000
  H   H18       1.0  0.03753  0.63045  0.68119  1.0000
  H   H19       1.0  0.93486  0.60823  0.33766  1.0000
  H   H20       1.0  0.06514  0.39177  0.66234  1.0000
  H   H21       1.0  0.47193  0.63160  0.73756  1.0000
  H   H22       1.0  0.52807  0.36840  0.26244  1.0000
  H   H23       1.0  0.56379  0.48728  0.70021  1.0000
  H   H24       1.0  0.43621  0.51272  0.29979  1.0000
  C   C1        1.0  0.91982  0.52257  0.86654  1.0000
  C   C2        1.0  0.08018  0.47743  0.13346  1.0000
  C   C3        1.0  0.58884  0.63105  0.07170  1.0000
  C   C4        1.0  0.41116  0.36895  0.92831  1.0000
  C   C5        1.0  0.71270  0.06219  0.07363  1.0000
  C   C6        1.0  0.28730  0.93781  0.92637  1.0000
  C   C7        1.0  0.71518  0.92807  0.05831  1.0000
  C   C8        1.0  0.28483  0.07193  0.94169  1.0000
  C   C9        1.0  0.77903  0.86208  0.96354  1.0000
  C   C10       1.0  0.22097  0.13792  0.03646  1.0000
  C   C11       1.0  0.83688  0.93194  0.88617  1.0000
  C   C12       1.0  0.16312  0.06806  0.11382  1.0000
  C   C13       1.0  0.82936  0.06602  0.90680  1.0000
  C   C14       1.0  0.17064  0.93398  0.09320  1.0000
  C   C15       1.0  0.64660  0.14206  0.17302  1.0000
  C   C16       1.0  0.35340  0.85795  0.82698  1.0000
  C   C17       1.0  0.39868  0.88909  0.40310  1.0000
  C   C18       1.0  0.60133  0.11090  0.59689  1.0000
  C   C19       1.0  0.98472  0.01040  0.35812  1.0000
  C   C20       1.0  0.01528  0.98960  0.64188  1.0000
  C   C21       1.0  0.71471  0.55283  0.53470  1.0000
  C   C22       1.0  0.28529  0.44717  0.46530  1.0000
  C   C23       1.0  0.72749  0.42053  0.53174  1.0000
  C   C24       1.0  0.27251  0.57947  0.46826  1.0000
  C   C25       1.0  0.81705  0.35252  0.45361  1.0000
  C   C26       1.0  0.18296  0.64748  0.54639  1.0000
  C   C27       1.0  0.89224  0.41890  0.38153  1.0000
  C   C28       1.0  0.10776  0.58110  0.61848  1.0000
  C   C29       1.0  0.87559  0.55138  0.39057  1.0000
  C   C30       1.0  0.12441  0.44862  0.60944  1.0000
  C   C31       1.0  0.61624  0.63361  0.61272  1.0000
  C   C32       1.0  0.38376  0.36639  0.38728  1.0000
  S   S1        1.0  0.80621  0.39827  0.82578  1.0000
  S   S2        1.0  0.19379  0.60174  0.17422  1.0000
  S   S3        1.0  0.72651  0.59239  0.14851  1.0000
  S   S4        1.0  0.27349  0.40761  0.85150  1.0000
  S   S5        1.0  0.50385  0.79138  0.32515  1.0000
  S   S6        1.0  0.49616  0.20862  0.67485  1.0000
  S   S7        1.0  0.90508  0.87262  0.29906  1.0000
  S   S8        1.0  0.09493  0.12738  0.70094  1.0000
  N   N1        1.0  0.00151  0.61400  0.89347  1.0000
  N   N2        1.0  0.99849  0.38600  0.10653  1.0000
  N   N3        1.0  0.49231  0.66440  0.01612  1.0000
  N   N4        1.0  0.50769  0.33560  0.98389  1.0000
  N   N5        1.0  0.76974  0.12929  0.99856  1.0000
  N   N6        1.0  0.23026  0.87071  0.00144  1.0000
  N   N7        1.0  0.56941  0.08245  0.24186  1.0000
  N   N8        1.0  0.43059  0.91755  0.75813  1.0000
  N   N9        1.0  0.32248  0.95922  0.45943  1.0000
  N   N10       1.0  0.67753  0.04078  0.54056  1.0000
  N   N11       1.0  0.04391  0.11146  0.39628  1.0000
  N   N12       1.0  0.95610  0.88855  0.60372  1.0000
  N   N13       1.0  0.78816  0.61639  0.46467  1.0000
  N   N14       1.0  0.21184  0.38361  0.53533  1.0000
  N   N15       1.0  0.54536  0.57857  0.68777  1.0000
  N   N16       1.0  0.45464  0.42143  0.31223  1.0000
  O   O1        1.0  0.66329  0.26338  0.18924  1.0000
  O   O2        1.0  0.33671  0.73662  0.81076  1.0000
  O   O3        1.0  0.59998  0.75033  0.60421  1.0000
  O   O4        1.0  0.40002  0.24967  0.39578  1.0000
