data_image0
_chemical_formula_structural       Na4H36C44O12
_chemical_formula_sum              "Na4 H36 C44 O12"
_cell_length_a       3.82072
_cell_length_b       7.38992
_cell_length_c       32.9931
_cell_angle_alpha    89.9987
_cell_angle_beta     90.8951
_cell_angle_gamma    89.9991

_space_group_name_H-M_alt    "P 1"
_space_group_IT_number       1

loop_
  _space_group_symop_operation_xyz
  'x, y, z'

loop_
  _atom_site_type_symbol
  _atom_site_label
  _atom_site_symmetry_multiplicity
  _atom_site_fract_x
  _atom_site_fract_y
  _atom_site_fract_z
  _atom_site_occupancy
  Na  Na1       1.0  0.22698  0.31756  0.02195  1.0000
  Na  Na2       1.0  0.27302  0.81755  0.47805  1.0000
  Na  Na3       1.0  0.77301  0.68244  0.97804  1.0000
  Na  Na4       1.0  0.72697  0.18244  0.52196  1.0000
  H   H1        1.0  0.94369  0.96088  0.04984  1.0000
  H   H2        1.0  0.55630  0.46087  0.45015  1.0000
  H   H3        1.0  0.05632  0.03911  0.95015  1.0000
  H   H4        1.0  0.44370  0.53912  0.54985  1.0000
  H   H5        1.0  0.34412  0.95044  0.04980  1.0000
  H   H6        1.0  0.15588  0.45043  0.45020  1.0000
  H   H7        1.0  0.65590  0.04956  0.95019  1.0000
  H   H8        1.0  0.84413  0.54957  0.54981  1.0000
  H   H9        1.0  0.64754  0.10953  0.88683  1.0000
  H   H10       1.0  0.85241  0.60955  0.61316  1.0000
  H   H11       1.0  0.35247  0.89046  0.11316  1.0000
  H   H12       1.0  0.14751  0.39045  0.38684  1.0000
  H   H13       1.0  0.74643  0.20278  0.80951  1.0000
  H   H14       1.0  0.75345  0.70278  0.69049  1.0000
  H   H15       1.0  0.25353  0.79723  0.19048  1.0000
  H   H16       1.0  0.24646  0.29723  0.30952  1.0000
  H   H17       1.0  0.62950  0.48412  0.76505  1.0000
  H   H18       1.0  0.87041  0.98412  0.73495  1.0000
  H   H19       1.0  0.37048  0.51590  0.23495  1.0000
  H   H20       1.0  0.12954  0.01592  0.26505  1.0000
  H   H21       1.0  0.42262  0.77695  0.74974  1.0000
  H   H22       1.0  0.07730  0.27695  0.75026  1.0000
  H   H23       1.0  0.57730  0.22307  0.25025  1.0000
  H   H24       1.0  0.92269  0.72307  0.24974  1.0000
  H   H25       1.0  0.18654  0.99084  0.79397  1.0000
  H   H26       1.0  0.31346  0.49083  0.70603  1.0000
  H   H27       1.0  0.81345  0.00919  0.20603  1.0000
  H   H28       1.0  0.68656  0.50918  0.29396  1.0000
  H   H29       1.0  0.06332  0.96377  0.86254  1.0000
  H   H30       1.0  0.43668  0.46379  0.63746  1.0000
  H   H31       1.0  0.93669  0.03622  0.13746  1.0000
  H   H32       1.0  0.56331  0.53620  0.36253  1.0000
  H   H33       1.0  0.15269  0.72019  0.90598  1.0000
  H   H34       1.0  0.34726  0.22021  0.59402  1.0000
  H   H35       1.0  0.84729  0.27980  0.09401  1.0000
  H   H36       1.0  0.65275  0.77977  0.40598  1.0000
  C   C1        1.0  0.43194  0.38515  0.89468  1.0000
  C   C2        1.0  0.06814  0.88515  0.60532  1.0000
  C   C3        1.0  0.56811  0.61485  0.10532  1.0000
  C   C4        1.0  0.93185  0.11484  0.39468  1.0000
  C   C5        1.0  0.58263  0.23918  0.87318  1.0000
  C   C6        1.0  0.91742  0.73918  0.62682  1.0000
  C   C7        1.0  0.41744  0.76083  0.12682  1.0000
  C   C8        1.0  0.08256  0.26081  0.37318  1.0000
  C   C9        1.0  0.63301  0.28743  0.83282  1.0000
  C   C10       1.0  0.86700  0.78742  0.66718  1.0000
  C   C11       1.0  0.36704  0.71259  0.16718  1.0000
  C   C12       1.0  0.13296  0.21258  0.33282  1.0000
  C   C13       1.0  0.51610  0.55926  0.79021  1.0000
  C   C14       1.0  0.98392  0.05925  0.70979  1.0000
  C   C15       1.0  0.48394  0.44075  0.20979  1.0000
  C   C16       1.0  0.01608  0.94077  0.29021  1.0000
  C   C17       1.0  0.39704  0.73325  0.78121  1.0000
  C   C18       1.0  0.10296  0.23323  0.71879  1.0000
  C   C19       1.0  0.60296  0.26677  0.21878  1.0000
  C   C20       1.0  0.89705  0.76677  0.28121  1.0000
  C   C21       1.0  0.25185  0.86002  0.80751  1.0000
  C   C22       1.0  0.24816  0.36001  0.69249  1.0000
  C   C23       1.0  0.74819  0.13999  0.19249  1.0000
  C   C24       1.0  0.75184  0.64000  0.30751  1.0000
  C   C25       1.0  0.17893  0.84468  0.84861  1.0000
  C   C26       1.0  0.32110  0.34468  0.65139  1.0000
  C   C27       1.0  0.82109  0.15534  0.15139  1.0000
  C   C28       1.0  0.67893  0.65531  0.34861  1.0000
  C   C29       1.0  0.23371  0.69859  0.87485  1.0000
  C   C30       1.0  0.26634  0.19859  0.62515  1.0000
  C   C31       1.0  0.76633  0.30141  0.12514  1.0000
  C   C32       1.0  0.73368  0.80139  0.37485  1.0000
  C   C33       1.0  0.38201  0.53065  0.86681  1.0000
  C   C34       1.0  0.11804  0.03065  0.63319  1.0000
  C   C35       1.0  0.61804  0.46935  0.13319  1.0000
  C   C36       1.0  0.88196  0.96934  0.36682  1.0000
  C   C37       1.0  0.51195  0.46629  0.82698  1.0000
  C   C38       1.0  0.98808  0.96629  0.67302  1.0000
  C   C39       1.0  0.48810  0.53372  0.17302  1.0000
  C   C40       1.0  0.01188  0.03371  0.32698  1.0000
  C   C41       1.0  0.34445  0.37685  0.93795  1.0000
  C   C42       1.0  0.15559  0.87686  0.56206  1.0000
  C   C43       1.0  0.65555  0.62314  0.06205  1.0000
  C   C44       1.0  0.84441  0.12312  0.43795  1.0000
  O   O1        1.0  0.25887  0.52071  0.95726  1.0000
  O   O2        1.0  0.24116  0.02073  0.54274  1.0000
  O   O3        1.0  0.74111  0.47927  0.04274  1.0000
  O   O4        1.0  0.75887  0.97924  0.45726  1.0000
  O   O5        1.0  0.36148  0.22265  0.95621  1.0000
  O   O6        1.0  0.13848  0.72268  0.54378  1.0000
  O   O7        1.0  0.63848  0.77733  0.04378  1.0000
  O   O8        1.0  0.86148  0.27730  0.45622  1.0000
  O   O9        1.0  0.15116  0.04026  0.05197  1.0000
  O   O10       1.0  0.34883  0.54026  0.44803  1.0000
  O   O11       1.0  0.84886  0.95973  0.94802  1.0000
  O   O12       1.0  0.65118  0.45974  0.55198  1.0000
