data_image0
_chemical_formula_structural       Sn4H64C56O8
_chemical_formula_sum              "Sn4 H64 C56 O8"
_cell_length_a       9.93932
_cell_length_b       9.97927
_cell_length_c       13.867
_cell_angle_alpha    101.367
_cell_angle_beta     90
_cell_angle_gamma    90

_space_group_name_H-M_alt    "P 1"
_space_group_IT_number       1

loop_
  _space_group_symop_operation_xyz
  'x, y, z'

loop_
  _atom_site_type_symbol
  _atom_site_label
  _atom_site_symmetry_multiplicity
  _atom_site_fract_x
  _atom_site_fract_y
  _atom_site_fract_z
  _atom_site_occupancy
  Sn  Sn1       1.0  0.48425  0.53662  0.22130  1.0000
  Sn  Sn2       1.0  0.98425  0.46338  0.27870  1.0000
  Sn  Sn3       1.0  0.51575  0.46338  0.77870  1.0000
  Sn  Sn4       1.0  0.01576  0.53662  0.72130  1.0000
  H   H1        1.0  0.02033  0.81219  0.31136  1.0000
  H   H2        1.0  0.52032  0.18781  0.18864  1.0000
  H   H3        1.0  0.97967  0.18781  0.68864  1.0000
  H   H4        1.0  0.47967  0.81219  0.81136  1.0000
  H   H5        1.0  0.10387  0.02740  0.23865  1.0000
  H   H6        1.0  0.60387  0.97260  0.26135  1.0000
  H   H7        1.0  0.89613  0.97260  0.76135  1.0000
  H   H8        1.0  0.39613  0.02740  0.73865  1.0000
  H   H9        1.0  0.01538  0.16641  0.11361  1.0000
  H   H10       1.0  0.51538  0.83359  0.38640  1.0000
  H   H11       1.0  0.98462  0.83358  0.88639  1.0000
  H   H12       1.0  0.48462  0.16642  0.61360  1.0000
  H   H13       1.0  0.87168  0.21708  0.99047  1.0000
  H   H14       1.0  0.37168  0.78292  0.50953  1.0000
  H   H15       1.0  0.12832  0.78292  0.00952  1.0000
  H   H16       1.0  0.62832  0.21708  0.49047  1.0000
  H   H17       1.0  0.68327  0.09633  0.91985  1.0000
  H   H18       1.0  0.18327  0.90367  0.58016  1.0000
  H   H19       1.0  0.31673  0.90368  0.08016  1.0000
  H   H20       1.0  0.81673  0.09633  0.41984  1.0000
  H   H21       1.0  0.58437  0.90072  0.95650  1.0000
  H   H22       1.0  0.08436  0.09927  0.54350  1.0000
  H   H23       1.0  0.41563  0.09928  0.04350  1.0000
  H   H24       1.0  0.91563  0.90073  0.45650  1.0000
  H   H25       1.0  0.64135  0.77979  0.07978  1.0000
  H   H26       1.0  0.14135  0.22021  0.42021  1.0000
  H   H27       1.0  0.35865  0.22021  0.92021  1.0000
  H   H28       1.0  0.85865  0.77979  0.57978  1.0000
  H   H29       1.0  0.41830  0.56035  0.41394  1.0000
  H   H30       1.0  0.91830  0.43965  0.08606  1.0000
  H   H31       1.0  0.58170  0.43965  0.58606  1.0000
  H   H32       1.0  0.08170  0.56035  0.91395  1.0000
  H   H33       1.0  0.59604  0.59026  0.40287  1.0000
  H   H34       1.0  0.09604  0.40974  0.09713  1.0000
  H   H35       1.0  0.40396  0.40974  0.59714  1.0000
  H   H36       1.0  0.90396  0.59026  0.90287  1.0000
  H   H37       1.0  0.53065  0.41970  0.37933  1.0000
  H   H38       1.0  0.03065  0.58030  0.12067  1.0000
  H   H39       1.0  0.46935  0.58030  0.62067  1.0000
  H   H40       1.0  0.96935  0.41970  0.87933  1.0000
  H   H41       1.0  0.29519  0.62570  0.10775  1.0000
  H   H42       1.0  0.79518  0.37429  0.39225  1.0000
  H   H43       1.0  0.70481  0.37430  0.89225  1.0000
  H   H44       1.0  0.20481  0.62570  0.60775  1.0000
  H   H45       1.0  0.38581  0.76950  0.17649  1.0000
  H   H46       1.0  0.88581  0.23049  0.32351  1.0000
  H   H47       1.0  0.61419  0.23050  0.82351  1.0000
  H   H48       1.0  0.11419  0.76951  0.67649  1.0000
  H   H49       1.0  0.25495  0.68976  0.23358  1.0000
  H   H50       1.0  0.75495  0.31024  0.26642  1.0000
  H   H51       1.0  0.74505  0.31024  0.76642  1.0000
  H   H52       1.0  0.24505  0.68976  0.73358  1.0000
  H   H53       1.0  0.63664  0.47153  0.05743  1.0000
  H   H54       1.0  0.13664  0.52846  0.44257  1.0000
  H   H55       1.0  0.36336  0.52847  0.94257  1.0000
  H   H56       1.0  0.86336  0.47153  0.55743  1.0000
  H   H57       1.0  0.51277  0.34068  0.05607  1.0000
  H   H58       1.0  0.01277  0.65932  0.44393  1.0000
  H   H59       1.0  0.48722  0.65932  0.94393  1.0000
  H   H60       1.0  0.98723  0.34068  0.55607  1.0000
  H   H61       1.0  0.66254  0.34248  0.12797  1.0000
  H   H62       1.0  0.16254  0.65751  0.37203  1.0000
  H   H63       1.0  0.33746  0.65751  0.87202  1.0000
  H   H64       1.0  0.83746  0.34248  0.62798  1.0000
  C   C1        1.0  0.84415  0.80813  0.21211  1.0000
  C   C2        1.0  0.34415  0.19186  0.28789  1.0000
  C   C3        1.0  0.15586  0.19186  0.78789  1.0000
  C   C4        1.0  0.65585  0.80814  0.71211  1.0000
  C   C5        1.0  0.96903  0.85574  0.25549  1.0000
  C   C6        1.0  0.46903  0.14425  0.24451  1.0000
  C   C7        1.0  0.03097  0.14426  0.74451  1.0000
  C   C8        1.0  0.53097  0.85574  0.75549  1.0000
  C   C9        1.0  0.01367  0.96759  0.21750  1.0000
  C   C10       1.0  0.51367  0.03241  0.28250  1.0000
  C   C11       1.0  0.98633  0.03241  0.78250  1.0000
  C   C12       1.0  0.48633  0.96759  0.71749  1.0000
  C   C13       1.0  0.92857  0.09900  0.09478  1.0000
  C   C14       1.0  0.42857  0.90100  0.40522  1.0000
  C   C15       1.0  0.07143  0.90100  0.90522  1.0000
  C   C16       1.0  0.57143  0.09900  0.59478  1.0000
  C   C17       1.0  0.84363  0.12879  0.02165  1.0000
  C   C18       1.0  0.34363  0.87120  0.47835  1.0000
  C   C19       1.0  0.15637  0.87120  0.97835  1.0000
  C   C20       1.0  0.65637  0.12880  0.52165  1.0000
  C   C21       1.0  0.73067  0.05656  0.97951  1.0000
  C   C22       1.0  0.23067  0.94344  0.52049  1.0000
  C   C23       1.0  0.26933  0.94344  0.02049  1.0000
  C   C24       1.0  0.76933  0.05656  0.47950  1.0000
  C   C25       1.0  0.67112  0.93967  0.00159  1.0000
  C   C26       1.0  0.17111  0.06033  0.49841  1.0000
  C   C27       1.0  0.32889  0.06033  0.99841  1.0000
  C   C28       1.0  0.82888  0.93967  0.50158  1.0000
  C   C29       1.0  0.70572  0.86636  0.07403  1.0000
  C   C30       1.0  0.20572  0.13364  0.42597  1.0000
  C   C31       1.0  0.29428  0.13364  0.92597  1.0000
  C   C32       1.0  0.79428  0.86636  0.57402  1.0000
  C   C33       1.0  0.91939  0.99313  0.14685  1.0000
  C   C34       1.0  0.41939  0.00687  0.35315  1.0000
  C   C35       1.0  0.08061  0.00687  0.85315  1.0000
  C   C36       1.0  0.58060  0.99313  0.64685  1.0000
  C   C37       1.0  0.81175  0.88884  0.14103  1.0000
  C   C38       1.0  0.31175  0.11116  0.35897  1.0000
  C   C39       1.0  0.18825  0.11115  0.85896  1.0000
  C   C40       1.0  0.68825  0.88885  0.64103  1.0000
  C   C41       1.0  0.76043  0.70205  0.24119  1.0000
  C   C42       1.0  0.26042  0.29794  0.25881  1.0000
  C   C43       1.0  0.23958  0.29794  0.75881  1.0000
  C   C44       1.0  0.73957  0.70206  0.74119  1.0000
  C   C45       1.0  0.51062  0.52571  0.37337  1.0000
  C   C46       1.0  0.01062  0.47429  0.12663  1.0000
  C   C47       1.0  0.48938  0.47429  0.62663  1.0000
  C   C48       1.0  0.98938  0.52571  0.87338  1.0000
  C   C49       1.0  0.33680  0.67224  0.17973  1.0000
  C   C50       1.0  0.83680  0.32776  0.32027  1.0000
  C   C51       1.0  0.66320  0.32776  0.82027  1.0000
  C   C52       1.0  0.16320  0.67224  0.67973  1.0000
  C   C53       1.0  0.58665  0.40622  0.10150  1.0000
  C   C54       1.0  0.08666  0.59377  0.39850  1.0000
  C   C55       1.0  0.41334  0.59377  0.89850  1.0000
  C   C56       1.0  0.91335  0.40623  0.60151  1.0000
  O   O1        1.0  0.63437  0.70246  0.21832  1.0000
  O   O2        1.0  0.13437  0.29753  0.28168  1.0000
  O   O3        1.0  0.36563  0.29754  0.78167  1.0000
  O   O4        1.0  0.86563  0.70246  0.71832  1.0000
  O   O5        1.0  0.80849  0.61755  0.29025  1.0000
  O   O6        1.0  0.30849  0.38245  0.20975  1.0000
  O   O7        1.0  0.19151  0.38245  0.70975  1.0000
  O   O8        1.0  0.69151  0.61755  0.79025  1.0000
