data_image0
_chemical_formula_structural       Sn4H56C44Cl8O12
_chemical_formula_sum              "Sn4 H56 C44 Cl8 O12"
_cell_length_a       10.5449
_cell_length_b       10.3661
_cell_length_c       13.5397
_cell_angle_alpha    104.401
_cell_angle_beta     90
_cell_angle_gamma    90

_space_group_name_H-M_alt    "P 1"
_space_group_IT_number       1

loop_
  _space_group_symop_operation_xyz
  'x, y, z'

loop_
  _atom_site_type_symbol
  _atom_site_label
  _atom_site_symmetry_multiplicity
  _atom_site_fract_x
  _atom_site_fract_y
  _atom_site_fract_z
  _atom_site_occupancy
  Sn  Sn1       1.0  0.91785  0.93453  0.74463  1.0000
  Sn  Sn2       1.0  0.41784  0.06547  0.75536  1.0000
  Sn  Sn3       1.0  0.08215  0.06547  0.25536  1.0000
  Sn  Sn4       1.0  0.58216  0.93453  0.24464  1.0000
  H   H1        1.0  0.59763  0.67006  0.53939  1.0000
  H   H2        1.0  0.09763  0.32993  0.96061  1.0000
  H   H3        1.0  0.40237  0.32993  0.46061  1.0000
  H   H4        1.0  0.90237  0.67007  0.03939  1.0000
  H   H5        1.0  0.58777  0.61449  0.65318  1.0000
  H   H6        1.0  0.08777  0.38550  0.84682  1.0000
  H   H7        1.0  0.41223  0.38550  0.34681  1.0000
  H   H8        1.0  0.91224  0.61450  0.15318  1.0000
  H   H9        1.0  0.41352  0.57452  0.75220  1.0000
  H   H10       1.0  0.91352  0.42548  0.74780  1.0000
  H   H11       1.0  0.58648  0.42548  0.24780  1.0000
  H   H12       1.0  0.08648  0.57452  0.25220  1.0000
  H   H13       1.0  0.26289  0.38392  0.73057  1.0000
  H   H14       1.0  0.76290  0.61608  0.76943  1.0000
  H   H15       1.0  0.73710  0.61609  0.26944  1.0000
  H   H16       1.0  0.23711  0.38391  0.23056  1.0000
  H   H17       1.0  0.12730  0.46400  0.45063  1.0000
  H   H18       1.0  0.62730  0.53599  0.04937  1.0000
  H   H19       1.0  0.87270  0.53600  0.54938  1.0000
  H   H20       1.0  0.37270  0.46401  0.95063  1.0000
  H   H21       1.0  0.09884  0.77795  0.63273  1.0000
  H   H22       1.0  0.59884  0.22205  0.86727  1.0000
  H   H23       1.0  0.90116  0.22206  0.36727  1.0000
  H   H24       1.0  0.40116  0.77795  0.13273  1.0000
  H   H25       1.0  0.01037  0.68123  0.70096  1.0000
  H   H26       1.0  0.51036  0.31877  0.79904  1.0000
  H   H27       1.0  0.98964  0.31877  0.29904  1.0000
  H   H28       1.0  0.48964  0.68123  0.20096  1.0000
  H   H29       1.0  0.12966  0.79521  0.76483  1.0000
  H   H30       1.0  0.62966  0.20480  0.73517  1.0000
  H   H31       1.0  0.87034  0.20480  0.23517  1.0000
  H   H32       1.0  0.37034  0.79521  0.26483  1.0000
  H   H33       1.0  0.91650  0.02177  0.95107  1.0000
  H   H34       1.0  0.41650  0.97823  0.54893  1.0000
  H   H35       1.0  0.08350  0.97823  0.04893  1.0000
  H   H36       1.0  0.58350  0.02177  0.45107  1.0000
  H   H37       1.0  0.80996  0.88295  0.91152  1.0000
  H   H38       1.0  0.30996  0.11705  0.58848  1.0000
  H   H39       1.0  0.19004  0.11705  0.08848  1.0000
  H   H40       1.0  0.69004  0.88295  0.41152  1.0000
  H   H41       1.0  0.76284  0.04558  0.90302  1.0000
  H   H42       1.0  0.26284  0.95443  0.59698  1.0000
  H   H43       1.0  0.23716  0.95443  0.09698  1.0000
  H   H44       1.0  0.73716  0.04557  0.40302  1.0000
  H   H45       1.0  0.80333  0.00639  0.58648  1.0000
  H   H46       1.0  0.30333  0.99361  0.91352  1.0000
  H   H47       1.0  0.19667  0.99361  0.41352  1.0000
  H   H48       1.0  0.69667  0.00639  0.08648  1.0000
  H   H49       1.0  0.96856  0.04844  0.59069  1.0000
  H   H50       1.0  0.46855  0.95156  0.90931  1.0000
  H   H51       1.0  0.03144  0.95156  0.40931  1.0000
  H   H52       1.0  0.53145  0.04844  0.09069  1.0000
  H   H53       1.0  0.86004  0.15184  0.67705  1.0000
  H   H54       1.0  0.36003  0.84816  0.82295  1.0000
  H   H55       1.0  0.13996  0.84816  0.32295  1.0000
  H   H56       1.0  0.63997  0.15184  0.17705  1.0000
  C   C1        1.0  0.65046  0.81583  0.67465  1.0000
  C   C2        1.0  0.15045  0.18414  0.82534  1.0000
  C   C3        1.0  0.34955  0.18416  0.32534  1.0000
  C   C4        1.0  0.84955  0.81585  0.17466  1.0000
  C   C5        1.0  0.56850  0.69938  0.62017  1.0000
  C   C6        1.0  0.06851  0.30062  0.87983  1.0000
  C   C7        1.0  0.43149  0.30062  0.37983  1.0000
  C   C8        1.0  0.93150  0.69939  0.12017  1.0000
  C   C9        1.0  0.35746  0.62427  0.61362  1.0000
  C   C10       1.0  0.85746  0.37572  0.88638  1.0000
  C   C11       1.0  0.64254  0.37573  0.38638  1.0000
  C   C12       1.0  0.14254  0.62427  0.11362  1.0000
  C   C13       1.0  0.35158  0.54850  0.68567  1.0000
  C   C14       1.0  0.85158  0.45150  0.81433  1.0000
  C   C15       1.0  0.64841  0.45151  0.31433  1.0000
  C   C16       1.0  0.14842  0.54850  0.18567  1.0000
  C   C17       1.0  0.26613  0.44349  0.67464  1.0000
  C   C18       1.0  0.76613  0.55651  0.82536  1.0000
  C   C19       1.0  0.73387  0.55652  0.32536  1.0000
  C   C20       1.0  0.23387  0.44348  0.17464  1.0000
  C   C21       1.0  0.18419  0.41624  0.59090  1.0000
  C   C22       1.0  0.68419  0.58375  0.90910  1.0000
  C   C23       1.0  0.81581  0.58376  0.40910  1.0000
  C   C24       1.0  0.31581  0.41624  0.09090  1.0000
  C   C25       1.0  0.18919  0.48871  0.51689  1.0000
  C   C26       1.0  0.68919  0.51129  0.98312  1.0000
  C   C27       1.0  0.81081  0.51129  0.48312  1.0000
  C   C28       1.0  0.31081  0.48871  0.01688  1.0000
  C   C29       1.0  0.27767  0.59145  0.52798  1.0000
  C   C30       1.0  0.77767  0.40855  0.97202  1.0000
  C   C31       1.0  0.72232  0.40855  0.47202  1.0000
  C   C32       1.0  0.22233  0.59145  0.02798  1.0000
  C   C33       1.0  0.05568  0.77783  0.70629  1.0000
  C   C34       1.0  0.55567  0.22217  0.79371  1.0000
  C   C35       1.0  0.94433  0.22217  0.29371  1.0000
  C   C36       1.0  0.44433  0.77783  0.20629  1.0000
  C   C37       1.0  0.84275  0.97665  0.89646  1.0000
  C   C38       1.0  0.34275  0.02335  0.60353  1.0000
  C   C39       1.0  0.15725  0.02335  0.10353  1.0000
  C   C40       1.0  0.65725  0.97665  0.39646  1.0000
  C   C41       1.0  0.88242  0.04943  0.63615  1.0000
  C   C42       1.0  0.38242  0.95057  0.86384  1.0000
  C   C43       1.0  0.11758  0.95057  0.36385  1.0000
  C   C44       1.0  0.61758  0.04943  0.13615  1.0000
  Cl  Cl1       1.0  0.07286  0.29011  0.57887  1.0000
  Cl  Cl2       1.0  0.57286  0.70989  0.92113  1.0000
  Cl  Cl3       1.0  0.92714  0.70989  0.42113  1.0000
  Cl  Cl4       1.0  0.42714  0.29011  0.07887  1.0000
  Cl  Cl5       1.0  0.29066  0.67811  0.43497  1.0000
  Cl  Cl6       1.0  0.79067  0.32189  0.06504  1.0000
  Cl  Cl7       1.0  0.70933  0.32189  0.56503  1.0000
  Cl  Cl8       1.0  0.20934  0.67811  0.93497  1.0000
  O   O1        1.0  0.76717  0.78213  0.67990  1.0000
  O   O2        1.0  0.26718  0.21788  0.82010  1.0000
  O   O3        1.0  0.23283  0.21787  0.32010  1.0000
  O   O4        1.0  0.73283  0.78212  0.17990  1.0000
  O   O5        1.0  0.60779  0.93140  0.70837  1.0000
  O   O6        1.0  0.10780  0.06862  0.79164  1.0000
  O   O7        1.0  0.39221  0.06861  0.29163  1.0000
  O   O8        1.0  0.89220  0.93139  0.20837  1.0000
  O   O9        1.0  0.43655  0.73278  0.62714  1.0000
  O   O10       1.0  0.93655  0.26722  0.87286  1.0000
  O   O11       1.0  0.56345  0.26722  0.37286  1.0000
  O   O12       1.0  0.06346  0.73278  0.12714  1.0000
