data_image0
_chemical_formula_structural       Zn2H20C30O12
_chemical_formula_sum              "Zn2 H20 C30 O12"
_cell_length_a       6.27398
_cell_length_b       7.22625
_cell_length_c       14.5902
_cell_angle_alpha    103.995
_cell_angle_beta     90.0553
_cell_angle_gamma    89.9559

_space_group_name_H-M_alt    "P 1"
_space_group_IT_number       1

loop_
  _space_group_symop_operation_xyz
  'x, y, z'

loop_
  _atom_site_type_symbol
  _atom_site_label
  _atom_site_symmetry_multiplicity
  _atom_site_fract_x
  _atom_site_fract_y
  _atom_site_fract_z
  _atom_site_occupancy
  Zn  Zn1       1.0  0.30879  0.75000  0.49994  1.0000
  Zn  Zn2       1.0  0.69120  0.25003  0.50008  1.0000
  H   H1        1.0  0.56075  0.40066  0.04078  1.0000
  H   H2        1.0  0.56083  0.09936  0.95924  1.0000
  H   H3        1.0  0.43918  0.59939  0.95922  1.0000
  H   H4        1.0  0.43921  0.90067  0.04074  1.0000
  H   H5        1.0  0.40523  0.51821  0.19962  1.0000
  H   H6        1.0  0.40526  0.98179  0.80033  1.0000
  H   H7        1.0  0.59476  0.48177  0.80039  1.0000
  H   H8        1.0  0.59477  0.01821  0.19966  1.0000
  H   H9        1.0  0.96645  0.34028  0.32523  1.0000
  H   H10       1.0  0.96597  0.15969  0.67501  1.0000
  H   H11       1.0  0.03358  0.65968  0.67474  1.0000
  H   H12       1.0  0.03398  0.84028  0.32497  1.0000
  H   H13       1.0  0.12835  0.22755  0.16499  1.0000
  H   H14       1.0  0.12800  0.27245  0.83530  1.0000
  H   H15       1.0  0.87164  0.77242  0.83497  1.0000
  H   H16       1.0  0.87197  0.72758  0.16466  1.0000
  H   H17       1.0  0.89684  0.85989  0.52640  1.0000
  H   H18       1.0  0.89703  0.64004  0.47335  1.0000
  H   H19       1.0  0.10316  0.14016  0.47369  1.0000
  H   H20       1.0  0.10296  0.36002  0.52674  1.0000
  C   C1        1.0  0.67730  0.43871  0.27222  1.0000
  C   C2        1.0  0.67714  0.06119  0.72790  1.0000
  C   C3        1.0  0.32269  0.56129  0.72779  1.0000
  C   C4        1.0  0.32286  0.93880  0.27211  1.0000
  C   C5        1.0  0.65108  0.38575  0.10222  1.0000
  C   C6        1.0  0.65099  0.11432  0.89785  1.0000
  C   C7        1.0  0.34893  0.61426  0.89777  1.0000
  C   C8        1.0  0.34900  0.88571  0.10213  1.0000
  C   C9        1.0  0.85626  0.30538  0.09223  1.0000
  C   C10       1.0  0.85613  0.19470  0.90795  1.0000
  C   C11       1.0  0.14373  0.69462  0.90773  1.0000
  C   C12       1.0  0.14388  0.80534  0.09202  1.0000
  C   C13       1.0  0.56285  0.45308  0.19167  1.0000
  C   C14       1.0  0.56273  0.04691  0.80837  1.0000
  C   C15       1.0  0.43716  0.54691  0.80834  1.0000
  C   C16       1.0  0.43724  0.95310  0.19163  1.0000
  C   C17       1.0  0.88027  0.35402  0.26238  1.0000
  C   C18       1.0  0.87995  0.14597  0.73781  1.0000
  C   C19       1.0  0.11971  0.64593  0.73757  1.0000
  C   C20       1.0  0.12005  0.85400  0.26217  1.0000
  C   C21       1.0  0.97142  0.25006  0.00015  1.0000
  C   C22       1.0  0.02859  0.75002  0.99987  1.0000
  C   C23       1.0  0.96918  0.28957  0.17340  1.0000
  C   C24       1.0  0.96890  0.21051  0.82682  1.0000
  C   C25       1.0  0.03080  0.71039  0.82654  1.0000
  C   C26       1.0  0.03111  0.78949  0.17314  1.0000
  C   C27       1.0  0.58836  0.51716  0.36852  1.0000
  C   C28       1.0  0.58821  0.98266  0.63150  1.0000
  C   C29       1.0  0.41172  0.48281  0.63149  1.0000
  C   C30       1.0  0.41175  0.01732  0.36849  1.0000
  O   O1        1.0  0.99354  0.75015  0.49964  1.0000
  O   O2        1.0  0.00644  0.24984  0.50056  1.0000
  O   O3        1.0  0.40830  0.60178  0.37481  1.0000
  O   O4        1.0  0.40822  0.89806  0.62513  1.0000
  O   O5        1.0  0.59179  0.39818  0.62522  1.0000
  O   O6        1.0  0.59172  0.10193  0.37489  1.0000
  O   O7        1.0  0.16920  0.25009  0.00016  1.0000
  O   O8        1.0  0.83082  0.74997  0.99983  1.0000
  O   O9        1.0  0.69628  0.50246  0.44096  1.0000
  O   O10       1.0  0.69602  0.99733  0.55913  1.0000
  O   O11       1.0  0.30382  0.49749  0.55903  1.0000
  O   O12       1.0  0.30393  0.00262  0.44086  1.0000
