data_image0
_chemical_formula_structural       Cd3H30C28N20O4
_chemical_formula_sum              "Cd3 H30 C28 N20 O4"
_cell_length_a       6.96248
_cell_length_b       12.0753
_cell_length_c       12.7665
_cell_angle_alpha    86.2789
_cell_angle_beta     73.3154
_cell_angle_gamma    82.476

_space_group_name_H-M_alt    "P 1"
_space_group_IT_number       1

loop_
  _space_group_symop_operation_xyz
  'x, y, z'

loop_
  _atom_site_type_symbol
  _atom_site_label
  _atom_site_symmetry_multiplicity
  _atom_site_fract_x
  _atom_site_fract_y
  _atom_site_fract_z
  _atom_site_occupancy
  Cd  Cd1       1.0  0.00000  0.00000  1.00000  1.0000
  Cd  Cd2       1.0  0.56287  0.87657  0.93058  1.0000
  Cd  Cd3       1.0  0.43714  0.12343  0.06942  1.0000
  H   H1        1.0  0.72517  0.07700  0.87828  1.0000
  H   H2        1.0  0.27483  0.92300  0.12172  1.0000
  H   H3        1.0  0.28589  0.70531  0.02421  1.0000
  H   H4        1.0  0.71413  0.29469  0.97579  1.0000
  H   H5        1.0  0.51526  0.65845  0.01517  1.0000
  H   H6        1.0  0.48475  0.34155  0.98484  1.0000
  H   H7        1.0  0.26544  0.19329  0.28198  1.0000
  H   H8        1.0  0.73456  0.80670  0.71802  1.0000
  H   H9        1.0  0.07508  0.14446  0.24617  1.0000
  H   H10       1.0  0.92493  0.85554  0.75383  1.0000
  H   H11       1.0  0.82782  0.22275  0.78346  1.0000
  H   H12       1.0  0.17218  0.77725  0.21653  1.0000
  H   H13       1.0  0.57339  0.24610  0.81947  1.0000
  H   H14       1.0  0.42660  0.75391  0.18053  1.0000
  H   H15       1.0  0.20354  0.57993  0.20660  1.0000
  H   H16       1.0  0.79646  0.42007  0.79340  1.0000
  H   H17       1.0  0.32596  0.38805  0.25539  1.0000
  H   H18       1.0  0.67404  0.61195  0.74461  1.0000
  H   H19       1.0  0.83952  0.26447  0.16825  1.0000
  H   H20       1.0  0.16048  0.73553  0.83175  1.0000
  H   H21       1.0  0.71992  0.45490  0.11749  1.0000
  H   H22       1.0  0.28008  0.54510  0.88252  1.0000
  H   H23       1.0  0.01301  0.09220  0.42524  1.0000
  H   H24       1.0  0.98699  0.90781  0.57476  1.0000
  H   H25       1.0  0.01848  0.13623  0.61009  1.0000
  H   H26       1.0  0.98150  0.86378  0.38991  1.0000
  H   H27       1.0  0.36963  0.20731  0.70567  1.0000
  H   H28       1.0  0.63037  0.79268  0.29433  1.0000
  H   H29       1.0  0.36521  0.16313  0.51948  1.0000
  H   H30       1.0  0.63478  0.83686  0.48052  1.0000
  C   C1        1.0  0.89959  0.64254  0.11480  1.0000
  C   C2        1.0  0.10041  0.35746  0.88519  1.0000
  C   C3        1.0  0.95550  0.53147  0.15599  1.0000
  C   C4        1.0  0.04449  0.46853  0.84402  1.0000
  C   C5        1.0  0.12386  0.51080  0.19749  1.0000
  C   C6        1.0  0.87613  0.48920  0.80250  1.0000
  C   C7        1.0  0.19235  0.40315  0.22580  1.0000
  C   C8        1.0  0.80765  0.59685  0.77420  1.0000
  C   C9        1.0  0.09394  0.31249  0.21321  1.0000
  C   C10       1.0  0.90606  0.68751  0.78679  1.0000
  C   C11       1.0  0.91931  0.33346  0.17726  1.0000
  C   C12       1.0  0.08069  0.66654  0.82275  1.0000
  C   C13       1.0  0.85149  0.44136  0.14882  1.0000
  C   C14       1.0  0.14852  0.55864  0.85118  1.0000
  C   C15       1.0  0.69020  0.09938  0.34845  1.0000
  C   C16       1.0  0.30981  0.90062  0.65155  1.0000
  C   C17       1.0  0.68883  0.12527  0.45855  1.0000
  C   C18       1.0  0.31117  0.87473  0.54146  1.0000
  C   C19       1.0  0.87174  0.11892  0.48585  1.0000
  C   C20       1.0  0.12826  0.88109  0.51415  1.0000
  C   C21       1.0  0.87553  0.14404  0.58960  1.0000
  C   C22       1.0  0.12446  0.85597  0.41041  1.0000
  C   C23       1.0  0.69507  0.17662  0.67010  1.0000
  C   C24       1.0  0.30493  0.82338  0.32990  1.0000
  C   C25       1.0  0.51101  0.18285  0.64355  1.0000
  C   C26       1.0  0.48899  0.81714  0.35645  1.0000
  C   C27       1.0  0.50841  0.15783  0.53932  1.0000
  C   C28       1.0  0.49158  0.84215  0.46069  1.0000
  N   N1        1.0  0.01754  0.72672  0.09786  1.0000
  N   N2        1.0  0.98246  0.27328  0.90214  1.0000
  N   N3        1.0  0.92036  0.81153  0.05337  1.0000
  N   N4        1.0  0.07964  0.18847  0.94662  1.0000
  N   N5        1.0  0.75170  0.78127  0.04414  1.0000
  N   N6        1.0  0.24830  0.21873  0.95586  1.0000
  N   N7        1.0  0.73222  0.67574  0.08198  1.0000
  N   N8        1.0  0.26779  0.32426  0.91802  1.0000
  N   N9        1.0  0.17730  0.20261  0.22891  1.0000
  N   N10       1.0  0.82270  0.79739  0.77108  1.0000
  N   N11       1.0  0.85778  0.05614  0.27172  1.0000
  N   N12       1.0  0.14223  0.94386  0.72828  1.0000
  N   N13       1.0  0.79825  0.04896  0.18214  1.0000
  N   N14       1.0  0.20175  0.95104  0.81786  1.0000
  N   N15       1.0  0.60382  0.08537  0.20339  1.0000
  N   N16       1.0  0.39619  0.91463  0.79661  1.0000
  N   N17       1.0  0.53056  0.11795  0.30675  1.0000
  N   N18       1.0  0.46945  0.88205  0.69324  1.0000
  N   N19       1.0  0.69823  0.19778  0.77564  1.0000
  N   N20       1.0  0.30176  0.80223  0.22436  1.0000
  O   O1        1.0  0.71139  0.03064  0.94636  1.0000
  O   O2        1.0  0.28860  0.96937  0.05363  1.0000
  O   O3        1.0  0.42519  0.69690  0.97354  1.0000
  O   O4        1.0  0.57482  0.30311  0.02646  1.0000
