data_image0
_chemical_formula_structural       Cd2H20C30O12
_chemical_formula_sum              "Cd2 H20 C30 O12"
_cell_length_a       6.39833
_cell_length_b       7.09854
_cell_length_c       14.8219
_cell_angle_alpha    102.948
_cell_angle_beta     89.9249
_cell_angle_gamma    90.0826

_space_group_name_H-M_alt    "P 1"
_space_group_IT_number       1

loop_
  _space_group_symop_operation_xyz
  'x, y, z'

loop_
  _atom_site_type_symbol
  _atom_site_label
  _atom_site_symmetry_multiplicity
  _atom_site_fract_x
  _atom_site_fract_y
  _atom_site_fract_z
  _atom_site_occupancy
  Cd  Cd1       1.0  0.66991  0.75056  0.50003  1.0000
  Cd  Cd2       1.0  0.33011  0.24947  0.49997  1.0000
  H   H1        1.0  0.58599  0.59505  0.96705  1.0000
  H   H2        1.0  0.58647  0.90451  0.03278  1.0000
  H   H3        1.0  0.41401  0.40491  0.03296  1.0000
  H   H4        1.0  0.41353  0.09548  0.96721  1.0000
  H   H5        1.0  0.96425  0.64406  0.67971  1.0000
  H   H6        1.0  0.96290  0.85631  0.32027  1.0000
  H   H7        1.0  0.03578  0.35593  0.32032  1.0000
  H   H8        1.0  0.03706  0.14369  0.67975  1.0000
  H   H9        1.0  0.41710  0.48248  0.81440  1.0000
  H   H10       1.0  0.41700  0.01741  0.18541  1.0000
  H   H11       1.0  0.58290  0.51751  0.18560  1.0000
  H   H12       1.0  0.58298  0.98259  0.81458  1.0000
  H   H13       1.0  0.13494  0.75773  0.83355  1.0000
  H   H14       1.0  0.13409  0.74222  0.16643  1.0000
  H   H15       1.0  0.86508  0.24226  0.16647  1.0000
  H   H16       1.0  0.86589  0.25776  0.83359  1.0000
  H   H17       1.0  0.11235  0.85254  0.53399  1.0000
  H   H18       1.0  0.11220  0.64927  0.46437  1.0000
  H   H19       1.0  0.88767  0.14752  0.46596  1.0000
  H   H20       1.0  0.88780  0.35078  0.53558  1.0000
  C   C1        1.0  0.67984  0.55600  0.73776  1.0000
  C   C2        1.0  0.67907  0.94411  0.26208  1.0000
  C   C3        1.0  0.32016  0.44397  0.26223  1.0000
  C   C4        1.0  0.32090  0.05592  0.73794  1.0000
  C   C5        1.0  0.57743  0.48220  0.64649  1.0000
  C   C6        1.0  0.57611  0.01829  0.35322  1.0000
  C   C7        1.0  0.42259  0.51782  0.35352  1.0000
  C   C8        1.0  0.42388  0.98173  0.64677  1.0000
  C   C9        1.0  0.88259  0.63388  0.74299  1.0000
  C   C10       1.0  0.88162  0.86630  0.25695  1.0000
  C   C11       1.0  0.11740  0.36611  0.25702  1.0000
  C   C12       1.0  0.11833  0.13371  0.74306  1.0000
  C   C13       1.0  0.66881  0.60927  0.90484  1.0000
  C   C14       1.0  0.66886  0.89048  0.09501  1.0000
  C   C15       1.0  0.33120  0.39071  0.09517  1.0000
  C   C16       1.0  0.33115  0.10949  0.90499  1.0000
  C   C17       1.0  0.87140  0.68770  0.91055  1.0000
  C   C18       1.0  0.87119  0.81199  0.08935  1.0000
  C   C19       1.0  0.12863  0.31226  0.08947  1.0000
  C   C20       1.0  0.12882  0.18798  0.91064  1.0000
  C   C21       1.0  0.97725  0.69834  0.82855  1.0000
  C   C22       1.0  0.97656  0.80158  0.17138  1.0000
  C   C23       1.0  0.02275  0.30165  0.17146  1.0000
  C   C24       1.0  0.02344  0.19840  0.82863  1.0000
  C   C25       1.0  0.57378  0.54399  0.81915  1.0000
  C   C26       1.0  0.57353  0.95593  0.18069  1.0000
  C   C27       1.0  0.42624  0.45600  0.18085  1.0000
  C   C28       1.0  0.42645  0.04405  0.81932  1.0000
  C   C29       1.0  0.98650  0.74976  0.99995  1.0000
  C   C30       1.0  0.01351  0.25020  0.00007  1.0000
  O   O1        1.0  0.67917  0.48003  0.57113  1.0000
  O   O2        1.0  0.67725  0.02168  0.42873  1.0000
  O   O3        1.0  0.32083  0.52002  0.42888  1.0000
  O   O4        1.0  0.32269  0.97836  0.57127  1.0000
  O   O5        1.0  0.39143  0.41789  0.64504  1.0000
  O   O6        1.0  0.39001  0.08186  0.35450  1.0000
  O   O7        1.0  0.60859  0.58211  0.35495  1.0000
  O   O8        1.0  0.60997  0.91815  0.64550  1.0000
  O   O9        1.0  0.18031  0.74965  0.99992  1.0000
  O   O10       1.0  0.81969  0.25031  0.00009  1.0000
  O   O11       1.0  0.01717  0.75258  0.49785  1.0000
  O   O12       1.0  0.98283  0.24753  0.50207  1.0000
