data_image0
_chemical_formula_structural       Ag8H36C36N12
_chemical_formula_sum              "Ag8 H36 C36 N12"
_cell_length_a       6.41881
_cell_length_b       11.3885
_cell_length_c       14.9406
_cell_angle_alpha    90
_cell_angle_beta     90
_cell_angle_gamma    90.0002

_space_group_name_H-M_alt    "P 1"
_space_group_IT_number       1

loop_
  _space_group_symop_operation_xyz
  'x, y, z'

loop_
  _atom_site_type_symbol
  _atom_site_label
  _atom_site_symmetry_multiplicity
  _atom_site_fract_x
  _atom_site_fract_y
  _atom_site_fract_z
  _atom_site_occupancy
  Ag  Ag1       1.0  0.25001  0.54746  0.74674  1.0000
  Ag  Ag2       1.0  0.75001  0.45253  0.25326  1.0000
  Ag  Ag3       1.0  0.25000  0.45253  0.24674  1.0000
  Ag  Ag4       1.0  0.75001  0.54748  0.75326  1.0000
  Ag  Ag5       1.0  0.25000  0.81569  0.02641  1.0000
  Ag  Ag6       1.0  0.75000  0.18431  0.97359  1.0000
  Ag  Ag7       1.0  0.25000  0.18431  0.52641  1.0000
  Ag  Ag8       1.0  0.75000  0.81569  0.47359  1.0000
  H   H1        1.0  0.25000  0.26271  0.12179  1.0000
  H   H2        1.0  0.74999  0.73729  0.87821  1.0000
  H   H3        1.0  0.25001  0.73729  0.62179  1.0000
  H   H4        1.0  0.75000  0.26271  0.37821  1.0000
  H   H5        1.0  0.24999  0.20449  0.83663  1.0000
  H   H6        1.0  0.75000  0.79551  0.16337  1.0000
  H   H7        1.0  0.25000  0.79551  0.33664  1.0000
  H   H8        1.0  0.75000  0.20449  0.66337  1.0000
  H   H9        1.0  0.24999  0.98817  0.86964  1.0000
  H   H10       1.0  0.74999  0.01183  0.13036  1.0000
  H   H11       1.0  0.25000  0.01183  0.36964  1.0000
  H   H12       1.0  0.75000  0.98817  0.63035  1.0000
  H   H13       1.0  0.24999  0.93891  0.16958  1.0000
  H   H14       1.0  0.75000  0.06108  0.83042  1.0000
  H   H15       1.0  0.25000  0.06108  0.66958  1.0000
  H   H16       1.0  0.75000  0.93892  0.33042  1.0000
  H   H17       1.0  0.11306  0.06731  0.20641  1.0000
  H   H18       1.0  0.61307  0.93269  0.79359  1.0000
  H   H19       1.0  0.38694  0.93270  0.70641  1.0000
  H   H20       1.0  0.88694  0.06731  0.29359  1.0000
  H   H21       1.0  0.88694  0.93269  0.79359  1.0000
  H   H22       1.0  0.38693  0.06731  0.20641  1.0000
  H   H23       1.0  0.61307  0.06731  0.29359  1.0000
  H   H24       1.0  0.11305  0.93269  0.70641  1.0000
  H   H25       1.0  0.25000  0.40682  0.89320  1.0000
  H   H26       1.0  0.75000  0.59318  0.10680  1.0000
  H   H27       1.0  0.25001  0.59318  0.39320  1.0000
  H   H28       1.0  0.75000  0.40682  0.60680  1.0000
  H   H29       1.0  0.11236  0.42229  0.99606  1.0000
  H   H30       1.0  0.61236  0.57771  0.00394  1.0000
  H   H31       1.0  0.38765  0.57771  0.49606  1.0000
  H   H32       1.0  0.88764  0.42229  0.50394  1.0000
  H   H33       1.0  0.88764  0.57771  0.00394  1.0000
  H   H34       1.0  0.38765  0.42229  0.99606  1.0000
  H   H35       1.0  0.61235  0.42229  0.50394  1.0000
  H   H36       1.0  0.11236  0.57771  0.49606  1.0000
  C   C1        1.0  0.25000  0.40487  0.66552  1.0000
  C   C2        1.0  0.75002  0.59513  0.33447  1.0000
  C   C3        1.0  0.24999  0.59513  0.16553  1.0000
  C   C4        1.0  0.75000  0.40487  0.83447  1.0000
  C   C5        1.0  0.25001  0.69057  0.82753  1.0000
  C   C6        1.0  0.74999  0.30942  0.17246  1.0000
  C   C7        1.0  0.25001  0.30942  0.32753  1.0000
  C   C8        1.0  0.75001  0.69057  0.67247  1.0000
  C   C9        1.0  0.24998  0.08366  0.07684  1.0000
  C   C10       1.0  0.74999  0.91633  0.92316  1.0000
  C   C11       1.0  0.25001  0.91634  0.57684  1.0000
  C   C12       1.0  0.75001  0.08366  0.42316  1.0000
  C   C13       1.0  0.24999  0.20497  0.06351  1.0000
  C   C14       1.0  0.75000  0.79503  0.93649  1.0000
  C   C15       1.0  0.25001  0.79503  0.56351  1.0000
  C   C16       1.0  0.75000  0.20497  0.43649  1.0000
  C   C17       1.0  0.25000  0.25271  0.97739  1.0000
  C   C18       1.0  0.75000  0.74729  0.02260  1.0000
  C   C19       1.0  0.25000  0.74729  0.47740  1.0000
  C   C20       1.0  0.75000  0.25271  0.52261  1.0000
  C   C21       1.0  0.25000  0.17304  0.90555  1.0000
  C   C22       1.0  0.75000  0.82696  0.09445  1.0000
  C   C23       1.0  0.25001  0.82696  0.40556  1.0000
  C   C24       1.0  0.74999  0.17304  0.59445  1.0000
  C   C25       1.0  0.25000  0.05330  0.92314  1.0000
  C   C26       1.0  0.75000  0.94669  0.07686  1.0000
  C   C27       1.0  0.25000  0.94669  0.42314  1.0000
  C   C28       1.0  0.75000  0.05331  0.57686  1.0000
  C   C29       1.0  0.25000  0.03533  0.16979  1.0000
  C   C30       1.0  0.75000  0.96467  0.83021  1.0000
  C   C31       1.0  0.25000  0.96467  0.66979  1.0000
  C   C32       1.0  0.75000  0.03533  0.33021  1.0000
  C   C33       1.0  0.25000  0.38294  0.96430  1.0000
  C   C34       1.0  0.74999  0.61706  0.03570  1.0000
  C   C35       1.0  0.25001  0.61706  0.46430  1.0000
  C   C36       1.0  0.75000  0.38294  0.53570  1.0000
  N   N1        1.0  0.24999  0.32378  0.61741  1.0000
  N   N2        1.0  0.75001  0.67622  0.38259  1.0000
  N   N3        1.0  0.24999  0.67622  0.11740  1.0000
  N   N4        1.0  0.75000  0.32380  0.88260  1.0000
  N   N5        1.0  0.25001  0.77228  0.87538  1.0000
  N   N6        1.0  0.74999  0.22772  0.12462  1.0000
  N   N7        1.0  0.25001  0.22772  0.37538  1.0000
  N   N8        1.0  0.75000  0.77228  0.62461  1.0000
  N   N9        1.0  0.25000  0.00872  0.00668  1.0000
  N   N10       1.0  0.75000  0.99128  0.99332  1.0000
  N   N11       1.0  0.25001  0.99128  0.50668  1.0000
  N   N12       1.0  0.75000  0.00872  0.49332  1.0000
