data_image0
_chemical_formula_structural       Ag8H56C56N16
_chemical_formula_sum              "Ag8 H56 C56 N16"
_cell_length_a       5.23129
_cell_length_b       17.8077
_cell_length_c       18.0598
_cell_angle_alpha    117.888
_cell_angle_beta     90
_cell_angle_gamma    90

_space_group_name_H-M_alt    "P 1"
_space_group_IT_number       1

loop_
  _space_group_symop_operation_xyz
  'x, y, z'

loop_
  _atom_site_type_symbol
  _atom_site_label
  _atom_site_symmetry_multiplicity
  _atom_site_fract_x
  _atom_site_fract_y
  _atom_site_fract_z
  _atom_site_occupancy
  Ag  Ag1       1.0  0.17293  0.97722  0.90387  1.0000
  Ag  Ag2       1.0  0.67293  0.52278  0.59613  1.0000
  Ag  Ag3       1.0  0.82707  0.02278  0.09613  1.0000
  Ag  Ag4       1.0  0.32706  0.47722  0.40387  1.0000
  Ag  Ag5       1.0  0.87882  0.41164  0.97066  1.0000
  Ag  Ag6       1.0  0.37882  0.08836  0.52934  1.0000
  Ag  Ag7       1.0  0.12119  0.58836  0.02934  1.0000
  Ag  Ag8       1.0  0.62118  0.91164  0.47066  1.0000
  H   H1        1.0  0.43943  0.83483  0.94540  1.0000
  H   H2        1.0  0.93943  0.66516  0.55460  1.0000
  H   H3        1.0  0.56057  0.16517  0.05460  1.0000
  H   H4        1.0  0.06057  0.33484  0.44540  1.0000
  H   H5        1.0  0.42926  0.68063  0.90888  1.0000
  H   H6        1.0  0.92926  0.81937  0.59113  1.0000
  H   H7        1.0  0.57073  0.31937  0.09113  1.0000
  H   H8        1.0  0.07074  0.18063  0.40887  1.0000
  H   H9        1.0  0.73989  0.65791  0.76905  1.0000
  H   H10       1.0  0.23989  0.84209  0.73095  1.0000
  H   H11       1.0  0.26011  0.34210  0.23095  1.0000
  H   H12       1.0  0.76010  0.15790  0.26904  1.0000
  H   H13       1.0  0.77453  0.81284  0.81293  1.0000
  H   H14       1.0  0.27451  0.68716  0.68707  1.0000
  H   H15       1.0  0.22548  0.18716  0.18707  1.0000
  H   H16       1.0  0.72547  0.31284  0.31293  1.0000
  H   H17       1.0  0.25410  0.53805  0.81450  1.0000
  H   H18       1.0  0.75410  0.96195  0.68550  1.0000
  H   H19       1.0  0.74590  0.46195  0.18550  1.0000
  H   H20       1.0  0.24590  0.03805  0.31450  1.0000
  H   H21       1.0  0.97631  0.52633  0.75235  1.0000
  H   H22       1.0  0.47631  0.97367  0.74765  1.0000
  H   H23       1.0  0.02369  0.47368  0.24765  1.0000
  H   H24       1.0  0.52369  0.02632  0.25235  1.0000
  H   H25       1.0  0.94772  0.55637  0.86080  1.0000
  H   H26       1.0  0.44772  0.94363  0.63920  1.0000
  H   H27       1.0  0.05228  0.44363  0.13920  1.0000
  H   H28       1.0  0.55228  0.05637  0.36080  1.0000
  H   H29       1.0  0.12364  0.30443  0.78780  1.0000
  H   H30       1.0  0.62364  0.19557  0.71220  1.0000
  H   H31       1.0  0.87636  0.69557  0.21220  1.0000
  H   H32       1.0  0.37637  0.80443  0.28780  1.0000
  H   H33       1.0  0.06725  0.25981  0.63587  1.0000
  H   H34       1.0  0.56726  0.24019  0.86413  1.0000
  H   H35       1.0  0.93274  0.74019  0.36413  1.0000
  H   H36       1.0  0.43275  0.75981  0.13587  1.0000
  H   H37       1.0  0.37971  0.41072  0.70011  1.0000
  H   H38       1.0  0.87972  0.08928  0.79989  1.0000
  H   H39       1.0  0.62028  0.58928  0.29989  1.0000
  H   H40       1.0  0.12029  0.91072  0.20011  1.0000
  H   H41       1.0  0.45830  0.44594  0.84989  1.0000
  H   H42       1.0  0.95830  0.05406  0.65011  1.0000
  H   H43       1.0  0.54170  0.55406  0.15011  1.0000
  H   H44       1.0  0.04171  0.94595  0.34989  1.0000
  H   H45       1.0  0.52036  0.25569  0.53905  1.0000
  H   H46       1.0  0.02036  0.24431  0.96095  1.0000
  H   H47       1.0  0.47964  0.74431  0.46095  1.0000
  H   H48       1.0  0.97964  0.75569  0.03905  1.0000
  H   H49       1.0  0.84173  0.27812  0.52650  1.0000
  H   H50       1.0  0.34173  0.22188  0.97350  1.0000
  H   H51       1.0  0.15827  0.72188  0.47350  1.0000
  H   H52       1.0  0.65827  0.77813  0.02650  1.0000
  H   H53       1.0  0.60268  0.35891  0.55541  1.0000
  H   H54       1.0  0.10268  0.14109  0.94459  1.0000
  H   H55       1.0  0.39732  0.64109  0.44459  1.0000
  H   H56       1.0  0.89732  0.85892  0.05541  1.0000
  C   C1        1.0  0.55506  0.99542  0.90254  1.0000
  C   C2        1.0  0.05505  0.50457  0.59746  1.0000
  C   C3        1.0  0.44494  0.00458  0.09746  1.0000
  C   C4        1.0  0.94494  0.49542  0.40253  1.0000
  C   C5        1.0  0.28664  0.79326  0.90660  1.0000
  C   C6        1.0  0.78664  0.70674  0.59340  1.0000
  C   C7        1.0  0.71336  0.20675  0.09341  1.0000
  C   C8        1.0  0.21337  0.29326  0.40659  1.0000
  C   C9        1.0  0.28043  0.70755  0.88605  1.0000
  C   C10       1.0  0.78042  0.79245  0.61395  1.0000
  C   C11       1.0  0.71957  0.29245  0.11395  1.0000
  C   C12       1.0  0.21957  0.20755  0.38605  1.0000
  C   C13       1.0  0.08175  0.65585  0.83598  1.0000
  C   C14       1.0  0.58176  0.84415  0.66402  1.0000
  C   C15       1.0  0.91825  0.34415  0.16402  1.0000
  C   C16       1.0  0.41825  0.15585  0.33598  1.0000
  C   C17       1.0  0.89748  0.69484  0.80905  1.0000
  C   C18       1.0  0.39747  0.80516  0.69096  1.0000
  C   C19       1.0  0.10252  0.30516  0.19095  1.0000
  C   C20       1.0  0.60252  0.19484  0.30904  1.0000
  C   C21       1.0  0.91686  0.78113  0.83288  1.0000
  C   C22       1.0  0.41686  0.71887  0.66713  1.0000
  C   C23       1.0  0.08314  0.21888  0.16713  1.0000
  C   C24       1.0  0.58314  0.28112  0.33287  1.0000
  C   C25       1.0  0.06444  0.56394  0.81399  1.0000
  C   C26       1.0  0.56444  0.93606  0.68601  1.0000
  C   C27       1.0  0.93556  0.43606  0.18601  1.0000
  C   C28       1.0  0.43556  0.06394  0.31399  1.0000
  C   C29       1.0  0.26095  0.40851  0.99093  1.0000
  C   C30       1.0  0.76095  0.09150  0.50907  1.0000
  C   C31       1.0  0.73905  0.59150  0.00907  1.0000
  C   C32       1.0  0.23904  0.90850  0.49093  1.0000
  C   C33       1.0  0.95958  0.32634  0.76589  1.0000
  C   C34       1.0  0.45958  0.17366  0.73411  1.0000
  C   C35       1.0  0.04042  0.67366  0.23411  1.0000
  C   C36       1.0  0.54042  0.82634  0.26589  1.0000
  C   C37       1.0  0.92842  0.30216  0.68114  1.0000
  C   C38       1.0  0.42842  0.19784  0.81886  1.0000
  C   C39       1.0  0.07158  0.69784  0.31886  1.0000
  C   C40       1.0  0.57159  0.80216  0.18114  1.0000
  C   C41       1.0  0.71644  0.33129  0.65459  1.0000
  C   C42       1.0  0.21645  0.16871  0.84541  1.0000
  C   C43       1.0  0.28356  0.66871  0.34541  1.0000
  C   C44       1.0  0.78356  0.83129  0.15459  1.0000
  C   C45       1.0  0.54605  0.38505  0.71694  1.0000
  C   C46       1.0  0.04606  0.11495  0.78306  1.0000
  C   C47       1.0  0.45394  0.61495  0.28306  1.0000
  C   C48       1.0  0.95395  0.88505  0.21694  1.0000
  C   C49       1.0  0.58953  0.40521  0.80021  1.0000
  C   C50       1.0  0.08953  0.09479  0.69979  1.0000
  C   C51       1.0  0.41047  0.59479  0.19979  1.0000
  C   C52       1.0  0.91047  0.90521  0.30021  1.0000
  C   C53       1.0  0.66935  0.30505  0.56408  1.0000
  C   C54       1.0  0.16936  0.19495  0.93592  1.0000
  C   C55       1.0  0.33064  0.69495  0.43592  1.0000
  C   C56       1.0  0.83064  0.80505  0.06408  1.0000
  N   N1        1.0  0.77915  0.99779  0.90150  1.0000
  N   N2        1.0  0.27915  0.50221  0.59850  1.0000
  N   N3        1.0  0.22085  0.00221  0.09850  1.0000
  N   N4        1.0  0.72085  0.49779  0.40150  1.0000
  N   N5        1.0  0.10814  0.83022  0.88089  1.0000
  N   N6        1.0  0.60813  0.66978  0.61911  1.0000
  N   N7        1.0  0.89186  0.16978  0.11911  1.0000
  N   N8        1.0  0.39186  0.33022  0.38089  1.0000
  N   N9        1.0  0.48386  0.40422  0.99574  1.0000
  N   N10       1.0  0.98383  0.09579  0.50426  1.0000
  N   N11       1.0  0.51618  0.59579  0.00426  1.0000
  N   N12       1.0  0.01617  0.90421  0.49574  1.0000
  N   N13       1.0  0.79307  0.37659  0.82508  1.0000
  N   N14       1.0  0.29307  0.12341  0.67492  1.0000
  N   N15       1.0  0.20693  0.62341  0.17492  1.0000
  N   N16       1.0  0.70693  0.87659  0.32508  1.0000
