data_image0
_chemical_formula_structural       Cu4H48C56N8O16
_chemical_formula_sum              "Cu4 H48 C56 N8 O16"
_cell_length_a       7.69642
_cell_length_b       12.7303
_cell_length_c       14.005
_cell_angle_alpha    108.092
_cell_angle_beta     90
_cell_angle_gamma    90

_space_group_name_H-M_alt    "P 1"
_space_group_IT_number       1

loop_
  _space_group_symop_operation_xyz
  'x, y, z'

loop_
  _atom_site_type_symbol
  _atom_site_label
  _atom_site_symmetry_multiplicity
  _atom_site_fract_x
  _atom_site_fract_y
  _atom_site_fract_z
  _atom_site_occupancy
  Cu  Cu1       1.0  0.98107  0.10229  0.31963  1.0000
  Cu  Cu2       1.0  0.48107  0.39771  0.18037  1.0000
  Cu  Cu3       1.0  0.01893  0.89771  0.68037  1.0000
  Cu  Cu4       1.0  0.51893  0.60229  0.81963  1.0000
  H   H1        1.0  0.99808  0.13274  0.13961  1.0000
  H   H2        1.0  0.49808  0.36726  0.36039  1.0000
  H   H3        1.0  0.00192  0.86726  0.86040  1.0000
  H   H4        1.0  0.50192  0.63274  0.63961  1.0000
  H   H5        1.0  0.13837  0.21947  0.21500  1.0000
  H   H6        1.0  0.63837  0.28053  0.28500  1.0000
  H   H7        1.0  0.86163  0.78052  0.78500  1.0000
  H   H8        1.0  0.36163  0.71948  0.71500  1.0000
  H   H9        1.0  0.63333  0.86555  0.07056  1.0000
  H   H10       1.0  0.13334  0.63446  0.42944  1.0000
  H   H11       1.0  0.36666  0.13445  0.92943  1.0000
  H   H12       1.0  0.86666  0.36555  0.57057  1.0000
  H   H13       1.0  0.10660  0.95275  0.02695  1.0000
  H   H14       1.0  0.60660  0.54725  0.47305  1.0000
  H   H15       1.0  0.89340  0.04725  0.97305  1.0000
  H   H16       1.0  0.39340  0.45275  0.52695  1.0000
  H   H17       1.0  0.40362  0.16057  0.27376  1.0000
  H   H18       1.0  0.90362  0.33943  0.22624  1.0000
  H   H19       1.0  0.59638  0.83942  0.72624  1.0000
  H   H20       1.0  0.09638  0.66058  0.77376  1.0000
  H   H21       1.0  0.10459  0.87676  0.22829  1.0000
  H   H22       1.0  0.60458  0.62324  0.27171  1.0000
  H   H23       1.0  0.89541  0.12324  0.77171  1.0000
  H   H24       1.0  0.39541  0.37676  0.72829  1.0000
  H   H25       1.0  0.27912  0.73762  0.28027  1.0000
  H   H26       1.0  0.77912  0.76238  0.21973  1.0000
  H   H27       1.0  0.72088  0.26237  0.71973  1.0000
  H   H28       1.0  0.22088  0.23762  0.78027  1.0000
  H   H29       1.0  0.33836  0.98207  0.57108  1.0000
  H   H30       1.0  0.83836  0.51793  0.92892  1.0000
  H   H31       1.0  0.66164  0.01793  0.42892  1.0000
  H   H32       1.0  0.16164  0.48207  0.07108  1.0000
  H   H33       1.0  0.15729  0.10991  0.50791  1.0000
  H   H34       1.0  0.65729  0.39009  0.99209  1.0000
  H   H35       1.0  0.84272  0.89009  0.49209  1.0000
  H   H36       1.0  0.34271  0.60991  0.00790  1.0000
  H   H37       1.0  0.56916  0.79401  0.47230  1.0000
  H   H38       1.0  0.06916  0.70599  0.02770  1.0000
  H   H39       1.0  0.43084  0.20599  0.52770  1.0000
  H   H40       1.0  0.93084  0.29401  0.97230  1.0000
  H   H41       1.0  0.42247  0.68498  0.41306  1.0000
  H   H42       1.0  0.92248  0.81502  0.08694  1.0000
  H   H43       1.0  0.57753  0.31502  0.58694  1.0000
  H   H44       1.0  0.07753  0.18498  0.91306  1.0000
  H   H45       1.0  0.39064  0.77024  0.54043  1.0000
  H   H46       1.0  0.89064  0.72976  0.95956  1.0000
  H   H47       1.0  0.60936  0.22976  0.45957  1.0000
  H   H48       1.0  0.10936  0.27024  0.04043  1.0000
  C   C1        1.0  0.70131  0.04632  0.23439  1.0000
  C   C2        1.0  0.20131  0.45368  0.26561  1.0000
  C   C3        1.0  0.29869  0.95368  0.76560  1.0000
  C   C4        1.0  0.79869  0.54632  0.73440  1.0000
  C   C5        1.0  0.35126  0.80129  0.94787  1.0000
  C   C6        1.0  0.85126  0.69871  0.55213  1.0000
  C   C7        1.0  0.64874  0.19871  0.05213  1.0000
  C   C8        1.0  0.14874  0.30129  0.44787  1.0000
  C   C9        1.0  0.53674  0.01635  0.17792  1.0000
  C   C10       1.0  0.03674  0.48365  0.32207  1.0000
  C   C11       1.0  0.46326  0.98365  0.82207  1.0000
  C   C12       1.0  0.96326  0.51635  0.67793  1.0000
  C   C13       1.0  0.52322  0.92086  0.09495  1.0000
  C   C14       1.0  0.02322  0.57914  0.40505  1.0000
  C   C15       1.0  0.47678  0.07914  0.90505  1.0000
  C   C16       1.0  0.97678  0.42086  0.59495  1.0000
  C   C17       1.0  0.36761  0.89937  0.04097  1.0000
  C   C18       1.0  0.86761  0.60063  0.45902  1.0000
  C   C19       1.0  0.63238  0.10063  0.95903  1.0000
  C   C20       1.0  0.13239  0.39937  0.54098  1.0000
  C   C21       1.0  0.22605  0.97146  0.07070  1.0000
  C   C22       1.0  0.72605  0.52854  0.42929  1.0000
  C   C23       1.0  0.77395  0.02854  0.92929  1.0000
  C   C24       1.0  0.27395  0.47146  0.57071  1.0000
  C   C25       1.0  0.23864  0.06612  0.15439  1.0000
  C   C26       1.0  0.73864  0.43388  0.34561  1.0000
  C   C27       1.0  0.76136  0.93388  0.84561  1.0000
  C   C28       1.0  0.26136  0.56612  0.65439  1.0000
  C   C29       1.0  0.39555  0.08799  0.20763  1.0000
  C   C30       1.0  0.89555  0.41201  0.29237  1.0000
  C   C31       1.0  0.60444  0.91201  0.79237  1.0000
  C   C32       1.0  0.10445  0.58799  0.70764  1.0000
  C   C33       1.0  0.15988  0.89645  0.30336  1.0000
  C   C34       1.0  0.65987  0.60355  0.19664  1.0000
  C   C35       1.0  0.84013  0.10355  0.69664  1.0000
  C   C36       1.0  0.34012  0.39645  0.80336  1.0000
  C   C37       1.0  0.25765  0.82007  0.33276  1.0000
  C   C38       1.0  0.75765  0.67993  0.16724  1.0000
  C   C39       1.0  0.74235  0.17993  0.66724  1.0000
  C   C40       1.0  0.24235  0.32006  0.83276  1.0000
  C   C41       1.0  0.32593  0.84845  0.43023  1.0000
  C   C42       1.0  0.82593  0.65155  0.06978  1.0000
  C   C43       1.0  0.67407  0.15155  0.56978  1.0000
  C   C44       1.0  0.17407  0.34845  0.93022  1.0000
  C   C45       1.0  0.29035  0.95536  0.49411  1.0000
  C   C46       1.0  0.79035  0.54464  0.00589  1.0000
  C   C47       1.0  0.70965  0.04464  0.50589  1.0000
  C   C48       1.0  0.20965  0.45536  0.99411  1.0000
  C   C49       1.0  0.19098  0.02718  0.45996  1.0000
  C   C50       1.0  0.69098  0.47282  0.04004  1.0000
  C   C51       1.0  0.80902  0.97282  0.54005  1.0000
  C   C52       1.0  0.30902  0.52718  0.95995  1.0000
  C   C53       1.0  0.43174  0.76919  0.46514  1.0000
  C   C54       1.0  0.93174  0.73081  0.03486  1.0000
  C   C55       1.0  0.56826  0.23081  0.53486  1.0000
  C   C56       1.0  0.06826  0.26919  0.96514  1.0000
  N   N1        1.0  0.09726  0.13851  0.19006  1.0000
  N   N2        1.0  0.59726  0.36149  0.30994  1.0000
  N   N3        1.0  0.90274  0.86149  0.80994  1.0000
  N   N4        1.0  0.40274  0.63851  0.69006  1.0000
  N   N5        1.0  0.12634  0.99859  0.36587  1.0000
  N   N6        1.0  0.62633  0.50141  0.13413  1.0000
  N   N7        1.0  0.87366  0.00141  0.63413  1.0000
  N   N8        1.0  0.37366  0.49859  0.86587  1.0000
  O   O1        1.0  0.71965  0.14182  0.29957  1.0000
  O   O2        1.0  0.21965  0.35819  0.20043  1.0000
  O   O3        1.0  0.28035  0.85818  0.70043  1.0000
  O   O4        1.0  0.78035  0.64182  0.79957  1.0000
  O   O5        1.0  0.83085  0.97909  0.22003  1.0000
  O   O6        1.0  0.33085  0.52091  0.27997  1.0000
  O   O7        1.0  0.16916  0.02091  0.77997  1.0000
  O   O8        1.0  0.66915  0.47910  0.72003  1.0000
  O   O9        1.0  0.48058  0.73250  0.93333  1.0000
  O   O10       1.0  0.98058  0.76750  0.56667  1.0000
  O   O11       1.0  0.51942  0.26750  0.06667  1.0000
  O   O12       1.0  0.01942  0.23250  0.43333  1.0000
  O   O13       1.0  0.22075  0.79134  0.89263  1.0000
  O   O14       1.0  0.72075  0.70865  0.60737  1.0000
  O   O15       1.0  0.77924  0.20865  0.10738  1.0000
  O   O16       1.0  0.27924  0.29135  0.39262  1.0000
