data_image0
_chemical_formula_structural       Cu2H32C28O16F12
_chemical_formula_sum              "Cu2 H32 C28 O16 F12"
_cell_length_a       5.26902
_cell_length_b       12.5254
_cell_length_c       13.9873
_cell_angle_alpha    90.0001
_cell_angle_beta     101.713
_cell_angle_gamma    89.9997

_space_group_name_H-M_alt    "P 1"
_space_group_IT_number       1

loop_
  _space_group_symop_operation_xyz
  'x, y, z'

loop_
  _atom_site_type_symbol
  _atom_site_label
  _atom_site_symmetry_multiplicity
  _atom_site_fract_x
  _atom_site_fract_y
  _atom_site_fract_z
  _atom_site_occupancy
  Cu  Cu1       1.0  1.00000  0.50000  0.00000  1.0000
  Cu  Cu2       1.0  0.49999  0.00001  0.50000  1.0000
  H   H1        1.0  0.48379  0.75270  0.15226  1.0000
  H   H2        1.0  0.01621  0.25270  0.34773  1.0000
  H   H3        1.0  0.51620  0.24731  0.84775  1.0000
  H   H4        1.0  0.98379  0.74730  0.65226  1.0000
  H   H5        1.0  0.64172  0.52640  0.26696  1.0000
  H   H6        1.0  0.85827  0.02641  0.23303  1.0000
  H   H7        1.0  0.35830  0.47360  0.73303  1.0000
  H   H8        1.0  0.14172  0.97359  0.76698  1.0000
  H   H9        1.0  0.97042  0.32648  0.18159  1.0000
  H   H10       1.0  0.52959  0.82649  0.31842  1.0000
  H   H11       1.0  0.02959  0.67351  0.81841  1.0000
  H   H12       1.0  0.47044  0.17350  0.68159  1.0000
  H   H13       1.0  0.63105  0.34520  0.13241  1.0000
  H   H14       1.0  0.86896  0.84521  0.36759  1.0000
  H   H15       1.0  0.36896  0.65480  0.86758  1.0000
  H   H16       1.0  0.13106  0.15480  0.63242  1.0000
  H   H17       1.0  0.75659  0.36723  0.25982  1.0000
  H   H18       1.0  0.74342  0.86723  0.24018  1.0000
  H   H19       1.0  0.24340  0.63277  0.74017  1.0000
  H   H20       1.0  0.25661  0.13277  0.75983  1.0000
  H   H21       1.0  0.19620  0.58142  0.29296  1.0000
  H   H22       1.0  0.30380  0.08142  0.20704  1.0000
  H   H23       1.0  0.80381  0.41859  0.70703  1.0000
  H   H24       1.0  0.69619  0.91858  0.79296  1.0000
  H   H25       1.0  0.98143  0.61616  0.37244  1.0000
  H   H26       1.0  0.51856  0.11617  0.12756  1.0000
  H   H27       1.0  0.01857  0.38383  0.62756  1.0000
  H   H28       1.0  0.48144  0.88383  0.87244  1.0000
  H   H29       1.0  0.14961  0.71875  0.32088  1.0000
  H   H30       1.0  0.35037  0.21876  0.17912  1.0000
  H   H31       1.0  0.85039  0.28125  0.67911  1.0000
  H   H32       1.0  0.64962  0.78124  0.82088  1.0000
  C   C1        1.0  0.12572  0.71676  0.05438  1.0000
  C   C2        1.0  0.37425  0.21677  0.44561  1.0000
  C   C3        1.0  0.87429  0.28324  0.94563  1.0000
  C   C4        1.0  0.62571  0.78323  0.55438  1.0000
  C   C5        1.0  0.36311  0.69034  0.11327  1.0000
  C   C6        1.0  0.13689  0.19035  0.38672  1.0000
  C   C7        1.0  0.63690  0.30965  0.88674  1.0000
  C   C8        1.0  0.86311  0.80965  0.61327  1.0000
  C   C9        1.0  0.45360  0.58478  0.12596  1.0000
  C   C10       1.0  0.04640  0.08478  0.37403  1.0000
  C   C11       1.0  0.54641  0.41523  0.87404  1.0000
  C   C12       1.0  0.95358  0.91522  0.62597  1.0000
  C   C13       1.0  0.05082  0.83604  0.04605  1.0000
  C   C14       1.0  0.44919  0.33605  0.45395  1.0000
  C   C15       1.0  0.94920  0.16395  0.95396  1.0000
  C   C16       1.0  0.55081  0.66395  0.54604  1.0000
  C   C17       1.0  0.70286  0.56010  0.20145  1.0000
  C   C18       1.0  0.79714  0.06010  0.29854  1.0000
  C   C19       1.0  0.29716  0.43990  0.79855  1.0000
  C   C20       1.0  0.20284  0.93990  0.70146  1.0000
  C   C21       1.0  0.79866  0.37386  0.18613  1.0000
  C   C22       1.0  0.70136  0.87386  0.31388  1.0000
  C   C23       1.0  0.20135  0.62614  0.81387  1.0000
  C   C24       1.0  0.29866  0.12613  0.68613  1.0000
  C   C25       1.0  0.05562  0.64072  0.30766  1.0000
  C   C26       1.0  0.44436  0.14072  0.19234  1.0000
  C   C27       1.0  0.94437  0.35929  0.69233  1.0000
  C   C28       1.0  0.55563  0.85928  0.80766  1.0000
  O   O1        1.0  0.95798  0.65630  0.00221  1.0000
  O   O2        1.0  0.54199  0.15631  0.49779  1.0000
  O   O3        1.0  0.04201  0.34370  0.99779  1.0000
  O   O4        1.0  0.45797  0.84370  0.50221  1.0000
  O   O5        1.0  0.34111  0.50216  0.08483  1.0000
  O   O6        1.0  0.15889  0.00216  0.41517  1.0000
  O   O7        1.0  0.65891  0.49785  0.91516  1.0000
  O   O8        1.0  0.84108  0.99785  0.58484  1.0000
  O   O9        1.0  0.85802  0.48243  0.16625  1.0000
  O   O10       1.0  0.64199  0.98244  0.33374  1.0000
  O   O11       1.0  0.14199  0.51757  0.83375  1.0000
  O   O12       1.0  0.35801  0.01756  0.66626  1.0000
  O   O13       1.0  0.84614  0.65331  0.22487  1.0000
  O   O14       1.0  0.65385  0.15331  0.27513  1.0000
  O   O15       1.0  0.15386  0.34669  0.77513  1.0000
  O   O16       1.0  0.34613  0.84669  0.72488  1.0000
  F   F1        1.0  0.79605  0.85170  0.04686  1.0000
  F   F2        1.0  0.70394  0.35170  0.45312  1.0000
  F   F3        1.0  0.20396  0.14829  0.95313  1.0000
  F   F4        1.0  0.29604  0.64829  0.54686  1.0000
  F   F5        1.0  0.09344  0.87678  0.95952  1.0000
  F   F6        1.0  0.40657  0.37679  0.54047  1.0000
  F   F7        1.0  0.90659  0.12321  0.04049  1.0000
  F   F8        1.0  0.59343  0.62322  0.45951  1.0000
  F   F9        1.0  0.19037  0.89690  0.11901  1.0000
  F   F10       1.0  0.30962  0.39691  0.38098  1.0000
  F   F11       1.0  0.80961  0.10310  0.88100  1.0000
  F   F12       1.0  0.69038  0.60309  0.61901  1.0000
