data_image0
_chemical_formula_structural       Zn2H34C42N2O14
_chemical_formula_sum              "Zn2 H34 C42 N2 O14"
_cell_length_a       9.1321
_cell_length_b       9.52034
_cell_length_c       14.5523
_cell_angle_alpha    107.162
_cell_angle_beta     93.4877
_cell_angle_gamma    113.001

_space_group_name_H-M_alt    "P 1"
_space_group_IT_number       1

loop_
  _space_group_symop_operation_xyz
  'x, y, z'

loop_
  _atom_site_type_symbol
  _atom_site_label
  _atom_site_symmetry_multiplicity
  _atom_site_fract_x
  _atom_site_fract_y
  _atom_site_fract_z
  _atom_site_occupancy
  Zn  Zn1       1.0  0.31521  0.39112  0.28957  1.0000
  Zn  Zn2       1.0  0.68479  0.60888  0.71043  1.0000
  H   H1        1.0  0.38011  0.68487  0.39510  1.0000
  H   H2        1.0  0.61991  0.31513  0.60490  1.0000
  H   H3        1.0  0.52309  0.65722  0.44657  1.0000
  H   H4        1.0  0.47692  0.34278  0.55343  1.0000
  H   H5        1.0  0.34781  0.88178  0.05415  1.0000
  H   H6        1.0  0.65219  0.11822  0.94585  1.0000
  H   H7        1.0  0.53500  0.74751  0.00911  1.0000
  H   H8        1.0  0.46500  0.25250  0.99088  1.0000
  H   H9        1.0  0.92749  0.16165  0.22490  1.0000
  H   H10       1.0  0.07250  0.83835  0.77510  1.0000
  H   H11       1.0  0.74029  0.29198  0.26956  1.0000
  H   H12       1.0  0.25971  0.70801  0.73044  1.0000
  H   H13       1.0  0.79550  0.76010  0.01853  1.0000
  H   H14       1.0  0.20450  0.23990  0.98147  1.0000
  H   H15       1.0  0.97102  0.94680  0.08354  1.0000
  H   H16       1.0  0.02898  0.05320  0.91646  1.0000
  H   H17       1.0  0.63204  0.65162  0.14784  1.0000
  H   H18       1.0  0.36796  0.34838  0.85216  1.0000
  H   H19       1.0  0.67525  0.52671  0.26870  1.0000
  H   H20       1.0  0.32475  0.47329  0.73130  1.0000
  H   H21       1.0  0.96093  0.61074  0.35343  1.0000
  H   H22       1.0  0.03907  0.38926  0.64657  1.0000
  H   H23       1.0  0.19291  0.81502  0.30948  1.0000
  H   H24       1.0  0.80709  0.18498  0.69052  1.0000
  H   H25       1.0  0.13039  0.92946  0.18488  1.0000
  H   H26       1.0  0.86960  0.07054  0.81512  1.0000
  H   H27       1.0  0.29799  0.10793  0.55529  1.0000
  H   H28       1.0  0.70202  0.89207  0.44472  1.0000
  H   H29       1.0  0.89190  0.09795  0.38328  1.0000
  H   H30       1.0  0.10810  0.90205  0.61673  1.0000
  H   H31       1.0  0.90243  0.37705  0.12604  1.0000
  H   H32       1.0  0.09757  0.62295  0.87396  1.0000
  H   H33       1.0  0.29092  0.59414  0.98972  1.0000
  H   H34       1.0  0.70908  0.40586  0.01029  1.0000
  C   C1        1.0  0.41989  0.17328  0.18913  1.0000
  C   C2        1.0  0.58011  0.82671  0.81086  1.0000
  C   C3        1.0  0.53257  0.09413  0.16457  1.0000
  C   C4        1.0  0.46743  0.90586  0.83543  1.0000
  C   C5        1.0  0.47452  0.94037  0.09159  1.0000
  C   C6        1.0  0.52549  0.05964  0.90840  1.0000
  C   C7        1.0  0.57818  0.86613  0.06696  1.0000
  C   C8        1.0  0.42181  0.13387  0.93303  1.0000
  C   C9        1.0  0.74115  0.94481  0.11479  1.0000
  C   C10       1.0  0.25884  0.05519  0.88521  1.0000
  C   C11       1.0  0.80019  0.09899  0.18783  1.0000
  C   C12       1.0  0.19981  0.90101  0.81217  1.0000
  C   C13       1.0  0.69607  0.17257  0.21265  1.0000
  C   C14       1.0  0.30392  0.82742  0.78735  1.0000
  C   C15       1.0  0.85120  0.86236  0.08828  1.0000
  C   C16       1.0  0.14880  0.13764  0.91172  1.0000
  C   C17       1.0  0.75369  0.68472  0.18609  1.0000
  C   C18       1.0  0.24631  0.31528  0.81391  1.0000
  C   C19       1.0  0.77975  0.61773  0.25443  1.0000
  C   C20       1.0  0.22024  0.38227  0.74558  1.0000
  C   C21       1.0  0.93838  0.66353  0.30017  1.0000
  C   C22       1.0  0.06161  0.33647  0.69983  1.0000
  C   C23       1.0  0.06716  0.77621  0.27629  1.0000
  C   C24       1.0  0.93284  0.22380  0.72372  1.0000
  C   C25       1.0  0.03590  0.84059  0.20755  1.0000
  C   C26       1.0  0.96410  0.15941  0.79245  1.0000
  C   C27       1.0  0.22039  0.23555  0.42477  1.0000
  C   C28       1.0  0.77962  0.76445  0.57523  1.0000
  C   C29       1.0  0.10692  0.11594  0.46505  1.0000
  C   C30       1.0  0.89308  0.88406  0.53495  1.0000
  C   C31       1.0  0.16734  0.05963  0.53054  1.0000
  C   C32       1.0  0.83266  0.94038  0.46946  1.0000
  C   C33       1.0  0.93832  0.05522  0.43496  1.0000
  C   C34       1.0  0.06168  0.94478  0.56504  1.0000
  C   C35       1.0  0.22679  0.47200  0.13456  1.0000
  C   C36       1.0  0.77321  0.52800  0.86544  1.0000
  C   C37       1.0  0.10878  0.48609  0.06524  1.0000
  C   C38       1.0  0.89122  0.51391  0.93476  1.0000
  C   C39       1.0  0.94418  0.43123  0.07087  1.0000
  C   C40       1.0  0.05582  0.56878  0.92914  1.0000
  C   C41       1.0  0.16314  0.55414  0.99366  1.0000
  C   C42       1.0  0.83686  0.44585  0.00634  1.0000
  N   N1        1.0  0.88128  0.79423  0.16414  1.0000
  N   N2        1.0  0.11872  0.20577  0.83586  1.0000
  O   O1        1.0  0.45040  0.63004  0.38088  1.0000
  O   O2        1.0  0.54961  0.36995  0.61912  1.0000
  O   O3        1.0  0.48222  0.31440  0.25881  1.0000
  O   O4        1.0  0.51778  0.68560  0.74119  1.0000
  O   O5        1.0  0.27428  0.10359  0.14458  1.0000
  O   O6        1.0  0.72572  0.89642  0.85541  1.0000
  O   O7        1.0  0.15427  0.26136  0.35449  1.0000
  O   O8        1.0  0.84573  0.73864  0.64551  1.0000
  O   O9        1.0  0.37169  0.30269  0.45712  1.0000
  O   O10       1.0  0.62831  0.69731  0.54288  1.0000
  O   O11       1.0  0.17317  0.44052  0.21037  1.0000
  O   O12       1.0  0.82683  0.55948  0.78963  1.0000
  O   O13       1.0  0.36368  0.48803  0.11646  1.0000
  O   O14       1.0  0.63632  0.51196  0.88354  1.0000
