data_image0
_chemical_formula_structural       U4H24C24N8O28
_chemical_formula_sum              "U4 H24 C24 N8 O28"
_cell_length_a       6.90098
_cell_length_b       10.576
_cell_length_c       14.0295
_cell_angle_alpha    90.0003
_cell_angle_beta     96.1009
_cell_angle_gamma    89.9996

_space_group_name_H-M_alt    "P 1"
_space_group_IT_number       1

loop_
  _space_group_symop_operation_xyz
  'x, y, z'

loop_
  _atom_site_type_symbol
  _atom_site_label
  _atom_site_symmetry_multiplicity
  _atom_site_fract_x
  _atom_site_fract_y
  _atom_site_fract_z
  _atom_site_occupancy
  U   U1        1.0  0.93921  0.43013  0.30691  1.0000
  U   U2        1.0  0.06078  0.93013  0.19309  1.0000
  U   U3        1.0  0.06077  0.56987  0.69309  1.0000
  U   U4        1.0  0.93922  0.06987  0.80691  1.0000
  H   H1        1.0  0.42424  0.82285  0.86619  1.0000
  H   H2        1.0  0.57576  0.32284  0.63381  1.0000
  H   H3        1.0  0.57577  0.17716  0.13381  1.0000
  H   H4        1.0  0.42423  0.67716  0.36620  1.0000
  H   H5        1.0  0.42625  0.51209  0.15977  1.0000
  H   H6        1.0  0.57375  0.01208  0.34023  1.0000
  H   H7        1.0  0.57375  0.48791  0.84023  1.0000
  H   H8        1.0  0.42626  0.98792  0.65978  1.0000
  H   H9        1.0  0.21161  0.60586  0.13481  1.0000
  H   H10       1.0  0.78839  0.10585  0.36519  1.0000
  H   H11       1.0  0.78839  0.39414  0.86519  1.0000
  H   H12       1.0  0.21162  0.89415  0.63482  1.0000
  H   H13       1.0  0.26248  0.48104  0.05481  1.0000
  H   H14       1.0  0.73752  0.98103  0.44519  1.0000
  H   H15       1.0  0.73752  0.51897  0.94519  1.0000
  H   H16       1.0  0.26248  0.01897  0.55482  1.0000
  H   H17       1.0  0.86434  0.34267  0.09573  1.0000
  H   H18       1.0  0.13566  0.84267  0.40427  1.0000
  H   H19       1.0  0.13566  0.65733  0.90427  1.0000
  H   H20       1.0  0.86435  0.15733  0.59573  1.0000
  H   H21       1.0  0.04334  0.26956  0.15426  1.0000
  H   H22       1.0  0.95667  0.76955  0.34574  1.0000
  H   H23       1.0  0.95666  0.73044  0.84574  1.0000
  H   H24       1.0  0.04334  0.23044  0.65425  1.0000
  C   C1        1.0  0.80281  0.86158  0.97788  1.0000
  C   C2        1.0  0.19719  0.36157  0.52212  1.0000
  C   C3        1.0  0.19720  0.13843  0.02212  1.0000
  C   C4        1.0  0.80280  0.63842  0.47788  1.0000
  C   C5        1.0  0.63560  0.78395  0.99686  1.0000
  C   C6        1.0  0.36440  0.28395  0.50313  1.0000
  C   C7        1.0  0.36441  0.21605  0.00314  1.0000
  C   C8        1.0  0.63559  0.71605  0.49687  1.0000
  C   C9        1.0  0.46412  0.77334  0.93319  1.0000
  C   C10       1.0  0.53588  0.27333  0.56681  1.0000
  C   C11       1.0  0.53589  0.22667  0.06681  1.0000
  C   C12       1.0  0.46411  0.72667  0.43319  1.0000
  C   C13       1.0  0.61048  0.69793  0.07156  1.0000
  C   C14       1.0  0.38952  0.19792  0.42844  1.0000
  C   C15       1.0  0.38953  0.30208  0.92844  1.0000
  C   C16       1.0  0.61048  0.80208  0.57156  1.0000
  C   C17       1.0  0.32664  0.55450  0.10318  1.0000
  C   C18       1.0  0.67336  0.05450  0.39682  1.0000
  C   C19       1.0  0.67336  0.44550  0.89682  1.0000
  C   C20       1.0  0.32665  0.94550  0.60319  1.0000
  C   C21       1.0  0.74352  0.66433  0.15835  1.0000
  C   C22       1.0  0.25648  0.16432  0.34166  1.0000
  C   C23       1.0  0.25648  0.33567  0.84166  1.0000
  C   C24       1.0  0.74352  0.83568  0.65835  1.0000
  N   N1        1.0  0.43383  0.64242  0.04858  1.0000
  N   N2        1.0  0.56618  0.14241  0.45142  1.0000
  N   N3        1.0  0.56618  0.35758  0.95142  1.0000
  N   N4        1.0  0.43383  0.85759  0.54858  1.0000
  N   N5        1.0  0.34336  0.68946  0.96594  1.0000
  N   N6        1.0  0.65664  0.18946  0.53405  1.0000
  N   N7        1.0  0.65664  0.31054  0.03405  1.0000
  N   N8        1.0  0.34335  0.81054  0.46595  1.0000
  O   O1        1.0  0.73070  0.32710  0.30866  1.0000
  O   O2        1.0  0.26931  0.82710  0.19133  1.0000
  O   O3        1.0  0.26930  0.67288  0.69134  1.0000
  O   O4        1.0  0.73070  0.17289  0.80867  1.0000
  O   O5        1.0  0.14514  0.53535  0.30485  1.0000
  O   O6        1.0  0.85485  0.03535  0.19515  1.0000
  O   O7        1.0  0.85485  0.46465  0.69515  1.0000
  O   O8        1.0  0.14514  0.96465  0.80485  1.0000
  O   O9        1.0  0.74345  0.54984  0.18644  1.0000
  O   O10       1.0  0.25655  0.04984  0.31356  1.0000
  O   O11       1.0  0.25654  0.45016  0.81356  1.0000
  O   O12       1.0  0.74346  0.95016  0.68644  1.0000
  O   O13       1.0  0.84893  0.75008  0.19976  1.0000
  O   O14       1.0  0.15107  0.25008  0.30024  1.0000
  O   O15       1.0  0.15108  0.24992  0.80024  1.0000
  O   O16       1.0  0.84894  0.74992  0.69976  1.0000
  O   O17       1.0  0.95436  0.86909  0.03825  1.0000
  O   O18       1.0  0.04564  0.36909  0.46174  1.0000
  O   O19       1.0  0.04565  0.13091  0.96175  1.0000
  O   O20       1.0  0.95435  0.63091  0.53826  1.0000
  O   O21       1.0  0.79058  0.91678  0.89636  1.0000
  O   O22       1.0  0.20941  0.41678  0.60364  1.0000
  O   O23       1.0  0.20941  0.08323  0.10364  1.0000
  O   O24       1.0  0.79057  0.58322  0.39637  1.0000
  O   O25       1.0  0.98744  0.35381  0.14235  1.0000
  O   O26       1.0  0.01256  0.85381  0.35765  1.0000
  O   O27       1.0  0.01255  0.64618  0.85766  1.0000
  O   O28       1.0  0.98744  0.14619  0.64234  1.0000
