data_image0
_chemical_formula_structural       U4H24C24N8O28
_chemical_formula_sum              "U4 H24 C24 N8 O28"
_cell_length_a       8.02997
_cell_length_b       8.02995
_cell_length_c       14.865
_cell_angle_alpha    88.3994
_cell_angle_beta     88.3992
_cell_angle_gamma    85.8013

_space_group_name_H-M_alt    "P 1"
_space_group_IT_number       1

loop_
  _space_group_symop_operation_xyz
  'x, y, z'

loop_
  _atom_site_type_symbol
  _atom_site_label
  _atom_site_symmetry_multiplicity
  _atom_site_fract_x
  _atom_site_fract_y
  _atom_site_fract_z
  _atom_site_occupancy
  U   U1        1.0  0.02875  0.42386  0.17619  1.0000
  U   U2        1.0  0.57614  0.97125  0.32381  1.0000
  U   U3        1.0  0.97126  0.57615  0.82381  1.0000
  U   U4        1.0  0.42386  0.02875  0.67619  1.0000
  H   H1        1.0  0.72156  0.48319  0.64918  1.0000
  H   H2        1.0  0.51680  0.27844  0.85082  1.0000
  H   H3        1.0  0.27844  0.51681  0.35082  1.0000
  H   H4        1.0  0.48320  0.72155  0.14918  1.0000
  H   H5        1.0  0.88789  0.20677  0.65565  1.0000
  H   H6        1.0  0.79324  0.11212  0.84435  1.0000
  H   H7        1.0  0.11212  0.79324  0.34435  1.0000
  H   H8        1.0  0.20678  0.88788  0.15565  1.0000
  H   H9        1.0  0.83255  0.08928  0.56122  1.0000
  H   H10       1.0  0.91071  0.16745  0.93877  1.0000
  H   H11       1.0  0.16745  0.91072  0.43877  1.0000
  H   H12       1.0  0.08929  0.83255  0.06123  1.0000
  H   H13       1.0  0.03258  0.17259  0.56301  1.0000
  H   H14       1.0  0.82742  0.96742  0.93699  1.0000
  H   H15       1.0  0.96742  0.82741  0.43699  1.0000
  H   H16       1.0  0.17259  0.03258  0.06301  1.0000
  H   H17       1.0  0.98847  0.26504  0.36604  1.0000
  H   H18       1.0  0.73496  0.01153  0.13396  1.0000
  H   H19       1.0  0.01153  0.73496  0.63396  1.0000
  H   H20       1.0  0.26504  0.98847  0.86604  1.0000
  H   H21       1.0  0.18405  0.22386  0.34055  1.0000
  H   H22       1.0  0.77614  0.81595  0.15945  1.0000
  H   H23       1.0  0.81595  0.77614  0.65945  1.0000
  H   H24       1.0  0.22386  0.18405  0.84055  1.0000
  C   C1        1.0  0.74491  0.55425  0.33079  1.0000
  C   C2        1.0  0.44574  0.25509  0.16921  1.0000
  C   C3        1.0  0.25509  0.44574  0.66921  1.0000
  C   C4        1.0  0.55426  0.74491  0.83079  1.0000
  C   C5        1.0  0.75680  0.50851  0.42753  1.0000
  C   C6        1.0  0.49149  0.24319  0.07247  1.0000
  C   C7        1.0  0.24320  0.49149  0.57247  1.0000
  C   C8        1.0  0.50851  0.75681  0.92753  1.0000
  C   C9        1.0  0.74402  0.47826  0.57704  1.0000
  C   C10       1.0  0.52174  0.25598  0.92296  1.0000
  C   C11       1.0  0.25598  0.52174  0.42296  1.0000
  C   C12       1.0  0.47827  0.74402  0.07704  1.0000
  C   C13       1.0  0.69382  0.58954  0.50725  1.0000
  C   C14       1.0  0.41045  0.30617  0.99275  1.0000
  C   C15       1.0  0.30618  0.41046  0.49275  1.0000
  C   C16       1.0  0.58955  0.69383  0.00725  1.0000
  C   C17       1.0  0.59867  0.75179  0.52060  1.0000
  C   C18       1.0  0.24821  0.40132  0.97940  1.0000
  C   C19       1.0  0.40132  0.24821  0.47939  1.0000
  C   C20       1.0  0.75179  0.59867  0.02060  1.0000
  C   C21       1.0  0.90070  0.19386  0.58282  1.0000
  C   C22       1.0  0.80614  0.09930  0.91717  1.0000
  C   C23       1.0  0.09930  0.80615  0.41717  1.0000
  C   C24       1.0  0.19386  0.90070  0.08283  1.0000
  N   N1        1.0  0.83101  0.34664  0.53911  1.0000
  N   N2        1.0  0.65336  0.16899  0.96089  1.0000
  N   N3        1.0  0.16899  0.65336  0.46089  1.0000
  N   N4        1.0  0.34664  0.83101  0.03911  1.0000
  N   N5        1.0  0.84200  0.36312  0.44908  1.0000
  N   N6        1.0  0.63687  0.15799  0.05092  1.0000
  N   N7        1.0  0.15800  0.63688  0.55092  1.0000
  N   N8        1.0  0.36312  0.84201  0.94908  1.0000
  O   O1        1.0  0.09061  0.61102  0.22764  1.0000
  O   O2        1.0  0.38897  0.90938  0.27235  1.0000
  O   O3        1.0  0.90939  0.38897  0.77236  1.0000
  O   O4        1.0  0.61102  0.09061  0.72764  1.0000
  O   O5        1.0  0.97068  0.24181  0.11951  1.0000
  O   O6        1.0  0.75818  0.02932  0.38049  1.0000
  O   O7        1.0  0.02931  0.75818  0.88049  1.0000
  O   O8        1.0  0.24181  0.97068  0.61951  1.0000
  O   O9        1.0  0.79976  0.44480  0.27450  1.0000
  O   O10       1.0  0.55519  0.20025  0.22551  1.0000
  O   O11       1.0  0.20025  0.55519  0.72551  1.0000
  O   O12       1.0  0.44481  0.79976  0.77450  1.0000
  O   O13       1.0  0.68038  0.69573  0.30589  1.0000
  O   O14       1.0  0.30426  0.31962  0.19412  1.0000
  O   O15       1.0  0.31962  0.30426  0.69411  1.0000
  O   O16       1.0  0.69573  0.68038  0.80589  1.0000
  O   O17       1.0  0.51361  0.82122  0.45673  1.0000
  O   O18       1.0  0.17879  0.48638  0.04327  1.0000
  O   O19       1.0  0.48638  0.17879  0.54327  1.0000
  O   O20       1.0  0.82121  0.51361  0.95673  1.0000
  O   O21       1.0  0.60500  0.81599  0.59827  1.0000
  O   O22       1.0  0.18402  0.39499  0.90173  1.0000
  O   O23       1.0  0.39499  0.18402  0.40173  1.0000
  O   O24       1.0  0.81599  0.60501  0.09826  1.0000
  O   O25       1.0  0.07192  0.24526  0.31578  1.0000
  O   O26       1.0  0.75474  0.92807  0.18422  1.0000
  O   O27       1.0  0.92808  0.75474  0.68422  1.0000
  O   O28       1.0  0.24526  0.07192  0.81578  1.0000
