data_image0
_chemical_formula_structural       Co3H14C12N4O16
_chemical_formula_sum              "Co3 H14 C12 N4 O16"
_cell_length_a       7.28539
_cell_length_b       8.85047
_cell_length_c       9.12004
_cell_angle_alpha    113.278
_cell_angle_beta     108.401
_cell_angle_gamma    100.369

_space_group_name_H-M_alt    "P 1"
_space_group_IT_number       1

loop_
  _space_group_symop_operation_xyz
  'x, y, z'

loop_
  _atom_site_type_symbol
  _atom_site_label
  _atom_site_symmetry_multiplicity
  _atom_site_fract_x
  _atom_site_fract_y
  _atom_site_fract_z
  _atom_site_occupancy
  Co  Co1       1.0  0.10416  0.25102  0.76197  1.0000
  Co  Co2       1.0  0.89631  0.74979  0.23851  1.0000
  Co  Co3       1.0  0.00014  0.00002  0.00034  1.0000
  H   H1        1.0  0.33099  0.62257  0.50889  1.0000
  H   H2        1.0  0.66837  0.37763  0.49078  1.0000
  H   H3        1.0  0.46944  0.26474  0.94817  1.0000
  H   H4        1.0  0.53063  0.73519  0.05173  1.0000
  H   H5        1.0  0.52477  0.38657  0.86446  1.0000
  H   H6        1.0  0.47531  0.61318  0.13515  1.0000
  H   H7        1.0  0.75183  0.30145  0.73943  1.0000
  H   H8        1.0  0.24794  0.69812  0.26004  1.0000
  H   H9        1.0  0.75554  0.14150  0.77784  1.0000
  H   H10       1.0  0.24502  0.85858  0.22235  1.0000
  H   H11       1.0  0.31807  0.88140  0.99515  1.0000
  H   H12       1.0  0.68198  0.11872  0.00514  1.0000
  H   H13       1.0  0.41425  0.08101  0.14612  1.0000
  H   H14       1.0  0.58586  0.91909  0.85428  1.0000
  C   C1        1.0  0.24979  0.58356  0.77749  1.0000
  C   C2        1.0  0.75012  0.41655  0.22239  1.0000
  C   C3        1.0  0.20338  0.44884  0.59417  1.0000
  C   C4        1.0  0.79662  0.55139  0.40581  1.0000
  C   C5        1.0  0.25089  0.48916  0.47479  1.0000
  C   C6        1.0  0.74881  0.51100  0.52502  1.0000
  C   C7        1.0  0.18568  0.34843  0.30715  1.0000
  C   C8        1.0  0.81433  0.65160  0.69281  1.0000
  C   C9        1.0  0.22179  0.37402  0.16446  1.0000
  C   C10       1.0  0.77784  0.62557  0.83523  1.0000
  C   C11       1.0  0.02974  0.15070  0.38079  1.0000
  C   C12       1.0  0.97056  0.84949  0.61949  1.0000
  N   N1        1.0  0.10214  0.28421  0.55152  1.0000
  N   N2        1.0  0.89819  0.71589  0.44866  1.0000
  N   N3        1.0  0.08054  0.18292  0.25979  1.0000
  N   N4        1.0  0.91975  0.81708  0.74050  1.0000
  O   O1        1.0  0.16945  0.52947  0.86060  1.0000
  O   O2        1.0  0.83041  0.47051  0.13925  1.0000
  O   O3        1.0  0.36420  0.74273  0.84040  1.0000
  O   O4        1.0  0.63571  0.25742  0.15971  1.0000
  O   O5        1.0  0.32836  0.52455  0.20395  1.0000
  O   O6        1.0  0.67083  0.47488  0.79502  1.0000
  O   O7        1.0  0.14048  0.23694  0.01082  1.0000
  O   O8        1.0  0.85903  0.76216  0.98892  1.0000
  O   O9        1.0  0.91238  0.00264  0.33687  1.0000
  O   O10       1.0  0.08789  0.99751  0.66339  1.0000
  O   O11       1.0  0.41115  0.30098  0.86068  1.0000
  O   O12       1.0  0.58889  0.69936  0.13958  1.0000
  O   O13       1.0  0.80109  0.20027  0.71670  1.0000
  O   O14       1.0  0.19914  0.79958  0.28320  1.0000
  O   O15       1.0  0.29637  0.97185  0.09261  1.0000
  O   O16       1.0  0.70385  0.02820  0.90786  1.0000
