data_image0
_chemical_formula_structural       Zn2H32C32N12O10
_chemical_formula_sum              "Zn2 H32 C32 N12 O10"
_cell_length_a       9.67716
_cell_length_b       10.2877
_cell_length_c       11.017
_cell_angle_alpha    82.4346
_cell_angle_beta     74.0608
_cell_angle_gamma    62.5775

_space_group_name_H-M_alt    "P 1"
_space_group_IT_number       1

loop_
  _space_group_symop_operation_xyz
  'x, y, z'

loop_
  _atom_site_type_symbol
  _atom_site_label
  _atom_site_symmetry_multiplicity
  _atom_site_fract_x
  _atom_site_fract_y
  _atom_site_fract_z
  _atom_site_occupancy
  Zn  Zn1       1.0  0.28045  0.34777  0.34631  1.0000
  Zn  Zn2       1.0  0.71955  0.65223  0.65369  1.0000
  H   H1        1.0  0.91132  0.79874  0.33736  1.0000
  H   H2        1.0  0.08868  0.20126  0.66264  1.0000
  H   H3        1.0  0.89664  0.22113  0.35581  1.0000
  H   H4        1.0  0.10335  0.77887  0.64419  1.0000
  H   H5        1.0  0.34015  0.82791  0.34026  1.0000
  H   H6        1.0  0.65984  0.17210  0.65974  1.0000
  H   H7        1.0  0.09798  0.55809  0.58321  1.0000
  H   H8        1.0  0.90202  0.44191  0.41679  1.0000
  H   H9        1.0  0.45428  0.11937  0.57578  1.0000
  H   H10       1.0  0.54572  0.88064  0.42422  1.0000
  H   H11       1.0  0.22700  0.51779  0.86374  1.0000
  H   H12       1.0  0.77300  0.48222  0.13627  1.0000
  H   H13       1.0  0.05148  0.61388  0.80344  1.0000
  H   H14       1.0  0.94853  0.38612  0.19657  1.0000
  H   H15       1.0  0.12195  0.33881  0.97109  1.0000
  H   H16       1.0  0.87805  0.66119  0.02891  1.0000
  H   H17       1.0  0.94859  0.43547  0.91086  1.0000
  H   H18       1.0  0.05141  0.56453  0.08914  1.0000
  H   H19       1.0  0.50123  0.47310  0.13690  1.0000
  H   H20       1.0  0.49878  0.52690  0.86310  1.0000
  H   H21       1.0  0.54566  0.04477  0.19090  1.0000
  H   H22       1.0  0.45434  0.95523  0.80910  1.0000
  H   H23       1.0  0.81272  0.06253  0.87366  1.0000
  H   H24       1.0  0.18728  0.93747  0.12634  1.0000
  H   H25       1.0  0.75357  0.93932  0.97653  1.0000
  H   H26       1.0  0.24643  0.06067  0.02347  1.0000
  H   H27       1.0  0.94654  0.90476  0.10334  1.0000
  H   H28       1.0  0.05346  0.09523  0.89666  1.0000
  H   H29       1.0  0.04014  0.85369  0.94434  1.0000
  H   H30       1.0  0.95986  0.14630  0.05566  1.0000
  H   H31       1.0  0.67728  0.18378  0.36831  1.0000
  H   H32       1.0  0.32272  0.81622  0.63169  1.0000
  C   C1        1.0  0.22825  0.63327  0.33236  1.0000
  C   C2        1.0  0.77176  0.36673  0.66764  1.0000
  C   C3        1.0  0.13505  0.79736  0.33718  1.0000
  C   C4        1.0  0.86495  0.20264  0.66282  1.0000
  C   C5        1.0  0.97151  0.86504  0.33944  1.0000
  C   C6        1.0  0.02849  0.13496  0.66055  1.0000
  C   C7        1.0  0.88558  0.01746  0.34748  1.0000
  C   C8        1.0  0.11441  0.98255  0.65252  1.0000
  C   C9        1.0  0.96350  0.10217  0.34952  1.0000
  C   C10       1.0  0.03649  0.89783  0.65048  1.0000
  C   C11       1.0  0.12697  0.03437  0.34733  1.0000
  C   C12       1.0  0.87302  0.96563  0.65267  1.0000
  C   C13       1.0  0.21282  0.88158  0.34233  1.0000
  C   C14       1.0  0.78718  0.11842  0.65767  1.0000
  C   C15       1.0  0.21021  0.12540  0.34932  1.0000
  C   C16       1.0  0.78979  0.87460  0.65068  1.0000
  C   C17       1.0  0.18587  0.45173  0.60706  1.0000
  C   C18       1.0  0.81413  0.54827  0.39294  1.0000
  C   C19       1.0  0.36397  0.22866  0.60713  1.0000
  C   C20       1.0  0.63604  0.77135  0.39287  1.0000
  C   C21       1.0  0.13296  0.50650  0.83478  1.0000
  C   C22       1.0  0.86705  0.49350  0.16522  1.0000
  C   C23       1.0  0.03954  0.44823  0.94350  1.0000
  C   C24       1.0  0.96047  0.55177  0.05649  1.0000
  C   C25       1.0  0.54396  0.35732  0.12225  1.0000
  C   C26       1.0  0.45604  0.64268  0.87775  1.0000
  C   C27       1.0  0.56246  0.14048  0.15218  1.0000
  C   C28       1.0  0.43754  0.85951  0.84783  1.0000
  C   C29       1.0  0.80038  0.01966  0.97038  1.0000
  C   C30       1.0  0.19963  0.98033  0.02962  1.0000
  C   C31       1.0  0.96105  0.94870  0.00658  1.0000
  C   C32       1.0  0.03895  0.05130  0.99342  1.0000
  N   N1        1.0  0.28279  0.33684  0.53061  1.0000
  N   N2        1.0  0.71721  0.66316  0.46939  1.0000
  N   N3        1.0  0.32237  0.27160  0.72573  1.0000
  N   N4        1.0  0.67763  0.72840  0.27427  1.0000
  N   N5        1.0  0.20922  0.41357  0.72335  1.0000
  N   N6        1.0  0.79079  0.58643  0.27665  1.0000
  N   N7        1.0  0.47595  0.27594  0.19991  1.0000
  N   N8        1.0  0.52405  0.72405  0.80010  1.0000
  N   N9        1.0  0.66648  0.27978  0.02996  1.0000
  N   N10       1.0  0.33352  0.72022  0.97004  1.0000
  N   N11       1.0  0.67592  0.14214  0.05072  1.0000
  N   N12       1.0  0.32408  0.85785  0.94929  1.0000
  O   O1        1.0  0.72505  0.07907  0.35244  1.0000
  O   O2        1.0  0.27495  0.92093  0.64755  1.0000
  O   O3        1.0  0.14886  0.56235  0.32445  1.0000
  O   O4        1.0  0.85114  0.43765  0.67554  1.0000
  O   O5        1.0  0.37193  0.57322  0.33835  1.0000
  O   O6        1.0  0.62807  0.42678  0.66164  1.0000
  O   O7        1.0  0.13335  0.26521  0.32851  1.0000
  O   O8        1.0  0.86665  0.73480  0.67148  1.0000
  O   O9        1.0  0.34806  0.06770  0.36882  1.0000
  O   O10       1.0  0.65194  0.93230  0.63118  1.0000
