data_image0
_chemical_formula_structural       Sr2H12C8N16O18
_chemical_formula_sum              "Sr2 H12 C8 N16 O18"
_cell_length_a       6.61041
_cell_length_b       7.00495
_cell_length_c       14.8075
_cell_angle_alpha    78.891
_cell_angle_beta     77.1329
_cell_angle_gamma    61.8386

_space_group_name_H-M_alt    "P 1"
_space_group_IT_number       1

loop_
  _space_group_symop_operation_xyz
  'x, y, z'

loop_
  _atom_site_type_symbol
  _atom_site_label
  _atom_site_symmetry_multiplicity
  _atom_site_fract_x
  _atom_site_fract_y
  _atom_site_fract_z
  _atom_site_occupancy
  Sr  Sr1       1.0  0.56483  0.75008  0.24995  1.0000
  Sr  Sr2       1.0  0.43517  0.24992  0.75005  1.0000
  H   H1        1.0  0.12628  0.84776  0.39942  1.0000
  H   H2        1.0  0.37300  0.65232  0.10055  1.0000
  H   H3        1.0  0.87372  0.15224  0.60058  1.0000
  H   H4        1.0  0.62700  0.34768  0.89945  1.0000
  H   H5        1.0  0.97250  0.82653  0.28844  1.0000
  H   H6        1.0  0.08726  0.67369  0.21156  1.0000
  H   H7        1.0  0.02749  0.17347  0.71156  1.0000
  H   H8        1.0  0.91273  0.32632  0.78844  1.0000
  H   H9        1.0  0.02514  0.07689  0.33938  1.0000
  H   H10       1.0  0.44109  0.42320  0.16060  1.0000
  H   H11       1.0  0.97486  0.92311  0.66062  1.0000
  H   H12       1.0  0.55891  0.57680  0.83940  1.0000
  C   C1        1.0  0.84263  0.82175  0.98146  1.0000
  C   C2        1.0  0.64582  0.67825  0.51857  1.0000
  C   C3        1.0  0.15737  0.17824  0.01854  1.0000
  C   C4        1.0  0.35418  0.32175  0.48143  1.0000
  C   C5        1.0  0.98147  0.59439  0.96666  1.0000
  C   C6        1.0  0.54254  0.90561  0.53336  1.0000
  C   C7        1.0  0.01853  0.40561  0.03334  1.0000
  C   C8        1.0  0.45747  0.09439  0.46664  1.0000
  N   N1        1.0  0.08012  0.57993  0.87884  1.0000
  N   N2        1.0  0.53904  0.92010  0.62118  1.0000
  N   N3        1.0  0.91988  0.42006  0.12117  1.0000
  N   N4        1.0  0.46097  0.07990  0.37882  1.0000
  N   N5        1.0  0.86096  0.94028  0.90136  1.0000
  N   N6        1.0  0.70277  0.55974  0.59868  1.0000
  N   N7        1.0  0.13904  0.05972  0.09864  1.0000
  N   N8        1.0  0.29722  0.44027  0.40132  1.0000
  N   N9        1.0  0.71226  0.88714  0.06569  1.0000
  N   N10       1.0  0.66498  0.61291  0.43432  1.0000
  N   N11       1.0  0.28774  0.11285  0.93431  1.0000
  N   N12       1.0  0.33502  0.38709  0.56568  1.0000
  N   N13       1.0  0.62618  0.09410  0.07848  1.0000
  N   N14       1.0  0.79866  0.40598  0.42150  1.0000
  N   N15       1.0  0.37382  0.90589  0.92152  1.0000
  N   N16       1.0  0.20134  0.59402  0.57850  1.0000
  O   O1        1.0  0.00842  0.79060  0.83835  1.0000
  O   O2        1.0  0.63762  0.70945  0.66168  1.0000
  O   O3        1.0  0.99158  0.20940  0.16165  1.0000
  O   O4        1.0  0.36238  0.29055  0.33832  1.0000
  O   O5        1.0  0.65584  0.23832  0.02010  1.0000
  O   O6        1.0  0.91431  0.26172  0.47987  1.0000
  O   O7        1.0  0.34416  0.76168  0.97990  1.0000
  O   O8        1.0  0.08569  0.73828  0.52013  1.0000
  O   O9        1.0  0.50564  0.14373  0.15890  1.0000
  O   O10       1.0  0.80802  0.35647  0.34104  1.0000
  O   O11       1.0  0.49436  0.85627  0.84110  1.0000
  O   O12       1.0  0.19198  0.64353  0.65896  1.0000
  O   O13       1.0  0.93464  0.75020  0.24998  1.0000
  O   O14       1.0  0.06536  0.24981  0.75002  1.0000
  O   O15       1.0  0.12963  0.91938  0.33534  1.0000
  O   O16       1.0  0.38384  0.58074  0.16465  1.0000
  O   O17       1.0  0.87037  0.08062  0.66466  1.0000
  O   O18       1.0  0.61616  0.41926  0.83535  1.0000
