data_image0
_chemical_formula_structural       Ca2H12C8N16O18
_chemical_formula_sum              "Ca2 H12 C8 N16 O18"
_cell_length_a       6.4193
_cell_length_b       8.1073
_cell_length_c       11.1181
_cell_angle_alpha    102.855
_cell_angle_beta     89.9999
_cell_angle_gamma    90.0001

_space_group_name_H-M_alt    "P 1"
_space_group_IT_number       1

loop_
  _space_group_symop_operation_xyz
  'x, y, z'

loop_
  _atom_site_type_symbol
  _atom_site_label
  _atom_site_symmetry_multiplicity
  _atom_site_fract_x
  _atom_site_fract_y
  _atom_site_fract_z
  _atom_site_occupancy
  Ca  Ca1       1.0  0.13789  0.75000  0.75000  1.0000
  Ca  Ca2       1.0  0.86212  0.25000  0.25000  1.0000
  H   H1        1.0  0.59035  0.65344  0.72752  1.0000
  H   H2        1.0  0.59035  0.84655  0.77248  1.0000
  H   H3        1.0  0.40965  0.34655  0.27248  1.0000
  H   H4        1.0  0.40965  0.15344  0.22752  1.0000
  H   H5        1.0  0.82644  0.01626  0.72641  1.0000
  H   H6        1.0  0.82644  0.48374  0.77359  1.0000
  H   H7        1.0  0.17356  0.98374  0.27359  1.0000
  H   H8        1.0  0.17356  0.51626  0.22641  1.0000
  H   H9        1.0  0.84684  0.03790  0.87147  1.0000
  H   H10       1.0  0.84684  0.46210  0.62853  1.0000
  H   H11       1.0  0.15316  0.96210  0.12853  1.0000
  H   H12       1.0  0.15316  0.53790  0.37147  1.0000
  C   C1        1.0  0.26272  0.10667  0.58102  1.0000
  C   C2        1.0  0.26273  0.39334  0.91898  1.0000
  C   C3        1.0  0.73727  0.89333  0.41898  1.0000
  C   C4        1.0  0.73727  0.60667  0.08102  1.0000
  C   C5        1.0  0.28389  0.24897  0.68488  1.0000
  C   C6        1.0  0.28389  0.25103  0.81512  1.0000
  C   C7        1.0  0.71611  0.75103  0.31512  1.0000
  C   C8        1.0  0.71611  0.74896  0.18487  1.0000
  N   N1        1.0  0.31720  0.38689  0.64378  1.0000
  N   N2        1.0  0.31719  0.11311  0.85623  1.0000
  N   N3        1.0  0.68280  0.61311  0.35622  1.0000
  N   N4        1.0  0.68281  0.88689  0.14377  1.0000
  N   N5        1.0  0.28668  0.16247  0.47824  1.0000
  N   N6        1.0  0.28668  0.33753  0.02176  1.0000
  N   N7        1.0  0.71332  0.83753  0.52176  1.0000
  N   N8        1.0  0.71332  0.66247  0.97824  1.0000
  N   N9        1.0  0.21582  0.94734  0.59545  1.0000
  N   N10       1.0  0.21582  0.55266  0.90456  1.0000
  N   N11       1.0  0.78418  0.05266  0.40455  1.0000
  N   N12       1.0  0.78418  0.44734  0.09544  1.0000
  N   N13       1.0  0.20420  0.82404  0.49612  1.0000
  N   N14       1.0  0.20420  0.67597  0.00388  1.0000
  N   N15       1.0  0.79580  0.17596  0.50388  1.0000
  N   N16       1.0  0.79580  0.32403  0.99612  1.0000
  O   O1        1.0  0.32160  0.33537  0.51738  1.0000
  O   O2        1.0  0.32160  0.16463  0.98262  1.0000
  O   O3        1.0  0.67840  0.66463  0.48262  1.0000
  O   O4        1.0  0.67840  0.83537  0.01738  1.0000
  O   O5        1.0  0.23732  0.83686  0.38741  1.0000
  O   O6        1.0  0.23733  0.66314  0.11259  1.0000
  O   O7        1.0  0.76267  0.16314  0.61259  1.0000
  O   O8        1.0  0.76267  0.33686  0.88741  1.0000
  O   O9        1.0  0.15390  0.67944  0.51840  1.0000
  O   O10       1.0  0.15390  0.82057  0.98160  1.0000
  O   O11       1.0  0.84610  0.32056  0.48160  1.0000
  O   O12       1.0  0.84610  0.17944  0.01840  1.0000
  O   O13       1.0  0.49420  0.75000  0.75000  1.0000
  O   O14       1.0  0.50580  0.25000  0.25000  1.0000
  O   O15       1.0  0.85201  0.95383  0.79125  1.0000
  O   O16       1.0  0.85201  0.54617  0.70875  1.0000
  O   O17       1.0  0.14799  0.04617  0.20875  1.0000
  O   O18       1.0  0.14799  0.45383  0.29125  1.0000
