data_image0
_chemical_formula_structural       Ag4H44C68N12O16
_chemical_formula_sum              "Ag4 H44 C68 N12 O16"
_cell_length_a       4.81941
_cell_length_b       15.9879
_cell_length_c       19.077
_cell_angle_alpha    90
_cell_angle_beta     92.4301
_cell_angle_gamma    90

_space_group_name_H-M_alt    "P 1"
_space_group_IT_number       1

loop_
  _space_group_symop_operation_xyz
  'x, y, z'

loop_
  _atom_site_type_symbol
  _atom_site_label
  _atom_site_symmetry_multiplicity
  _atom_site_fract_x
  _atom_site_fract_y
  _atom_site_fract_z
  _atom_site_occupancy
  Ag  Ag1       1.0  0.69938  0.12474  0.01584  1.0000
  Ag  Ag2       1.0  0.80062  0.62474  0.48416  1.0000
  Ag  Ag3       1.0  0.30062  0.87526  0.98416  1.0000
  Ag  Ag4       1.0  0.19937  0.37526  0.51584  1.0000
  H   H1        1.0  0.65689  0.20307  0.86901  1.0000
  H   H2        1.0  0.84312  0.70307  0.63099  1.0000
  H   H3        1.0  0.34312  0.79693  0.13099  1.0000
  H   H4        1.0  0.15689  0.29693  0.36901  1.0000
  H   H5        1.0  0.84790  0.17917  0.75059  1.0000
  H   H6        1.0  0.65210  0.67917  0.74941  1.0000
  H   H7        1.0  0.15211  0.82083  0.24941  1.0000
  H   H8        1.0  0.34789  0.32084  0.25059  1.0000
  H   H9        1.0  0.21119  0.07004  0.73653  1.0000
  H   H10       1.0  0.28881  0.57004  0.76347  1.0000
  H   H11       1.0  0.78882  0.92996  0.26347  1.0000
  H   H12       1.0  0.71119  0.42996  0.23653  1.0000
  H   H13       1.0  0.16987  0.02005  0.95860  1.0000
  H   H14       1.0  0.33012  0.52005  0.54140  1.0000
  H   H15       1.0  0.83012  0.97995  0.04140  1.0000
  H   H16       1.0  0.66987  0.47996  0.45860  1.0000
  H   H17       1.0  0.18660  0.23152  0.05703  1.0000
  H   H18       1.0  0.31341  0.73152  0.44297  1.0000
  H   H19       1.0  0.81341  0.76848  0.94297  1.0000
  H   H20       1.0  0.68660  0.26848  0.55703  1.0000
  H   H21       1.0  0.84395  0.29909  0.13252  1.0000
  H   H22       1.0  0.65607  0.79908  0.36748  1.0000
  H   H23       1.0  0.15606  0.70091  0.86748  1.0000
  H   H24       1.0  0.34394  0.20091  0.63252  1.0000
  H   H25       1.0  0.76551  0.24673  0.25249  1.0000
  H   H26       1.0  0.73451  0.74673  0.24751  1.0000
  H   H27       1.0  0.23450  0.75327  0.74751  1.0000
  H   H28       1.0  0.26550  0.25327  0.75249  1.0000
  H   H29       1.0  0.03008  0.12494  0.30156  1.0000
  H   H30       1.0  0.46992  0.62494  0.19844  1.0000
  H   H31       1.0  0.96993  0.87506  0.69844  1.0000
  H   H32       1.0  0.53007  0.37506  0.80156  1.0000
  H   H33       1.0  0.80145  0.39978  0.06292  1.0000
  H   H34       1.0  0.69855  0.89979  0.43709  1.0000
  H   H35       1.0  0.19855  0.60021  0.93709  1.0000
  H   H36       1.0  0.30145  0.10021  0.56291  1.0000
  H   H37       1.0  0.54392  0.98695  0.73362  1.0000
  H   H38       1.0  0.95608  0.48695  0.76638  1.0000
  H   H39       1.0  0.45608  0.01304  0.26638  1.0000
  H   H40       1.0  0.04392  0.51304  0.23362  1.0000
  H   H41       1.0  0.17771  0.32586  0.90335  1.0000
  H   H42       1.0  0.32228  0.82586  0.59665  1.0000
  H   H43       1.0  0.82230  0.67414  0.09665  1.0000
  H   H44       1.0  0.67770  0.17414  0.40335  1.0000
  C   C1        1.0  0.81788  0.15659  0.86092  1.0000
  C   C2        1.0  0.68212  0.65659  0.63908  1.0000
  C   C3        1.0  0.18212  0.84342  0.13908  1.0000
  C   C4        1.0  0.31788  0.34342  0.36092  1.0000
  C   C5        1.0  0.92705  0.14298  0.79552  1.0000
  C   C6        1.0  0.57295  0.64298  0.70448  1.0000
  C   C7        1.0  0.07296  0.85702  0.20447  1.0000
  C   C8        1.0  0.42704  0.35702  0.29552  1.0000
  C   C9        1.0  0.12914  0.08195  0.78805  1.0000
  C   C10       1.0  0.37086  0.58195  0.71195  1.0000
  C   C11       1.0  0.87087  0.91805  0.21195  1.0000
  C   C12       1.0  0.62914  0.41805  0.28805  1.0000
  C   C13       1.0  0.22069  0.03513  0.84707  1.0000
  C   C14       1.0  0.27930  0.53514  0.65293  1.0000
  C   C15       1.0  0.77931  0.96487  0.15293  1.0000
  C   C16       1.0  0.72070  0.46487  0.34707  1.0000
  C   C17       1.0  0.10265  0.05386  0.91106  1.0000
  C   C18       1.0  0.39735  0.55386  0.58894  1.0000
  C   C19       1.0  0.89735  0.94614  0.08894  1.0000
  C   C20       1.0  0.60265  0.44614  0.41106  1.0000
  C   C21       1.0  0.42698  0.96874  0.84187  1.0000
  C   C22       1.0  0.07302  0.46875  0.65813  1.0000
  C   C23       1.0  0.57303  0.03125  0.15813  1.0000
  C   C24       1.0  0.92699  0.53126  0.34188  1.0000
  C   C25       1.0  0.29992  0.13879  0.13720  1.0000
  C   C26       1.0  0.20008  0.63879  0.36280  1.0000
  C   C27       1.0  0.70008  0.86121  0.86280  1.0000
  C   C28       1.0  0.79992  0.36121  0.63720  1.0000
  C   C29       1.0  0.15310  0.20792  0.10958  1.0000
  C   C30       1.0  0.34690  0.70793  0.39042  1.0000
  C   C31       1.0  0.84690  0.79208  0.89042  1.0000
  C   C32       1.0  0.65310  0.29208  0.60958  1.0000
  C   C33       1.0  0.96310  0.24584  0.15263  1.0000
  C   C34       1.0  0.53691  0.74584  0.34737  1.0000
  C   C35       1.0  0.03690  0.75416  0.84737  1.0000
  C   C36       1.0  0.46310  0.25417  0.65263  1.0000
  C   C37       1.0  0.91757  0.21592  0.22077  1.0000
  C   C38       1.0  0.58244  0.71592  0.27923  1.0000
  C   C39       1.0  0.08244  0.78408  0.77923  1.0000
  C   C40       1.0  0.41756  0.28408  0.72077  1.0000
  C   C41       1.0  0.06163  0.14756  0.24881  1.0000
  C   C42       1.0  0.43838  0.64756  0.25119  1.0000
  C   C43       1.0  0.93837  0.85244  0.75119  1.0000
  C   C44       1.0  0.56163  0.35244  0.74881  1.0000
  C   C45       1.0  0.25358  0.11004  0.20598  1.0000
  C   C46       1.0  0.24643  0.61004  0.29402  1.0000
  C   C47       1.0  0.74642  0.88996  0.79402  1.0000
  C   C48       1.0  0.75358  0.38996  0.70598  1.0000
  C   C49       1.0  0.51298  0.32017  0.96948  1.0000
  C   C50       1.0  0.98703  0.82017  0.53052  1.0000
  C   C51       1.0  0.48703  0.67983  0.03053  1.0000
  C   C52       1.0  0.01296  0.17983  0.46948  1.0000
  C   C53       1.0  0.49001  0.41368  0.98086  1.0000
  C   C54       1.0  0.00998  0.91368  0.51914  1.0000
  C   C55       1.0  0.50999  0.58632  0.01915  1.0000
  C   C56       1.0  0.99002  0.08632  0.48086  1.0000
  C   C57       1.0  0.31720  0.47219  0.94405  1.0000
  C   C58       1.0  0.18280  0.97219  0.55595  1.0000
  C   C59       1.0  0.68280  0.52780  0.05596  1.0000
  C   C60       1.0  0.81720  0.02781  0.44404  1.0000
  C   C61       1.0  0.11468  0.45584  0.88253  1.0000
  C   C62       1.0  0.38531  0.95584  0.61747  1.0000
  C   C63       1.0  0.88532  0.54416  0.11748  1.0000
  C   C64       1.0  0.61469  0.04417  0.38252  1.0000
  C   C65       1.0  0.66629  0.44412  0.03512  1.0000
  C   C66       1.0  0.83370  0.94412  0.46488  1.0000
  C   C67       1.0  0.33370  0.55588  0.96489  1.0000
  C   C68       1.0  0.16629  0.05588  0.53512  1.0000
  N   N1        1.0  0.90435  0.11200  0.91776  1.0000
  N   N2        1.0  0.59565  0.61200  0.58224  1.0000
  N   N3        1.0  0.09565  0.88801  0.08224  1.0000
  N   N4        1.0  0.40435  0.38801  0.41776  1.0000
  N   N5        1.0  0.50033  0.08837  0.10853  1.0000
  N   N6        1.0  0.99968  0.58837  0.39147  1.0000
  N   N7        1.0  0.49967  0.91163  0.89146  1.0000
  N   N8        1.0  0.00033  0.41163  0.60853  1.0000
  N   N9        1.0  0.57359  0.95741  0.78310  1.0000
  N   N10       1.0  0.92641  0.45741  0.71690  1.0000
  N   N11       1.0  0.42641  0.04259  0.21690  1.0000
  N   N12       1.0  0.07360  0.54259  0.28310  1.0000
  O   O1        1.0  0.70432  0.28120  0.00082  1.0000
  O   O2        1.0  0.79568  0.78120  0.49918  1.0000
  O   O3        1.0  0.29570  0.71880  0.99919  1.0000
  O   O4        1.0  0.20430  0.21880  0.50082  1.0000
  O   O5        1.0  0.32981  0.28115  0.92874  1.0000
  O   O6        1.0  0.17018  0.78115  0.57126  1.0000
  O   O7        1.0  0.67020  0.71885  0.07126  1.0000
  O   O8        1.0  0.82979  0.21885  0.42874  1.0000
  O   O9        1.0  0.03643  0.51807  0.84586  1.0000
  O   O10       1.0  0.46357  0.01807  0.65414  1.0000
  O   O11       1.0  0.96357  0.48193  0.15415  1.0000
  O   O12       1.0  0.53643  0.98193  0.34585  1.0000
  O   O13       1.0  0.02914  0.38119  0.86936  1.0000
  O   O14       1.0  0.47085  0.88119  0.63064  1.0000
  O   O15       1.0  0.97086  0.61881  0.13065  1.0000
  O   O16       1.0  0.52914  0.11881  0.36935  1.0000
