data_image0
_chemical_formula_structural       Li2H8C4N8O10
_chemical_formula_sum              "Li2 H8 C4 N8 O10"
_cell_length_a       3.51775
_cell_length_b       7.17183
_cell_length_c       12.3756
_cell_angle_alpha    98.9639
_cell_angle_beta     96.5516
_cell_angle_gamma    90.297

_space_group_name_H-M_alt    "P 1"
_space_group_IT_number       1

loop_
  _space_group_symop_operation_xyz
  'x, y, z'

loop_
  _atom_site_type_symbol
  _atom_site_label
  _atom_site_symmetry_multiplicity
  _atom_site_fract_x
  _atom_site_fract_y
  _atom_site_fract_z
  _atom_site_occupancy
  Li  Li1       1.0  0.96152  0.92627  0.20658  1.0000
  Li  Li2       1.0  0.03848  0.07373  0.79342  1.0000
  H   H1        1.0  0.55903  0.76305  0.32159  1.0000
  H   H2        1.0  0.44097  0.23695  0.67841  1.0000
  H   H3        1.0  0.12018  0.83729  0.00025  1.0000
  H   H4        1.0  0.87983  0.16271  0.99975  1.0000
  H   H5        1.0  0.45116  0.67924  0.19848  1.0000
  H   H6        1.0  0.54884  0.32076  0.80152  1.0000
  H   H7        1.0  0.78249  0.70630  0.01056  1.0000
  H   H8        1.0  0.21751  0.29371  0.98944  1.0000
  C   C1        1.0  0.03436  0.40561  0.47304  1.0000
  C   C2        1.0  0.96563  0.59439  0.52696  1.0000
  C   C3        1.0  0.92160  0.32247  0.35919  1.0000
  C   C4        1.0  0.07839  0.67753  0.64081  1.0000
  N   N1        1.0  0.04330  0.14617  0.34517  1.0000
  N   N2        1.0  0.95669  0.85383  0.65483  1.0000
  N   N3        1.0  0.72416  0.42278  0.28789  1.0000
  N   N4        1.0  0.27583  0.57722  0.71211  1.0000
  N   N5        1.0  0.22094  0.27930  0.52410  1.0000
  N   N6        1.0  0.77906  0.72070  0.47590  1.0000
  N   N7        1.0  0.64469  0.34211  0.18420  1.0000
  N   N8        1.0  0.35531  0.65789  0.81580  1.0000
  O   O1        1.0  0.22960  0.12007  0.44703  1.0000
  O   O2        1.0  0.77039  0.87992  0.55297  1.0000
  O   O3        1.0  0.48384  0.80146  0.24927  1.0000
  O   O4        1.0  0.51616  0.19854  0.75073  1.0000
  O   O5        1.0  0.46632  0.44347  0.12022  1.0000
  O   O6        1.0  0.53369  0.55653  0.87978  1.0000
  O   O7        1.0  0.96387  0.80085  0.05472  1.0000
  O   O8        1.0  0.03614  0.19915  0.94528  1.0000
  O   O9        1.0  0.73493  0.17515  0.14714  1.0000
  O   O10       1.0  0.26508  0.82485  0.85286  1.0000
