data_image0
_chemical_formula_structural       Cd4H16C24N40
_chemical_formula_sum              "Cd4 H16 C24 N40"
_cell_length_a       8.4808
_cell_length_b       10.2201
_cell_length_c       12.5348
_cell_angle_alpha    100.085
_cell_angle_beta     90.0001
_cell_angle_gamma    90

_space_group_name_H-M_alt    "P 1"
_space_group_IT_number       1

loop_
  _space_group_symop_operation_xyz
  'x, y, z'

loop_
  _atom_site_type_symbol
  _atom_site_label
  _atom_site_symmetry_multiplicity
  _atom_site_fract_x
  _atom_site_fract_y
  _atom_site_fract_z
  _atom_site_occupancy
  Cd  Cd1       1.0  0.93199  0.49801  0.79553  1.0000
  Cd  Cd2       1.0  0.43199  0.00199  0.70447  1.0000
  Cd  Cd3       1.0  0.06801  0.50200  0.20447  1.0000
  Cd  Cd4       1.0  0.56801  0.99801  0.29553  1.0000
  H   H1        1.0  0.77784  0.50527  0.55150  1.0000
  H   H2        1.0  0.27784  0.99473  0.94850  1.0000
  H   H3        1.0  0.22216  0.49473  0.44850  1.0000
  H   H4        1.0  0.72216  0.00527  0.05150  1.0000
  H   H5        1.0  0.92901  0.40632  0.56330  1.0000
  H   H6        1.0  0.42901  0.09368  0.93670  1.0000
  H   H7        1.0  0.07099  0.59368  0.43670  1.0000
  H   H8        1.0  0.57099  0.90632  0.06330  1.0000
  H   H9        1.0  0.70872  0.40621  0.00198  1.0000
  H   H10       1.0  0.20871  0.09379  0.49802  1.0000
  H   H11       1.0  0.29129  0.59379  0.99802  1.0000
  H   H12       1.0  0.79128  0.90621  0.50198  1.0000
  H   H13       1.0  0.80622  0.22699  0.11284  1.0000
  H   H14       1.0  0.30622  0.27301  0.38716  1.0000
  H   H15       1.0  0.19378  0.77301  0.88715  1.0000
  H   H16       1.0  0.69377  0.72699  0.61284  1.0000
  C   C1        1.0  0.67248  0.34782  0.92497  1.0000
  C   C2        1.0  0.17248  0.15218  0.57503  1.0000
  C   C3        1.0  0.32752  0.65218  0.07503  1.0000
  C   C4        1.0  0.82751  0.84782  0.42497  1.0000
  C   C5        1.0  0.64829  0.27767  0.75637  1.0000
  C   C6        1.0  0.14829  0.22233  0.74363  1.0000
  C   C7        1.0  0.35171  0.72233  0.24363  1.0000
  C   C8        1.0  0.85171  0.77767  0.25637  1.0000
  C   C9        1.0  0.65542  0.25041  0.63931  1.0000
  C   C10       1.0  0.15542  0.24959  0.86069  1.0000
  C   C11       1.0  0.34458  0.74959  0.36069  1.0000
  C   C12       1.0  0.84458  0.75041  0.13931  1.0000
  C   C13       1.0  0.69528  0.25253  0.46677  1.0000
  C   C14       1.0  0.19528  0.24748  0.03322  1.0000
  C   C15       1.0  0.30471  0.74747  0.53323  1.0000
  C   C16       1.0  0.80472  0.75253  0.96677  1.0000
  C   C17       1.0  0.75060  0.28511  0.36619  1.0000
  C   C18       1.0  0.25060  0.21489  0.13381  1.0000
  C   C19       1.0  0.24940  0.71489  0.63380  1.0000
  C   C20       1.0  0.74940  0.78511  0.86619  1.0000
  C   C21       1.0  0.79873  0.26302  0.19956  1.0000
  C   C22       1.0  0.29872  0.23698  0.30044  1.0000
  C   C23       1.0  0.20127  0.73698  0.80044  1.0000
  C   C24       1.0  0.70127  0.76302  0.69956  1.0000
  N   N1        1.0  0.72180  0.37342  0.82772  1.0000
  N   N2        1.0  0.22181  0.12658  0.67228  1.0000
  N   N3        1.0  0.27820  0.62657  0.17228  1.0000
  N   N4        1.0  0.77819  0.87342  0.32772  1.0000
  N   N5        1.0  0.57510  0.24338  0.91553  1.0000
  N   N6        1.0  0.07510  0.25662  0.58447  1.0000
  N   N7        1.0  0.42490  0.75662  0.08447  1.0000
  N   N8        1.0  0.92490  0.74338  0.41553  1.0000
  N   N9        1.0  0.55944  0.19892  0.80710  1.0000
  N   N10       1.0  0.05945  0.30108  0.69290  1.0000
  N   N11       1.0  0.44056  0.80108  0.19290  1.0000
  N   N12       1.0  0.94055  0.69892  0.30710  1.0000
  N   N13       1.0  0.81899  0.43604  0.59453  1.0000
  N   N14       1.0  0.31899  0.06396  0.90547  1.0000
  N   N15       1.0  0.18101  0.56396  0.40547  1.0000
  N   N16       1.0  0.68101  0.93604  0.09453  1.0000
  N   N17       1.0  0.72360  0.32271  0.56869  1.0000
  N   N18       1.0  0.22359  0.17729  0.93131  1.0000
  N   N19       1.0  0.27641  0.67728  0.43130  1.0000
  N   N20       1.0  0.77641  0.82272  0.06869  1.0000
  N   N21       1.0  0.58731  0.14288  0.58232  1.0000
  N   N22       1.0  0.08731  0.35711  0.91768  1.0000
  N   N23       1.0  0.41269  0.85711  0.41768  1.0000
  N   N24       1.0  0.91269  0.64289  0.08232  1.0000
  N   N25       1.0  0.61118  0.14501  0.47466  1.0000
  N   N26       1.0  0.11117  0.35499  0.02534  1.0000
  N   N27       1.0  0.38883  0.85499  0.52534  1.0000
  N   N28       1.0  0.88883  0.64501  0.97466  1.0000
  N   N29       1.0  0.72642  0.19975  0.27120  1.0000
  N   N30       1.0  0.22641  0.30025  0.22880  1.0000
  N   N31       1.0  0.27359  0.80025  0.72880  1.0000
  N   N32       1.0  0.77358  0.69975  0.77120  1.0000
  N   N33       1.0  0.83171  0.39479  0.35550  1.0000
  N   N34       1.0  0.33171  0.10521  0.14450  1.0000
  N   N35       1.0  0.16829  0.60521  0.64450  1.0000
  N   N36       1.0  0.66829  0.89479  0.85550  1.0000
  N   N37       1.0  0.86190  0.37961  0.24724  1.0000
  N   N38       1.0  0.36190  0.12040  0.25276  1.0000
  N   N39       1.0  0.13810  0.62040  0.75276  1.0000
  N   N40       1.0  0.63810  0.87961  0.74724  1.0000
