data_image0
_chemical_formula_structural       Ni8H48C32O56
_chemical_formula_sum              "Ni8 H48 C32 O56"
_cell_length_a       7.88485
_cell_length_b       10.6565
_cell_length_c       17.943
_cell_angle_alpha    90
_cell_angle_beta     90
_cell_angle_gamma    90

_space_group_name_H-M_alt    "P 1"
_space_group_IT_number       1

loop_
  _space_group_symop_operation_xyz
  'x, y, z'

loop_
  _atom_site_type_symbol
  _atom_site_label
  _atom_site_symmetry_multiplicity
  _atom_site_fract_x
  _atom_site_fract_y
  _atom_site_fract_z
  _atom_site_occupancy
  Ni  Ni1       1.0  0.15556  0.22613  0.34307  1.0000
  Ni  Ni2       1.0  0.65551  0.27398  0.65692  1.0000
  Ni  Ni3       1.0  0.84447  0.72605  0.15690  1.0000
  Ni  Ni4       1.0  0.34448  0.77392  0.84308  1.0000
  Ni  Ni5       1.0  0.63328  0.27577  0.13251  1.0000
  Ni  Ni6       1.0  0.13311  0.22416  0.86753  1.0000
  Ni  Ni7       1.0  0.36678  0.77588  0.36752  1.0000
  Ni  Ni8       1.0  0.86685  0.72418  0.63247  1.0000
  H   H1        1.0  0.47067  0.36933  0.23441  1.0000
  H   H2        1.0  0.97056  0.13063  0.76557  1.0000
  H   H3        1.0  0.52936  0.86944  0.26555  1.0000
  H   H4        1.0  0.02946  0.63060  0.73443  1.0000
  H   H5        1.0  0.01247  0.60090  0.25023  1.0000
  H   H6        1.0  0.51252  0.89923  0.74980  1.0000
  H   H7        1.0  0.98754  0.10098  0.24980  1.0000
  H   H8        1.0  0.48751  0.39923  0.75019  1.0000
  H   H9        1.0  0.08204  0.86338  0.44093  1.0000
  H   H10       1.0  0.58208  0.63662  0.55908  1.0000
  H   H11       1.0  0.91797  0.36331  0.05903  1.0000
  H   H12       1.0  0.41795  0.13653  0.94087  1.0000
  H   H13       1.0  0.42677  0.20641  0.42471  1.0000
  H   H14       1.0  0.92676  0.29355  0.57528  1.0000
  H   H15       1.0  0.57323  0.70635  0.07529  1.0000
  H   H16       1.0  0.07326  0.79347  0.92473  1.0000
  H   H17       1.0  0.33818  0.38480  0.41499  1.0000
  H   H18       1.0  0.83807  0.11520  0.58503  1.0000
  H   H19       1.0  0.66188  0.88471  0.08495  1.0000
  H   H20       1.0  0.16184  0.61513  0.91490  1.0000
  H   H21       1.0  0.14845  0.44375  0.40685  1.0000
  H   H22       1.0  0.64835  0.05628  0.59319  1.0000
  H   H23       1.0  0.85163  0.94365  0.09310  1.0000
  H   H24       1.0  0.35158  0.55621  0.90680  1.0000
  H   H25       1.0  0.59768  0.07355  0.07800  1.0000
  H   H26       1.0  0.09736  0.42631  0.92217  1.0000
  H   H27       1.0  0.40244  0.57366  0.42206  1.0000
  H   H28       1.0  0.90242  0.92641  0.57792  1.0000
  H   H29       1.0  0.77956  0.11021  0.04713  1.0000
  H   H30       1.0  0.27932  0.38970  0.95299  1.0000
  H   H31       1.0  0.22053  0.61029  0.45291  1.0000
  H   H32       1.0  0.72049  0.88974  0.54709  1.0000
  H   H33       1.0  0.63594  0.39565  0.32613  1.0000
  H   H34       1.0  0.13594  0.10440  0.67386  1.0000
  H   H35       1.0  0.36397  0.89569  0.17385  1.0000
  H   H36       1.0  0.86406  0.60437  0.82614  1.0000
  H   H37       1.0  0.84885  0.54187  0.33596  1.0000
  H   H38       1.0  0.34894  0.95825  0.66405  1.0000
  H   H39       1.0  0.15105  0.04194  0.16405  1.0000
  H   H40       1.0  0.65105  0.45823  0.83595  1.0000
  H   H41       1.0  0.20592  0.92652  0.54099  1.0000
  H   H42       1.0  0.70597  0.57351  0.45902  1.0000
  H   H43       1.0  0.79392  0.42642  0.95900  1.0000
  H   H44       1.0  0.29410  0.07347  0.04096  1.0000
  H   H45       1.0  0.34869  0.13515  0.53093  1.0000
  H   H46       1.0  0.84878  0.36489  0.46907  1.0000
  H   H47       1.0  0.65124  0.63505  0.96907  1.0000
  H   H48       1.0  0.15127  0.86486  0.03095  1.0000
  C   C1        1.0  0.83518  0.31539  0.26211  1.0000
  C   C2        1.0  0.33502  0.18477  0.73792  1.0000
  C   C3        1.0  0.16491  0.81533  0.23789  1.0000
  C   C4        1.0  0.66502  0.68476  0.76208  1.0000
  C   C5        1.0  0.69813  0.41627  0.27245  1.0000
  C   C6        1.0  0.19811  0.08380  0.72756  1.0000
  C   C7        1.0  0.30178  0.91626  0.22754  1.0000
  C   C8        1.0  0.80187  0.58380  0.77245  1.0000
  C   C9        1.0  0.78361  0.54507  0.28167  1.0000
  C   C10       1.0  0.28368  0.95503  0.71833  1.0000
  C   C11       1.0  0.21630  0.04506  0.21833  1.0000
  C   C12       1.0  0.71632  0.45503  0.78167  1.0000
  C   C13       1.0  0.65490  0.65263  0.28610  1.0000
  C   C14       1.0  0.15498  0.84745  0.71387  1.0000
  C   C15       1.0  0.34515  0.15257  0.21389  1.0000
  C   C16       1.0  0.84505  0.34744  0.78613  1.0000
  C   C17       1.0  0.45610  0.91061  0.49538  1.0000
  C   C18       1.0  0.95615  0.58942  0.50463  1.0000
  C   C19       1.0  0.54380  0.41052  0.00468  1.0000
  C   C20       1.0  0.04390  0.08936  0.99537  1.0000
  C   C21       1.0  0.27194  0.95457  0.48965  1.0000
  C   C22       1.0  0.77200  0.54545  0.51036  1.0000
  C   C23       1.0  0.72796  0.45448  0.01035  1.0000
  C   C24       1.0  0.22804  0.04541  0.98963  1.0000
  C   C25       1.0  0.27263  0.09859  0.48433  1.0000
  C   C26       1.0  0.77270  0.40143  0.51566  1.0000
  C   C27       1.0  0.72733  0.59849  0.01566  1.0000
  C   C28       1.0  0.22734  0.90138  0.98435  1.0000
  C   C29       1.0  0.09379  0.15141  0.49371  1.0000
  C   C30       1.0  0.59386  0.34860  0.50626  1.0000
  C   C31       1.0  0.90619  0.65130  0.00625  1.0000
  C   C32       1.0  0.40616  0.84853  0.99374  1.0000
  O   O1        1.0  0.81881  0.23073  0.21214  1.0000
  O   O2        1.0  0.31857  0.26936  0.78792  1.0000
  O   O3        1.0  0.18132  0.73072  0.28790  1.0000
  O   O4        1.0  0.68146  0.76936  0.71208  1.0000
  O   O5        1.0  0.95490  0.32508  0.30816  1.0000
  O   O6        1.0  0.45470  0.17522  0.69185  1.0000
  O   O7        1.0  0.04526  0.82485  0.19181  1.0000
  O   O8        1.0  0.54534  0.67524  0.80817  1.0000
  O   O9        1.0  0.57382  0.41221  0.21407  1.0000
  O   O10       1.0  0.07373  0.08778  0.78593  1.0000
  O   O11       1.0  0.42620  0.91225  0.28592  1.0000
  O   O12       1.0  0.92630  0.58779  0.71407  1.0000
  O   O13       1.0  0.91010  0.56769  0.22502  1.0000
  O   O14       1.0  0.41012  0.93240  0.77500  1.0000
  O   O15       1.0  0.08990  0.06770  0.27499  1.0000
  O   O16       1.0  0.58991  0.43244  0.72500  1.0000
  O   O17       1.0  0.54089  0.64206  0.33522  1.0000
  O   O18       1.0  0.04100  0.85802  0.66475  1.0000
  O   O19       1.0  0.45926  0.14194  0.16484  1.0000
  O   O20       1.0  0.95903  0.35798  0.83524  1.0000
  O   O21       1.0  0.67228  0.74743  0.24342  1.0000
  O   O22       1.0  0.17236  0.75264  0.75655  1.0000
  O   O23       1.0  0.32773  0.24743  0.25655  1.0000
  O   O24       1.0  0.82764  0.25264  0.74345  1.0000
  O   O25       1.0  0.53026  0.93813  0.55619  1.0000
  O   O26       1.0  0.03030  0.56189  0.44382  1.0000
  O   O27       1.0  0.46956  0.43807  0.94389  1.0000
  O   O28       1.0  0.96978  0.06184  0.05619  1.0000
  O   O29       1.0  0.52617  0.85292  0.44215  1.0000
  O   O30       1.0  0.02621  0.64713  0.55785  1.0000
  O   O31       1.0  0.47383  0.35279  0.05791  1.0000
  O   O32       1.0  0.97379  0.14704  0.94214  1.0000
  O   O33       1.0  0.19060  0.89931  0.42559  1.0000
  O   O34       1.0  0.69065  0.60069  0.57442  1.0000
  O   O35       1.0  0.80941  0.39923  0.07440  1.0000
  O   O36       1.0  0.30933  0.10065  0.92555  1.0000
  O   O37       1.0  0.34740  0.13541  0.41457  1.0000
  O   O38       1.0  0.84743  0.36457  0.58542  1.0000
  O   O39       1.0  0.65260  0.63535  0.08542  1.0000
  O   O40       1.0  0.15256  0.86451  0.91459  1.0000
  O   O41       1.0  0.03400  0.15016  0.55980  1.0000
  O   O42       1.0  0.53411  0.34985  0.44017  1.0000
  O   O43       1.0  0.96593  0.65002  0.94016  1.0000
  O   O44       1.0  0.46591  0.84975  0.05983  1.0000
  O   O45       1.0  0.01544  0.19408  0.43765  1.0000
  O   O46       1.0  0.51548  0.30593  0.56231  1.0000
  O   O47       1.0  0.98458  0.69398  0.06229  1.0000
  O   O48       1.0  0.48454  0.80586  0.93769  1.0000
  O   O49       1.0  0.23945  0.39685  0.38105  1.0000
  O   O50       1.0  0.73935  0.10319  0.61899  1.0000
  O   O51       1.0  0.76062  0.89676  0.11889  1.0000
  O   O52       1.0  0.26063  0.60313  0.88098  1.0000
  O   O53       1.0  0.65664  0.13814  0.04907  1.0000
  O   O54       1.0  0.15642  0.36172  0.95105  1.0000
  O   O55       1.0  0.34344  0.63825  0.45097  1.0000
  O   O56       1.0  0.84341  0.86180  0.54903  1.0000
