data_image0
_chemical_formula_structural       Zn4H52C56N8O20
_chemical_formula_sum              "Zn4 H52 C56 N8 O20"
_cell_length_a       7.83301
_cell_length_b       12.0203
_cell_length_c       15.794
_cell_angle_alpha    90
_cell_angle_beta     98.1828
_cell_angle_gamma    90

_space_group_name_H-M_alt    "P 1"
_space_group_IT_number       1

loop_
  _space_group_symop_operation_xyz
  'x, y, z'

loop_
  _atom_site_type_symbol
  _atom_site_label
  _atom_site_symmetry_multiplicity
  _atom_site_fract_x
  _atom_site_fract_y
  _atom_site_fract_z
  _atom_site_occupancy
  Zn  Zn1       1.0  0.49836  0.81060  0.24839  1.0000
  Zn  Zn2       1.0  0.50165  0.31060  0.25161  1.0000
  Zn  Zn3       1.0  0.50164  0.18940  0.75161  1.0000
  Zn  Zn4       1.0  0.49836  0.68940  0.74839  1.0000
  H   H1        1.0  0.35050  0.63996  0.31650  1.0000
  H   H2        1.0  0.64950  0.13996  0.18350  1.0000
  H   H3        1.0  0.64950  0.36004  0.68350  1.0000
  H   H4        1.0  0.35050  0.86004  0.81650  1.0000
  H   H5        1.0  0.27232  0.75371  0.35088  1.0000
  H   H6        1.0  0.72768  0.25371  0.14913  1.0000
  H   H7        1.0  0.72768  0.24630  0.64912  1.0000
  H   H8        1.0  0.27232  0.74629  0.85088  1.0000
  H   H9        1.0  0.03391  0.59468  0.26280  1.0000
  H   H10       1.0  0.96608  0.09468  0.23720  1.0000
  H   H11       1.0  0.96608  0.40532  0.73721  1.0000
  H   H12       1.0  0.03392  0.90532  0.76279  1.0000
  H   H13       1.0  0.80752  0.75135  0.93833  1.0000
  H   H14       1.0  0.19248  0.25135  0.56167  1.0000
  H   H15       1.0  0.19249  0.24864  0.06167  1.0000
  H   H16       1.0  0.80751  0.74865  0.43833  1.0000
  H   H17       1.0  0.74413  0.82700  0.02675  1.0000
  H   H18       1.0  0.25587  0.32700  0.47325  1.0000
  H   H19       1.0  0.25587  0.17300  0.97325  1.0000
  H   H20       1.0  0.74413  0.67300  0.52675  1.0000
  H   H21       1.0  0.64489  0.69996  0.99661  1.0000
  H   H22       1.0  0.35511  0.19996  0.50339  1.0000
  H   H23       1.0  0.35511  0.30004  0.00340  1.0000
  H   H24       1.0  0.64489  0.80004  0.49661  1.0000
  H   H25       1.0  0.29622  0.59738  0.95669  1.0000
  H   H26       1.0  0.70378  0.09738  0.54331  1.0000
  H   H27       1.0  0.70378  0.40262  0.04331  1.0000
  H   H28       1.0  0.29622  0.90261  0.45669  1.0000
  H   H29       1.0  0.34738  0.47927  0.02472  1.0000
  H   H30       1.0  0.65262  0.97927  0.47528  1.0000
  H   H31       1.0  0.65262  0.52073  0.97528  1.0000
  H   H32       1.0  0.34739  0.02072  0.52472  1.0000
  H   H33       1.0  0.44258  0.60856  0.05469  1.0000
  H   H34       1.0  0.55742  0.10856  0.44531  1.0000
  H   H35       1.0  0.55742  0.39144  0.94532  1.0000
  H   H36       1.0  0.44258  0.89144  0.55469  1.0000
  H   H37       1.0  0.11568  0.88539  0.24026  1.0000
  H   H38       1.0  0.88433  0.38539  0.25974  1.0000
  H   H39       1.0  0.88432  0.11461  0.75974  1.0000
  H   H40       1.0  0.11568  0.61460  0.74027  1.0000
  H   H41       1.0  0.89668  0.96983  0.13337  1.0000
  H   H42       1.0  0.10333  0.46983  0.36663  1.0000
  H   H43       1.0  0.10332  0.03017  0.86663  1.0000
  H   H44       1.0  0.89668  0.53017  0.63337  1.0000
  H   H45       1.0  0.27129  0.95855  0.95538  1.0000
  H   H46       1.0  0.72871  0.45855  0.54462  1.0000
  H   H47       1.0  0.72871  0.04145  0.04462  1.0000
  H   H48       1.0  0.27129  0.54145  0.45538  1.0000
  H   H49       1.0  0.47441  0.87305  0.07130  1.0000
  H   H50       1.0  0.52559  0.37306  0.42870  1.0000
  H   H51       1.0  0.52560  0.12695  0.92870  1.0000
  H   H52       1.0  0.47441  0.62695  0.57130  1.0000
  C   C1        1.0  0.90624  0.68497  0.06104  1.0000
  C   C2        1.0  0.09376  0.18496  0.43896  1.0000
  C   C3        1.0  0.09376  0.31503  0.93897  1.0000
  C   C4        1.0  0.90624  0.81504  0.56103  1.0000
  C   C5        1.0  0.89955  0.66520  0.14893  1.0000
  C   C6        1.0  0.10045  0.16520  0.35107  1.0000
  C   C7        1.0  0.10044  0.33481  0.85107  1.0000
  C   C8        1.0  0.89955  0.83480  0.64893  1.0000
  C   C9        1.0  0.03792  0.60868  0.19506  1.0000
  C   C10       1.0  0.96208  0.10867  0.30494  1.0000
  C   C11       1.0  0.96209  0.39132  0.80494  1.0000
  C   C12       1.0  0.03792  0.89133  0.69506  1.0000
  C   C13       1.0  0.17629  0.57056  0.15687  1.0000
  C   C14       1.0  0.82371  0.07056  0.34313  1.0000
  C   C15       1.0  0.82371  0.42944  0.84313  1.0000
  C   C16       1.0  0.17629  0.92944  0.65687  1.0000
  C   C17       1.0  0.17615  0.59709  0.06958  1.0000
  C   C18       1.0  0.82385  0.09709  0.43043  1.0000
  C   C19       1.0  0.82385  0.40291  0.93043  1.0000
  C   C20       1.0  0.17615  0.90291  0.56957  1.0000
  C   C21       1.0  0.76866  0.74399  0.00201  1.0000
  C   C22       1.0  0.23134  0.24398  0.49799  1.0000
  C   C23       1.0  0.23135  0.25601  0.99799  1.0000
  C   C24       1.0  0.76866  0.75601  0.50201  1.0000
  C   C25       1.0  0.76277  0.70392  0.19988  1.0000
  C   C26       1.0  0.23722  0.20392  0.30011  1.0000
  C   C27       1.0  0.23723  0.29608  0.80012  1.0000
  C   C28       1.0  0.76278  0.79608  0.69989  1.0000
  C   C29       1.0  0.30969  0.50239  0.21099  1.0000
  C   C30       1.0  0.69030  0.00239  0.28901  1.0000
  C   C31       1.0  0.69031  0.49761  0.78902  1.0000
  C   C32       1.0  0.30970  0.99761  0.71099  1.0000
  C   C33       1.0  0.32371  0.56902  0.02309  1.0000
  C   C34       1.0  0.67629  0.06902  0.47692  1.0000
  C   C35       1.0  0.67630  0.43098  0.97692  1.0000
  C   C36       1.0  0.32371  0.93098  0.52308  1.0000
  C   C37       1.0  0.14564  0.90325  0.17627  1.0000
  C   C38       1.0  0.85437  0.40326  0.32373  1.0000
  C   C39       1.0  0.85436  0.09674  0.82373  1.0000
  C   C40       1.0  0.14564  0.59674  0.67628  1.0000
  C   C41       1.0  0.02282  0.95146  0.11532  1.0000
  C   C42       1.0  0.97718  0.45147  0.38468  1.0000
  C   C43       1.0  0.97717  0.04853  0.88468  1.0000
  C   C44       1.0  0.02283  0.54854  0.61532  1.0000
  C   C45       1.0  0.06332  0.97415  0.03333  1.0000
  C   C46       1.0  0.93668  0.47416  0.46667  1.0000
  C   C47       1.0  0.93668  0.02584  0.96666  1.0000
  C   C48       1.0  0.06333  0.52584  0.53334  1.0000
  C   C49       1.0  0.22942  0.94494  0.01742  1.0000
  C   C50       1.0  0.77057  0.44494  0.48258  1.0000
  C   C51       1.0  0.77058  0.05506  0.98258  1.0000
  C   C52       1.0  0.22943  0.55506  0.51742  1.0000
  C   C53       1.0  0.34505  0.89718  0.08165  1.0000
  C   C54       1.0  0.65496  0.39719  0.41834  1.0000
  C   C55       1.0  0.65496  0.10282  0.91835  1.0000
  C   C56       1.0  0.34504  0.60282  0.58166  1.0000
  N   N1        1.0  0.04482  0.65329  0.02492  1.0000
  N   N2        1.0  0.95518  0.15329  0.47508  1.0000
  N   N3        1.0  0.95518  0.34671  0.97509  1.0000
  N   N4        1.0  0.04482  0.84671  0.52491  1.0000
  N   N5        1.0  0.30454  0.87660  0.16036  1.0000
  N   N6        1.0  0.69546  0.37661  0.33964  1.0000
  N   N7        1.0  0.69545  0.12340  0.83964  1.0000
  N   N8        1.0  0.30455  0.62339  0.66036  1.0000
  O   O1        1.0  0.61660  0.73861  0.15875  1.0000
  O   O2        1.0  0.38341  0.23861  0.34125  1.0000
  O   O3        1.0  0.38340  0.26140  0.84125  1.0000
  O   O4        1.0  0.61659  0.76139  0.65874  1.0000
  O   O5        1.0  0.79312  0.70369  0.28004  1.0000
  O   O6        1.0  0.20688  0.20369  0.21996  1.0000
  O   O7        1.0  0.20688  0.29631  0.71996  1.0000
  O   O8        1.0  0.79312  0.79631  0.78004  1.0000
  O   O9        1.0  0.38687  0.42608  0.17439  1.0000
  O   O10       1.0  0.61312  0.92608  0.32561  1.0000
  O   O11       1.0  0.61313  0.57392  0.82561  1.0000
  O   O12       1.0  0.38687  0.07392  0.67439  1.0000
  O   O13       1.0  0.33510  0.51867  0.29173  1.0000
  O   O14       1.0  0.66489  0.01867  0.20828  1.0000
  O   O15       1.0  0.66491  0.48133  0.70828  1.0000
  O   O16       1.0  0.33510  0.98133  0.79172  1.0000
  O   O17       1.0  0.37563  0.72262  0.33237  1.0000
  O   O18       1.0  0.62437  0.22262  0.16763  1.0000
  O   O19       1.0  0.62437  0.27738  0.66763  1.0000
  O   O20       1.0  0.37563  0.77738  0.83237  1.0000
