data_image0
_chemical_formula_structural       Zn4H40C36N8O16
_chemical_formula_sum              "Zn4 H40 C36 N8 O16"
_cell_length_a       6.55188
_cell_length_b       8.0398
_cell_length_c       19.831
_cell_angle_alpha    98.8051
_cell_angle_beta     90
_cell_angle_gamma    90

_space_group_name_H-M_alt    "P 1"
_space_group_IT_number       1

loop_
  _space_group_symop_operation_xyz
  'x, y, z'

loop_
  _atom_site_type_symbol
  _atom_site_label
  _atom_site_symmetry_multiplicity
  _atom_site_fract_x
  _atom_site_fract_y
  _atom_site_fract_z
  _atom_site_occupancy
  Zn  Zn1       1.0  0.88362  1.00000  0.75000  1.0000
  Zn  Zn2       1.0  0.11638  1.00000  0.25000  1.0000
  Zn  Zn3       1.0  0.00000  1.00000  1.00000  1.0000
  Zn  Zn4       1.0  0.00000  0.00000  0.50000  1.0000
  H   H1        1.0  0.10423  0.61912  0.99181  1.0000
  H   H2        1.0  0.10423  0.38088  0.50819  1.0000
  H   H3        1.0  0.89577  0.38087  0.00819  1.0000
  H   H4        1.0  0.89578  0.61912  0.49181  1.0000
  H   H5        1.0  0.38389  0.42918  0.93376  1.0000
  H   H6        1.0  0.38388  0.57082  0.56624  1.0000
  H   H7        1.0  0.61612  0.57082  0.06624  1.0000
  H   H8        1.0  0.61612  0.42918  0.43376  1.0000
  H   H9        1.0  0.66560  0.56305  0.87677  1.0000
  H   H10       1.0  0.66560  0.43696  0.62323  1.0000
  H   H11       1.0  0.33440  0.43695  0.12323  1.0000
  H   H12       1.0  0.33440  0.56305  0.37677  1.0000
  H   H13       1.0  0.99657  0.56577  0.63957  1.0000
  H   H14       1.0  0.99657  0.43423  0.86043  1.0000
  H   H15       1.0  0.00343  0.43423  0.36043  1.0000
  H   H16       1.0  0.00343  0.56577  0.13957  1.0000
  H   H17       1.0  0.79715  0.71890  0.63649  1.0000
  H   H18       1.0  0.79715  0.28110  0.86350  1.0000
  H   H19       1.0  0.20285  0.28110  0.36350  1.0000
  H   H20       1.0  0.20285  0.71890  0.13650  1.0000
  H   H21       1.0  0.83108  0.62475  0.71149  1.0000
  H   H22       1.0  0.83108  0.37525  0.78851  1.0000
  H   H23       1.0  0.16892  0.37525  0.28851  1.0000
  H   H24       1.0  0.16892  0.62475  0.21149  1.0000
  H   H25       1.0  0.14777  0.71449  0.78593  1.0000
  H   H26       1.0  0.14777  0.28551  0.71407  1.0000
  H   H27       1.0  0.85223  0.28551  0.21407  1.0000
  H   H28       1.0  0.85223  0.71449  0.28593  1.0000
  H   H29       1.0  0.32962  0.84641  0.75256  1.0000
  H   H30       1.0  0.32962  0.15359  0.74744  1.0000
  H   H31       1.0  0.67038  0.15359  0.24744  1.0000
  H   H32       1.0  0.67038  0.84641  0.25256  1.0000
  H   H33       1.0  0.29182  0.63702  0.71081  1.0000
  H   H34       1.0  0.29182  0.36298  0.78919  1.0000
  H   H35       1.0  0.70818  0.36298  0.28919  1.0000
  H   H36       1.0  0.70818  0.63702  0.21081  1.0000
  H   H37       1.0  0.11477  0.85066  0.65599  1.0000
  H   H38       1.0  0.11477  0.14934  0.84401  1.0000
  H   H39       1.0  0.88523  0.14934  0.34401  1.0000
  H   H40       1.0  0.88523  0.85066  0.15599  1.0000
  C   C1        1.0  0.23099  0.66816  0.96512  1.0000
  C   C2        1.0  0.23099  0.33184  0.53488  1.0000
  C   C3        1.0  0.76901  0.33184  0.03488  1.0000
  C   C4        1.0  0.76901  0.66816  0.46512  1.0000
  C   C5        1.0  0.38548  0.56495  0.93375  1.0000
  C   C6        1.0  0.38547  0.43505  0.56625  1.0000
  C   C7        1.0  0.61453  0.43505  0.06625  1.0000
  C   C8        1.0  0.61453  0.56495  0.43375  1.0000
  C   C9        1.0  0.54205  0.63963  0.90162  1.0000
  C   C10       1.0  0.54205  0.36037  0.59838  1.0000
  C   C11       1.0  0.45795  0.36037  0.09838  1.0000
  C   C12       1.0  0.45795  0.63963  0.40162  1.0000
  C   C13       1.0  0.54112  0.81314  0.90044  1.0000
  C   C14       1.0  0.54112  0.18686  0.59956  1.0000
  C   C15       1.0  0.45888  0.18686  0.09956  1.0000
  C   C16       1.0  0.45888  0.81314  0.40044  1.0000
  C   C17       1.0  0.37794  0.90722  0.93178  1.0000
  C   C18       1.0  0.37794  0.09279  0.56822  1.0000
  C   C19       1.0  0.62206  0.09278  0.06822  1.0000
  C   C20       1.0  0.62206  0.90722  0.43178  1.0000
  C   C21       1.0  0.35314  0.09403  0.92889  1.0000
  C   C22       1.0  0.35314  0.90598  0.57110  1.0000
  C   C23       1.0  0.64686  0.90598  0.07110  1.0000
  C   C24       1.0  0.64686  0.09402  0.42890  1.0000
  C   C25       1.0  0.70977  0.88816  0.86339  1.0000
  C   C26       1.0  0.70976  0.11184  0.63661  1.0000
  C   C27       1.0  0.29024  0.11184  0.13661  1.0000
  C   C28       1.0  0.29024  0.88816  0.36339  1.0000
  C   C29       1.0  0.91073  0.67023  0.66915  1.0000
  C   C30       1.0  0.91073  0.32977  0.83085  1.0000
  C   C31       1.0  0.08927  0.32977  0.33085  1.0000
  C   C32       1.0  0.08927  0.67023  0.16915  1.0000
  C   C33       1.0  0.21470  0.74798  0.73902  1.0000
  C   C34       1.0  0.21470  0.25202  0.76098  1.0000
  C   C35       1.0  0.78530  0.25202  0.26098  1.0000
  C   C36       1.0  0.78530  0.74798  0.23902  1.0000
  N   N1        1.0  0.22887  0.83394  0.96360  1.0000
  N   N2        1.0  0.22887  0.16606  0.53640  1.0000
  N   N3        1.0  0.77113  0.16606  0.03640  1.0000
  N   N4        1.0  0.77113  0.83394  0.46360  1.0000
  N   N5        1.0  0.05079  0.80778  0.69729  1.0000
  N   N6        1.0  0.05079  0.19222  0.80271  1.0000
  N   N7        1.0  0.94921  0.19222  0.30271  1.0000
  N   N8        1.0  0.94921  0.80778  0.19729  1.0000
  O   O1        1.0  0.48595  0.16400  0.89759  1.0000
  O   O2        1.0  0.48595  0.83600  0.60241  1.0000
  O   O3        1.0  0.51405  0.83600  0.10241  1.0000
  O   O4        1.0  0.51405  0.16400  0.39759  1.0000
  O   O5        1.0  0.19171  0.16522  0.95702  1.0000
  O   O6        1.0  0.19171  0.83478  0.54298  1.0000
  O   O7        1.0  0.80829  0.83478  0.04298  1.0000
  O   O8        1.0  0.80829  0.16522  0.45702  1.0000
  O   O9        1.0  0.87167  0.94048  0.89333  1.0000
  O   O10       1.0  0.87167  0.05952  0.60667  1.0000
  O   O11       1.0  0.12833  0.05952  0.10667  1.0000
  O   O12       1.0  0.12833  0.94048  0.39333  1.0000
  O   O13       1.0  0.68072  0.87783  0.79882  1.0000
  O   O14       1.0  0.68072  0.12217  0.70118  1.0000
  O   O15       1.0  0.31929  0.12217  0.20118  1.0000
  O   O16       1.0  0.31928  0.87783  0.29882  1.0000
