data_image0
_chemical_formula_structural       Nd2H48C52Cl6O22
_chemical_formula_sum              "Nd2 H48 C52 Cl6 O22"
_cell_length_a       8.6724
_cell_length_b       10.1045
_cell_length_c       17.8131
_cell_angle_alpha    77.3123
_cell_angle_beta     76.9392
_cell_angle_gamma    71.0546

_space_group_name_H-M_alt    "P 1"
_space_group_IT_number       1

loop_
  _space_group_symop_operation_xyz
  'x, y, z'

loop_
  _atom_site_type_symbol
  _atom_site_label
  _atom_site_symmetry_multiplicity
  _atom_site_fract_x
  _atom_site_fract_y
  _atom_site_fract_z
  _atom_site_occupancy
  Nd  Nd1       1.0  0.25347  0.50383  0.49271  1.0000
  Nd  Nd2       1.0  0.74654  0.49617  0.50729  1.0000
  H   H1        1.0  0.47960  0.48598  0.21009  1.0000
  H   H2        1.0  0.52040  0.51401  0.78991  1.0000
  H   H3        1.0  0.36615  0.35906  0.23995  1.0000
  H   H4        1.0  0.63384  0.64094  0.76006  1.0000
  H   H5        1.0  0.03729  0.74465  0.11209  1.0000
  H   H6        1.0  0.96271  0.25536  0.88791  1.0000
  H   H7        1.0  0.02166  0.73203  0.97656  1.0000
  H   H8        1.0  0.97834  0.26798  0.02344  1.0000
  H   H9        1.0  0.41444  0.33779  0.98483  1.0000
  H   H10       1.0  0.58555  0.66222  0.01517  1.0000
  H   H11       1.0  0.43371  0.35113  0.11801  1.0000
  H   H12       1.0  0.56628  0.64887  0.88199  1.0000
  H   H13       1.0  0.86425  0.91183  0.56909  1.0000
  H   H14       1.0  0.13575  0.08817  0.43091  1.0000
  H   H15       1.0  0.01828  0.87630  0.48454  1.0000
  H   H16       1.0  0.98172  0.12370  0.51546  1.0000
  H   H17       1.0  0.55817  0.16925  0.38960  1.0000
  H   H18       1.0  0.44184  0.83075  0.61039  1.0000
  H   H19       1.0  0.56858  0.18942  0.24616  1.0000
  H   H20       1.0  0.43142  0.81059  0.75384  1.0000
  H   H21       1.0  0.03672  0.86603  0.23165  1.0000
  H   H22       1.0  0.96328  0.13397  0.76835  1.0000
  H   H23       1.0  0.03175  0.84879  0.37143  1.0000
  H   H24       1.0  0.96825  0.15121  0.62857  1.0000
  H   H25       1.0  0.49553  0.90206  0.43563  1.0000
  H   H26       1.0  0.50447  0.09794  0.56436  1.0000
  H   H27       1.0  0.59436  0.82754  0.35005  1.0000
  H   H28       1.0  0.40564  0.17246  0.64995  1.0000
  H   H29       1.0  0.18795  0.19124  0.26699  1.0000
  H   H30       1.0  0.81204  0.80876  0.73300  1.0000
  H   H31       1.0  0.14652  0.20807  0.13096  1.0000
  H   H32       1.0  0.85347  0.79192  0.86904  1.0000
  H   H33       1.0  0.46347  0.78037  0.12632  1.0000
  H   H34       1.0  0.53653  0.21962  0.87368  1.0000
  H   H35       1.0  0.50309  0.76331  0.26131  1.0000
  H   H36       1.0  0.49691  0.23669  0.73869  1.0000
  H   H37       1.0  0.29557  0.40863  0.70539  1.0000
  H   H38       1.0  0.70444  0.59137  0.29461  1.0000
  H   H39       1.0  0.08352  0.43591  0.75004  1.0000
  H   H40       1.0  0.91648  0.56409  0.24996  1.0000
  H   H41       1.0  0.01314  0.67061  0.66077  1.0000
  H   H42       1.0  0.98687  0.32939  0.33923  1.0000
  H   H43       1.0  0.16404  0.66690  0.71550  1.0000
  H   H44       1.0  0.83596  0.33310  0.28450  1.0000
  H   H45       1.0  0.02250  0.41327  0.64153  1.0000
  H   H46       1.0  0.97750  0.58672  0.35847  1.0000
  H   H47       1.0  0.35851  0.62243  0.61073  1.0000
  H   H48       1.0  0.64150  0.37757  0.38927  1.0000
  C   C1        1.0  0.32482  0.49144  0.32355  1.0000
  C   C2        1.0  0.67518  0.50856  0.67645  1.0000
  C   C3        1.0  0.35882  0.47071  0.23905  1.0000
  C   C4        1.0  0.64118  0.52929  0.76096  1.0000
  C   C5        1.0  0.23371  0.54850  0.12458  1.0000
  C   C6        1.0  0.76628  0.45151  0.87542  1.0000
  C   C7        1.0  0.11886  0.65544  0.08393  1.0000
  C   C8        1.0  0.88113  0.34457  0.91607  1.0000
  C   C9        1.0  0.11035  0.64833  0.00804  1.0000
  C   C10       1.0  0.88964  0.35167  0.99197  1.0000
  C   C11       1.0  0.21694  0.53356  0.97278  1.0000
  C   C12       1.0  0.78306  0.46645  0.02722  1.0000
  C   C13       1.0  0.33142  0.42687  0.01254  1.0000
  C   C14       1.0  0.66858  0.57315  0.98746  1.0000
  C   C15       1.0  0.34107  0.43449  0.08870  1.0000
  C   C16       1.0  0.65892  0.56552  0.91130  1.0000
  C   C17       1.0  0.84575  0.75285  0.51296  1.0000
  C   C18       1.0  0.15426  0.24715  0.48704  1.0000
  C   C19       1.0  0.88725  0.88939  0.50923  1.0000
  C   C20       1.0  0.11275  0.11061  0.49077  1.0000
  C   C21       1.0  0.79436  0.01004  0.38969  1.0000
  C   C22       1.0  0.20565  0.98996  0.61031  1.0000
  C   C23       1.0  0.66448  0.10650  0.35400  1.0000
  C   C24       1.0  0.33553  0.89351  0.64600  1.0000
  C   C25       1.0  0.66990  0.11693  0.27441  1.0000
  C   C26       1.0  0.33009  0.88308  0.72559  1.0000
  C   C27       1.0  0.80371  0.03057  0.23044  1.0000
  C   C28       1.0  0.19629  0.96943  0.76956  1.0000
  C   C29       1.0  0.93226  0.93349  0.26577  1.0000
  C   C30       1.0  0.06775  0.06651  0.73422  1.0000
  C   C31       1.0  0.92785  0.92309  0.34567  1.0000
  C   C32       1.0  0.07215  0.07691  0.65433  1.0000
  C   C33       1.0  0.40189  0.74161  0.42192  1.0000
  C   C34       1.0  0.59811  0.25839  0.57808  1.0000
  C   C35       1.0  0.47335  0.86419  0.38696  1.0000
  C   C36       1.0  0.52665  0.13581  0.61304  1.0000
  C   C37       1.0  0.34899  0.97785  0.27277  1.0000
  C   C38       1.0  0.65100  0.02214  0.72723  1.0000
  C   C39       1.0  0.24863  0.10219  0.23529  1.0000
  C   C40       1.0  0.75136  0.89780  0.76471  1.0000
  C   C41       1.0  0.22523  0.11123  0.15950  1.0000
  C   C42       1.0  0.77476  0.88877  0.84050  1.0000
  C   C43       1.0  0.30364  0.99507  0.12030  1.0000
  C   C44       1.0  0.69636  0.00492  0.87970  1.0000
  C   C45       1.0  0.40304  0.87061  0.15710  1.0000
  C   C46       1.0  0.59695  0.12938  0.84290  1.0000
  C   C47       1.0  0.42557  0.86148  0.23348  1.0000
  C   C48       1.0  0.57443  0.13851  0.76652  1.0000
  C   C49       1.0  0.16726  0.45997  0.69594  1.0000
  C   C50       1.0  0.83274  0.54002  0.30406  1.0000
  C   C51       1.0  0.14044  0.61807  0.67135  1.0000
  C   C52       1.0  0.85957  0.38193  0.32865  1.0000
  Cl  Cl1       1.0  0.20685  0.52547  0.87732  1.0000
  Cl  Cl2       1.0  0.79314  0.47454  0.12268  1.0000
  Cl  Cl3       1.0  0.80898  0.04635  0.13087  1.0000
  Cl  Cl4       1.0  0.19103  0.95365  0.86913  1.0000
  Cl  Cl5       1.0  0.27769  0.00700  0.02511  1.0000
  Cl  Cl6       1.0  0.72231  0.99299  0.97489  1.0000
  O   O1        1.0  0.96464  0.63672  0.51239  1.0000
  O   O2        1.0  0.03536  0.36328  0.48761  1.0000
  O   O3        1.0  0.17765  0.53901  0.35796  1.0000
  O   O4        1.0  0.82235  0.46099  0.64204  1.0000
  O   O5        1.0  0.77967  0.00812  0.46846  1.0000
  O   O6        1.0  0.22033  0.99189  0.53154  1.0000
  O   O7        1.0  0.49432  0.62969  0.45794  1.0000
  O   O8        1.0  0.50568  0.37031  0.54206  1.0000
  O   O9        1.0  0.69841  0.75284  0.51798  1.0000
  O   O10       1.0  0.30159  0.24716  0.48202  1.0000
  O   O11       1.0  0.36391  0.98194  0.34700  1.0000
  O   O12       1.0  0.63609  0.01806  0.65299  1.0000
  O   O13       1.0  0.24674  0.64278  0.59819  1.0000
  O   O14       1.0  0.75327  0.35722  0.40181  1.0000
  O   O15       1.0  0.14368  0.40170  0.63394  1.0000
  O   O16       1.0  0.85632  0.59830  0.36606  1.0000
  O   O17       1.0  0.44668  0.45375  0.35985  1.0000
  O   O18       1.0  0.55332  0.54624  0.64015  1.0000
  O   O19       1.0  0.22928  0.56465  0.19991  1.0000
  O   O20       1.0  0.77071  0.43535  0.80010  1.0000
  O   O21       1.0  0.25688  0.74803  0.41751  1.0000
  O   O22       1.0  0.74312  0.25197  0.58249  1.0000
