data_image0
_chemical_formula_structural       La2H48C52Cl6O22
_chemical_formula_sum              "La2 H48 C52 Cl6 O22"
_cell_length_a       8.78883
_cell_length_b       10.0509
_cell_length_c       17.9103
_cell_angle_alpha    76.785
_cell_angle_beta     76.4254
_cell_angle_gamma    70.5161

_space_group_name_H-M_alt    "P 1"
_space_group_IT_number       1

loop_
  _space_group_symop_operation_xyz
  'x, y, z'

loop_
  _atom_site_type_symbol
  _atom_site_label
  _atom_site_symmetry_multiplicity
  _atom_site_fract_x
  _atom_site_fract_y
  _atom_site_fract_z
  _atom_site_occupancy
  La  La1       1.0  0.74733  0.49576  0.50605  1.0000
  La  La2       1.0  0.25267  0.50425  0.49395  1.0000
  H   H1        1.0  0.98636  0.11902  0.51826  1.0000
  H   H2        1.0  0.01364  0.88097  0.48173  1.0000
  H   H3        1.0  0.13991  0.07925  0.43449  1.0000
  H   H4        1.0  0.86009  0.92075  0.56551  1.0000
  H   H5        1.0  0.96769  0.14846  0.62995  1.0000
  H   H6        1.0  0.03231  0.85154  0.37005  1.0000
  H   H7        1.0  0.95719  0.13558  0.76912  1.0000
  H   H8        1.0  0.04281  0.86443  0.23088  1.0000
  H   H9        1.0  0.42513  0.81200  0.75911  1.0000
  H   H10       1.0  0.57486  0.18799  0.24089  1.0000
  H   H11       1.0  0.44028  0.82721  0.61617  1.0000
  H   H12       1.0  0.55972  0.17279  0.38382  1.0000
  H   H13       1.0  0.40861  0.16739  0.65011  1.0000
  H   H14       1.0  0.59140  0.83261  0.34989  1.0000
  H   H15       1.0  0.50904  0.08879  0.56604  1.0000
  H   H16       1.0  0.49097  0.91121  0.43396  1.0000
  H   H17       1.0  0.49737  0.23643  0.73647  1.0000
  H   H18       1.0  0.50263  0.76357  0.26352  1.0000
  H   H19       1.0  0.53208  0.22495  0.87070  1.0000
  H   H20       1.0  0.46791  0.77506  0.12930  1.0000
  H   H21       1.0  0.84917  0.79221  0.87246  1.0000
  H   H22       1.0  0.15082  0.20780  0.12754  1.0000
  H   H23       1.0  0.81164  0.80304  0.73743  1.0000
  H   H24       1.0  0.18837  0.19697  0.26257  1.0000
  H   H25       1.0  0.63590  0.63997  0.75947  1.0000
  H   H26       1.0  0.36410  0.36002  0.24054  1.0000
  H   H27       1.0  0.52315  0.51301  0.79150  1.0000
  H   H28       1.0  0.47686  0.48698  0.20851  1.0000
  H   H29       1.0  0.56547  0.64886  0.88153  1.0000
  H   H30       1.0  0.43454  0.35113  0.11848  1.0000
  H   H31       1.0  0.58157  0.66452  0.01389  1.0000
  H   H32       1.0  0.41844  0.33548  0.98611  1.0000
  H   H33       1.0  0.97869  0.27027  0.02325  1.0000
  H   H34       1.0  0.02131  0.72972  0.97676  1.0000
  H   H35       1.0  0.96568  0.25519  0.88860  1.0000
  H   H36       1.0  0.03432  0.74480  0.11141  1.0000
  H   H37       1.0  0.83941  0.33343  0.28077  1.0000
  H   H38       1.0  0.16059  0.66657  0.71923  1.0000
  H   H39       1.0  0.98475  0.32483  0.33810  1.0000
  H   H40       1.0  0.01525  0.67517  0.66190  1.0000
  H   H41       1.0  0.92858  0.56014  0.24651  1.0000
  H   H42       1.0  0.07142  0.43986  0.75350  1.0000
  H   H43       1.0  0.71585  0.59589  0.28765  1.0000
  H   H44       1.0  0.28415  0.40411  0.71235  1.0000
  H   H45       1.0  0.98107  0.58887  0.35409  1.0000
  H   H46       1.0  0.01893  0.41113  0.64592  1.0000
  H   H47       1.0  0.64002  0.38291  0.38339  1.0000
  H   H48       1.0  0.35998  0.61709  0.61662  1.0000
  C   C1        1.0  0.15763  0.24179  0.48750  1.0000
  C   C2        1.0  0.84236  0.75821  0.51250  1.0000
  C   C3        1.0  0.11650  0.10400  0.49360  1.0000
  C   C4        1.0  0.88350  0.89600  0.50640  1.0000
  C   C5        1.0  0.20483  0.98623  0.61400  1.0000
  C   C6        1.0  0.79517  0.01378  0.38600  1.0000
  C   C7        1.0  0.07005  0.07469  0.65658  1.0000
  C   C8        1.0  0.92995  0.92532  0.34342  1.0000
  C   C9        1.0  0.06272  0.06699  0.73613  1.0000
  C   C10       1.0  0.93728  0.93301  0.26387  1.0000
  C   C11       1.0  0.18965  0.97100  0.77257  1.0000
  C   C12       1.0  0.81036  0.02900  0.22743  1.0000
  C   C13       1.0  0.32505  0.88341  0.73003  1.0000
  C   C14       1.0  0.67495  0.11659  0.26996  1.0000
  C   C15       1.0  0.33327  0.89120  0.65074  1.0000
  C   C16       1.0  0.66674  0.10880  0.34926  1.0000
  C   C17       1.0  0.60067  0.25136  0.57769  1.0000
  C   C18       1.0  0.39934  0.74864  0.42231  1.0000
  C   C19       1.0  0.52930  0.12864  0.61394  1.0000
  C   C20       1.0  0.47071  0.87136  0.38605  1.0000
  C   C21       1.0  0.65057  0.01852  0.72857  1.0000
  C   C22       1.0  0.34943  0.98148  0.27143  1.0000
  C   C23       1.0  0.57334  0.13815  0.76571  1.0000
  C   C24       1.0  0.42665  0.86185  0.23429  1.0000
  C   C25       1.0  0.59359  0.13230  0.84156  1.0000
  C   C26       1.0  0.40640  0.86771  0.15844  1.0000
  C   C27       1.0  0.69176  0.00800  0.87991  1.0000
  C   C28       1.0  0.30823  0.99201  0.12008  1.0000
  C   C29       1.0  0.77131  0.88883  0.84275  1.0000
  C   C30       1.0  0.22868  0.11117  0.15725  1.0000
  C   C31       1.0  0.74998  0.89453  0.76752  1.0000
  C   C32       1.0  0.25002  0.10547  0.23248  1.0000
  C   C33       1.0  0.67676  0.50345  0.67827  1.0000
  C   C34       1.0  0.32323  0.49655  0.32174  1.0000
  C   C35       1.0  0.64308  0.52707  0.76196  1.0000
  C   C36       1.0  0.35693  0.47293  0.23805  1.0000
  C   C37       1.0  0.76661  0.45078  0.87584  1.0000
  C   C38       1.0  0.23340  0.54922  0.12416  1.0000
  C   C39       1.0  0.65778  0.56568  0.91107  1.0000
  C   C40       1.0  0.34223  0.43431  0.08893  1.0000
  C   C41       1.0  0.66590  0.57472  0.98672  1.0000
  C   C42       1.0  0.33411  0.42527  0.01328  1.0000
  C   C43       1.0  0.78066  0.46851  0.02654  1.0000
  C   C44       1.0  0.21935  0.53149  0.97347  1.0000
  C   C45       1.0  0.88948  0.35329  0.99174  1.0000
  C   C46       1.0  0.11052  0.64670  0.00826  1.0000
  C   C47       1.0  0.88236  0.34478  0.91637  1.0000
  C   C48       1.0  0.11765  0.65521  0.08363  1.0000
  C   C49       1.0  0.86073  0.38156  0.32535  1.0000
  C   C50       1.0  0.13927  0.61843  0.67466  1.0000
  C   C51       1.0  0.84073  0.54015  0.29958  1.0000
  C   C52       1.0  0.15926  0.45985  0.70042  1.0000
  Cl  Cl1       1.0  0.18037  0.95865  0.87178  1.0000
  Cl  Cl2       1.0  0.81964  0.04134  0.12822  1.0000
  Cl  Cl3       1.0  0.71499  0.00032  0.97444  1.0000
  Cl  Cl4       1.0  0.28499  0.99968  0.02556  1.0000
  Cl  Cl5       1.0  0.78797  0.47740  0.12160  1.0000
  Cl  Cl6       1.0  0.21204  0.52259  0.87841  1.0000
  O   O1        1.0  0.50788  0.36503  0.54233  1.0000
  O   O2        1.0  0.49211  0.63497  0.45767  1.0000
  O   O3        1.0  0.03956  0.35975  0.48493  1.0000
  O   O4        1.0  0.96043  0.64025  0.51507  1.0000
  O   O5        1.0  0.82237  0.45148  0.64443  1.0000
  O   O6        1.0  0.17763  0.54852  0.35558  1.0000
  O   O7        1.0  0.74499  0.24290  0.58093  1.0000
  O   O8        1.0  0.25501  0.75710  0.41906  1.0000
  O   O9        1.0  0.55584  0.54365  0.64234  1.0000
  O   O10       1.0  0.44416  0.45635  0.35766  1.0000
  O   O11       1.0  0.74969  0.36058  0.39707  1.0000
  O   O12       1.0  0.25032  0.63942  0.60294  1.0000
  O   O13       1.0  0.22191  0.98516  0.53573  1.0000
  O   O14       1.0  0.77809  0.01484  0.46427  1.0000
  O   O15       1.0  0.77144  0.43283  0.80126  1.0000
  O   O16       1.0  0.22856  0.56717  0.19874  1.0000
  O   O17       1.0  0.86163  0.59863  0.36147  1.0000
  O   O18       1.0  0.13837  0.40137  0.63853  1.0000
  O   O19       1.0  0.30300  0.24058  0.48381  1.0000
  O   O20       1.0  0.69700  0.75943  0.51619  1.0000
  O   O21       1.0  0.63673  0.01061  0.65524  1.0000
  O   O22       1.0  0.36328  0.98939  0.34476  1.0000
