data_image0
_chemical_formula_structural       Gd2H48C52Cl6O22
_chemical_formula_sum              "Gd2 H48 C52 Cl6 O22"
_cell_length_a       8.92297
_cell_length_b       9.94645
_cell_length_c       17.7613
_cell_angle_alpha    76.649
_cell_angle_beta     76.2517
_cell_angle_gamma    69.6118

_space_group_name_H-M_alt    "P 1"
_space_group_IT_number       1

loop_
  _space_group_symop_operation_xyz
  'x, y, z'

loop_
  _atom_site_type_symbol
  _atom_site_label
  _atom_site_symmetry_multiplicity
  _atom_site_fract_x
  _atom_site_fract_y
  _atom_site_fract_z
  _atom_site_occupancy
  Gd  Gd1       1.0  0.26373  0.51712  0.49806  1.0000
  Gd  Gd2       1.0  0.73627  0.48288  0.50194  1.0000
  H   H1        1.0  0.46137  0.49059  0.21921  1.0000
  H   H2        1.0  0.53863  0.50941  0.78079  1.0000
  H   H3        1.0  0.36374  0.35345  0.25269  1.0000
  H   H4        1.0  0.63625  0.64655  0.74731  1.0000
  H   H5        1.0  0.44443  0.35027  0.12628  1.0000
  H   H6        1.0  0.55557  0.64973  0.87372  1.0000
  H   H7        1.0  0.44228  0.33424  0.99091  1.0000
  H   H8        1.0  0.55772  0.66577  0.00909  1.0000
  H   H9        1.0  0.01843  0.71419  0.98294  1.0000
  H   H10       1.0  0.98156  0.28581  0.01706  1.0000
  H   H11       1.0  0.01875  0.73016  0.12019  1.0000
  H   H12       1.0  0.98125  0.26984  0.87981  1.0000
  H   H13       1.0  0.49820  0.90932  0.43650  1.0000
  H   H14       1.0  0.50180  0.09068  0.56350  1.0000
  H   H15       1.0  0.59765  0.82727  0.35238  1.0000
  H   H16       1.0  0.40235  0.17273  0.64762  1.0000
  H   H17       1.0  0.51849  0.76281  0.26381  1.0000
  H   H18       1.0  0.48151  0.23719  0.73619  1.0000
  H   H19       1.0  0.48248  0.77092  0.12937  1.0000
  H   H20       1.0  0.51752  0.22907  0.87063  1.0000
  H   H21       1.0  0.15205  0.20675  0.12837  1.0000
  H   H22       1.0  0.84795  0.79325  0.87163  1.0000
  H   H23       1.0  0.19068  0.19942  0.26375  1.0000
  H   H24       1.0  0.80932  0.80058  0.73625  1.0000
  H   H25       1.0  0.00233  0.10116  0.52171  1.0000
  H   H26       1.0  0.99767  0.89884  0.47829  1.0000
  H   H27       1.0  0.15862  0.07503  0.43739  1.0000
  H   H28       1.0  0.84139  0.92496  0.56261  1.0000
  H   H29       1.0  0.97430  0.15840  0.63046  1.0000
  H   H30       1.0  0.02570  0.84161  0.36954  1.0000
  H   H31       1.0  0.94378  0.14226  0.77247  1.0000
  H   H32       1.0  0.05621  0.85775  0.22752  1.0000
  H   H33       1.0  0.40770  0.81041  0.77375  1.0000
  H   H34       1.0  0.59229  0.18960  0.22625  1.0000
  H   H35       1.0  0.44247  0.82755  0.62793  1.0000
  H   H36       1.0  0.55752  0.17245  0.37207  1.0000
  H   H37       1.0  0.27755  0.40779  0.71777  1.0000
  H   H38       1.0  0.72246  0.59220  0.28223  1.0000
  H   H39       1.0  0.06333  0.45617  0.75022  1.0000
  H   H40       1.0  0.93667  0.54383  0.24979  1.0000
  H   H41       1.0  0.02963  0.69303  0.65807  1.0000
  H   H42       1.0  0.97037  0.30696  0.34193  1.0000
  H   H43       1.0  0.17158  0.67475  0.71864  1.0000
  H   H44       1.0  0.82843  0.32525  0.28136  1.0000
  H   H45       1.0  0.37390  0.61446  0.61699  1.0000
  H   H46       1.0  0.62610  0.38554  0.38301  1.0000
  H   H47       1.0  0.03216  0.41993  0.63873  1.0000
  H   H48       1.0  0.96784  0.58007  0.36127  1.0000
  C   C1        1.0  0.30952  0.49790  0.33319  1.0000
  C   C2        1.0  0.69048  0.50210  0.66682  1.0000
  C   C3        1.0  0.34631  0.47028  0.24930  1.0000
  C   C4        1.0  0.65369  0.52972  0.75070  1.0000
  C   C5        1.0  0.22958  0.54114  0.13278  1.0000
  C   C6        1.0  0.77042  0.45886  0.86722  1.0000
  C   C7        1.0  0.34947  0.43026  0.09630  1.0000
  C   C8        1.0  0.65053  0.56975  0.90370  1.0000
  C   C9        1.0  0.34891  0.42076  0.01904  1.0000
  C   C10       1.0  0.65108  0.57925  0.98096  1.0000
  C   C11       1.0  0.23003  0.52265  0.97888  1.0000
  C   C12       1.0  0.76997  0.47735  0.02112  1.0000
  C   C13       1.0  0.11022  0.63399  0.01484  1.0000
  C   C14       1.0  0.88978  0.36601  0.98516  1.0000
  C   C15       1.0  0.11029  0.64297  0.09173  1.0000
  C   C16       1.0  0.88971  0.35703  0.90827  1.0000
  C   C17       1.0  0.40376  0.74939  0.42437  1.0000
  C   C18       1.0  0.59624  0.25061  0.57563  1.0000
  C   C19       1.0  0.47776  0.87012  0.38805  1.0000
  C   C20       1.0  0.52223  0.12988  0.61195  1.0000
  C   C21       1.0  0.35838  0.98243  0.27225  1.0000
  C   C22       1.0  0.64162  0.01757  0.72775  1.0000
  C   C23       1.0  0.43898  0.86105  0.23475  1.0000
  C   C24       1.0  0.56102  0.13895  0.76525  1.0000
  C   C25       1.0  0.41788  0.86487  0.15879  1.0000
  C   C26       1.0  0.58213  0.13512  0.84121  1.0000
  C   C27       1.0  0.31542  0.98916  0.12060  1.0000
  C   C28       1.0  0.68458  0.01084  0.87940  1.0000
  C   C29       1.0  0.23275  0.11015  0.15810  1.0000
  C   C30       1.0  0.76726  0.88985  0.84190  1.0000
  C   C31       1.0  0.25481  0.10637  0.23351  1.0000
  C   C32       1.0  0.74519  0.89363  0.76648  1.0000
  C   C33       1.0  0.13096  0.25717  0.48927  1.0000
  C   C34       1.0  0.86904  0.74282  0.51073  1.0000
  C   C35       1.0  0.12674  0.10294  0.49680  1.0000
  C   C36       1.0  0.87326  0.89706  0.50320  1.0000
  C   C37       1.0  0.21176  0.99283  0.61971  1.0000
  C   C38       1.0  0.78824  0.00717  0.38029  1.0000
  C   C39       1.0  0.07152  0.08180  0.66013  1.0000
  C   C40       1.0  0.92848  0.91821  0.33987  1.0000
  C   C41       1.0  0.05286  0.07248  0.74130  1.0000
  C   C42       1.0  0.94714  0.92753  0.25870  1.0000
  C   C43       1.0  0.17363  0.97413  0.78153  1.0000
  C   C44       1.0  0.82636  0.02588  0.21847  1.0000
  C   C45       1.0  0.31361  0.88487  0.74138  1.0000
  C   C46       1.0  0.68638  0.11514  0.25862  1.0000
  C   C47       1.0  0.33290  0.89408  0.66059  1.0000
  C   C48       1.0  0.66709  0.10593  0.33941  1.0000
  C   C49       1.0  0.15916  0.46993  0.70001  1.0000
  C   C50       1.0  0.84084  0.53007  0.30000  1.0000
  C   C51       1.0  0.14929  0.62847  0.67327  1.0000
  C   C52       1.0  0.85071  0.37153  0.32673  1.0000
  Cl  Cl1       1.0  0.23204  0.51397  0.88173  1.0000
  Cl  Cl2       1.0  0.76795  0.48604  0.11827  1.0000
  Cl  Cl3       1.0  0.29134  0.99422  0.02594  1.0000
  Cl  Cl4       1.0  0.70866  0.00577  0.97406  1.0000
  Cl  Cl5       1.0  0.15099  0.96061  0.88254  1.0000
  Cl  Cl6       1.0  0.84900  0.03940  0.11746  1.0000
  O   O1        1.0  0.16631  0.55227  0.36768  1.0000
  O   O2        1.0  0.83369  0.44773  0.63232  1.0000
  O   O3        1.0  0.49360  0.63167  0.46012  1.0000
  O   O4        1.0  0.50640  0.36833  0.53987  1.0000
  O   O5        1.0  0.14853  0.41015  0.63573  1.0000
  O   O6        1.0  0.85147  0.58985  0.36427  1.0000
  O   O7        1.0  0.26001  0.76178  0.42165  1.0000
  O   O8        1.0  0.73998  0.23822  0.57835  1.0000
  O   O9        1.0  0.25832  0.28017  0.49453  1.0000
  O   O10       1.0  0.74169  0.71982  0.50547  1.0000
  O   O11       1.0  0.26510  0.64151  0.60233  1.0000
  O   O12       1.0  0.73490  0.35849  0.39767  1.0000
  O   O13       1.0  0.42995  0.45811  0.36929  1.0000
  O   O14       1.0  0.57005  0.54189  0.63071  1.0000
  O   O15       1.0  0.37336  0.99184  0.34570  1.0000
  O   O16       1.0  0.62664  0.00816  0.65430  1.0000
  O   O17       1.0  0.00120  0.35760  0.47485  1.0000
  O   O18       1.0  0.99881  0.64240  0.52516  1.0000
  O   O19       1.0  0.24262  0.99561  0.53994  1.0000
  O   O20       1.0  0.75738  0.00438  0.46006  1.0000
  O   O21       1.0  0.21644  0.55862  0.20908  1.0000
  O   O22       1.0  0.78356  0.44138  0.79093  1.0000
