data_image0
_chemical_formula_structural       Sn4H32C56N8O16
_chemical_formula_sum              "Sn4 H32 C56 N8 O16"
_cell_length_a       8.89795
_cell_length_b       9.57003
_cell_length_c       16.407
_cell_angle_alpha    90
_cell_angle_beta     90
_cell_angle_gamma    113.59

_space_group_name_H-M_alt    "P 1"
_space_group_IT_number       1

loop_
  _space_group_symop_operation_xyz
  'x, y, z'

loop_
  _atom_site_type_symbol
  _atom_site_label
  _atom_site_symmetry_multiplicity
  _atom_site_fract_x
  _atom_site_fract_y
  _atom_site_fract_z
  _atom_site_occupancy
  Sn  Sn1       1.0  0.94589  0.89207  0.61863  1.0000
  Sn  Sn2       1.0  0.55411  0.10794  0.11864  1.0000
  Sn  Sn3       1.0  0.05411  0.10793  0.38137  1.0000
  Sn  Sn4       1.0  0.44589  0.89206  0.88136  1.0000
  H   H1        1.0  0.86287  0.27784  0.58714  1.0000
  H   H2        1.0  0.63714  0.72217  0.08714  1.0000
  H   H3        1.0  0.13714  0.72217  0.41286  1.0000
  H   H4        1.0  0.36286  0.27783  0.91286  1.0000
  H   H5        1.0  0.62487  0.34042  0.33187  1.0000
  H   H6        1.0  0.87513  0.65959  0.83187  1.0000
  H   H7        1.0  0.37513  0.65958  0.66813  1.0000
  H   H8        1.0  0.12488  0.34042  0.16813  1.0000
  H   H9        1.0  0.92124  0.52621  0.65778  1.0000
  H   H10       1.0  0.57876  0.47380  0.15778  1.0000
  H   H11       1.0  0.07876  0.47380  0.34222  1.0000
  H   H12       1.0  0.42123  0.52620  0.84222  1.0000
  H   H13       1.0  0.74643  0.24364  0.44434  1.0000
  H   H14       1.0  0.75358  0.75637  0.94434  1.0000
  H   H15       1.0  0.25358  0.75637  0.55566  1.0000
  H   H16       1.0  0.24643  0.24363  0.05566  1.0000
  H   H17       1.0  0.68143  0.02492  0.52553  1.0000
  H   H18       1.0  0.81858  0.97509  0.02553  1.0000
  H   H19       1.0  0.31858  0.97508  0.47447  1.0000
  H   H20       1.0  0.18142  0.02491  0.97447  1.0000
  H   H21       1.0  0.49512  0.78131  0.30154  1.0000
  H   H22       1.0  0.00488  0.21869  0.80154  1.0000
  H   H23       1.0  0.50488  0.21869  0.69846  1.0000
  H   H24       1.0  0.99511  0.78130  0.19846  1.0000
  H   H25       1.0  0.54334  0.00580  0.38887  1.0000
  H   H26       1.0  0.95666  0.99420  0.88887  1.0000
  H   H27       1.0  0.45666  0.99420  0.61113  1.0000
  H   H28       1.0  0.04334  0.00580  0.11113  1.0000
  H   H29       1.0  0.52454  0.53163  0.28186  1.0000
  H   H30       1.0  0.97547  0.46837  0.78186  1.0000
  H   H31       1.0  0.47546  0.46837  0.71814  1.0000
  H   H32       1.0  0.02454  0.53163  0.21814  1.0000
  C   C1        1.0  0.69213  0.82201  0.75342  1.0000
  C   C2        1.0  0.80789  0.17799  0.25344  1.0000
  C   C3        1.0  0.30787  0.17799  0.24658  1.0000
  C   C4        1.0  0.19210  0.82200  0.74656  1.0000
  C   C5        1.0  0.68497  0.69977  0.46555  1.0000
  C   C6        1.0  0.81503  0.30023  0.96555  1.0000
  C   C7        1.0  0.31503  0.30023  0.53445  1.0000
  C   C8        1.0  0.18497  0.69976  0.03445  1.0000
  C   C9        1.0  0.74135  0.58726  0.49540  1.0000
  C   C10       1.0  0.75865  0.41274  0.99540  1.0000
  C   C11       1.0  0.25866  0.41274  0.50460  1.0000
  C   C12       1.0  0.24135  0.58725  0.00460  1.0000
  C   C13       1.0  0.69524  0.97581  0.72059  1.0000
  C   C14       1.0  0.80479  0.02419  0.22060  1.0000
  C   C15       1.0  0.30476  0.02419  0.27941  1.0000
  C   C16       1.0  0.19521  0.97581  0.77940  1.0000
  C   C17       1.0  0.83070  0.36444  0.55779  1.0000
  C   C18       1.0  0.66930  0.63557  0.05779  1.0000
  C   C19       1.0  0.16930  0.63557  0.44221  1.0000
  C   C20       1.0  0.33070  0.36443  0.94221  1.0000
  C   C21       1.0  0.63835  0.43917  0.36900  1.0000
  C   C22       1.0  0.86165  0.56083  0.86900  1.0000
  C   C23       1.0  0.36165  0.56083  0.63100  1.0000
  C   C24       1.0  0.13836  0.43917  0.13100  1.0000
  C   C25       1.0  0.85962  0.50162  0.59893  1.0000
  C   C26       1.0  0.64038  0.49838  0.09893  1.0000
  C   C27       1.0  0.14038  0.49838  0.40107  1.0000
  C   C28       1.0  0.35961  0.50161  0.90107  1.0000
  C   C29       1.0  0.71433  0.45548  0.44736  1.0000
  C   C30       1.0  0.78567  0.54452  0.94736  1.0000
  C   C31       1.0  0.28567  0.54452  0.55264  1.0000
  C   C32       1.0  0.21433  0.45548  0.05264  1.0000
  C   C33       1.0  0.76286  0.34397  0.48068  1.0000
  C   C34       1.0  0.73714  0.65604  0.98068  1.0000
  C   C35       1.0  0.23714  0.65604  0.51932  1.0000
  C   C36       1.0  0.26286  0.34396  0.01932  1.0000
  C   C37       1.0  0.60754  0.67854  0.38778  1.0000
  C   C38       1.0  0.89246  0.32146  0.88778  1.0000
  C   C39       1.0  0.39247  0.32146  0.61222  1.0000
  C   C40       1.0  0.10753  0.67854  0.11222  1.0000
  C   C41       1.0  0.65835  0.92799  0.48513  1.0000
  C   C42       1.0  0.84165  0.07202  0.98513  1.0000
  C   C43       1.0  0.34165  0.07201  0.51487  1.0000
  C   C44       1.0  0.15834  0.92798  0.01487  1.0000
  C   C45       1.0  0.55514  0.79148  0.36052  1.0000
  C   C46       1.0  0.94486  0.20852  0.86052  1.0000
  C   C47       1.0  0.44486  0.20852  0.63948  1.0000
  C   C48       1.0  0.05514  0.79147  0.13948  1.0000
  C   C49       1.0  0.58186  0.91703  0.40918  1.0000
  C   C50       1.0  0.91814  0.08297  0.90918  1.0000
  C   C51       1.0  0.41814  0.08297  0.59082  1.0000
  C   C52       1.0  0.08186  0.91703  0.09082  1.0000
  C   C53       1.0  0.58598  0.54615  0.34068  1.0000
  C   C54       1.0  0.91402  0.45385  0.84068  1.0000
  C   C55       1.0  0.41402  0.45385  0.65932  1.0000
  C   C56       1.0  0.08598  0.54615  0.15932  1.0000
  N   N1        1.0  0.81900  0.61092  0.56855  1.0000
  N   N2        1.0  0.68100  0.38908  0.06855  1.0000
  N   N3        1.0  0.18100  0.38908  0.43145  1.0000
  N   N4        1.0  0.31899  0.61091  0.93145  1.0000
  N   N5        1.0  0.70728  0.82233  0.51317  1.0000
  N   N6        1.0  0.79272  0.17767  0.01317  1.0000
  N   N7        1.0  0.29272  0.17767  0.48683  1.0000
  N   N8        1.0  0.20728  0.82233  0.98683  1.0000
  O   O1        1.0  0.78089  0.76413  0.71697  1.0000
  O   O2        1.0  0.71911  0.23588  0.21698  1.0000
  O   O3        1.0  0.21912  0.23587  0.28303  1.0000
  O   O4        1.0  0.28088  0.76412  0.78302  1.0000
  O   O5        1.0  0.79370  0.03634  0.66185  1.0000
  O   O6        1.0  0.70630  0.96367  0.16184  1.0000
  O   O7        1.0  0.20630  0.96366  0.33816  1.0000
  O   O8        1.0  0.29369  0.03633  0.83816  1.0000
  O   O9        1.0  0.60407  0.76106  0.81401  1.0000
  O   O10       1.0  0.89592  0.23891  0.31402  1.0000
  O   O11       1.0  0.39593  0.23893  0.18599  1.0000
  O   O12       1.0  0.10408  0.76109  0.68598  1.0000
  O   O13       1.0  0.60137  0.02829  0.75395  1.0000
  O   O14       1.0  0.89862  0.97171  0.25395  1.0000
  O   O15       1.0  0.39862  0.97170  0.24605  1.0000
  O   O16       1.0  0.10138  0.02830  0.74605  1.0000
