data_image0
_chemical_formula_structural       Ag4H28C24I4N4
_chemical_formula_sum              "Ag4 H28 C24 I4 N4"
_cell_length_a       4.49596
_cell_length_b       10.6104
_cell_length_c       16.0986
_cell_angle_alpha    89.9997
_cell_angle_beta     90.0001
_cell_angle_gamma    90.0001

_space_group_name_H-M_alt    "P 1"
_space_group_IT_number       1

loop_
  _space_group_symop_operation_xyz
  'x, y, z'

loop_
  _atom_site_type_symbol
  _atom_site_label
  _atom_site_symmetry_multiplicity
  _atom_site_fract_x
  _atom_site_fract_y
  _atom_site_fract_z
  _atom_site_occupancy
  Ag  Ag1       1.0  0.38164  0.90540  0.74137  1.0000
  Ag  Ag2       1.0  0.88163  0.09460  0.75864  1.0000
  Ag  Ag3       1.0  0.61837  0.59459  0.24136  1.0000
  Ag  Ag4       1.0  0.11837  0.40540  0.25863  1.0000
  H   H1        1.0  0.64332  0.57345  0.49469  1.0000
  H   H2        1.0  0.14331  0.42655  0.00532  1.0000
  H   H3        1.0  0.35668  0.92655  0.99468  1.0000
  H   H4        1.0  0.85669  0.07346  0.50532  1.0000
  H   H5        1.0  0.33036  0.39652  0.55029  1.0000
  H   H6        1.0  0.83036  0.60348  0.94971  1.0000
  H   H7        1.0  0.66963  0.10348  0.05029  1.0000
  H   H8        1.0  0.16963  0.89652  0.44971  1.0000
  H   H9        1.0  0.03760  0.43206  0.68070  1.0000
  H   H10       1.0  0.53761  0.56794  0.81930  1.0000
  H   H11       1.0  0.96237  0.06795  0.18070  1.0000
  H   H12       1.0  0.46237  0.93205  0.31930  1.0000
  H   H13       1.0  0.06637  0.64432  0.74930  1.0000
  H   H14       1.0  0.56637  0.35568  0.75070  1.0000
  H   H15       1.0  0.93363  0.85568  0.24930  1.0000
  H   H16       1.0  0.43363  0.14431  0.25070  1.0000
  H   H17       1.0  0.56474  0.89049  0.55078  1.0000
  H   H18       1.0  0.06475  0.10951  0.94922  1.0000
  H   H19       1.0  0.43528  0.60950  0.05077  1.0000
  H   H20       1.0  0.93529  0.39050  0.44922  1.0000
  H   H21       1.0  0.87259  0.83603  0.60829  1.0000
  H   H22       1.0  0.37259  0.16397  0.89171  1.0000
  H   H23       1.0  0.12741  0.66397  0.10829  1.0000
  H   H24       1.0  0.62742  0.33603  0.39170  1.0000
  H   H25       1.0  0.81838  0.78096  0.50437  1.0000
  H   H26       1.0  0.31839  0.21904  0.99563  1.0000
  H   H27       1.0  0.18161  0.71903  0.00436  1.0000
  H   H28       1.0  0.68162  0.28097  0.49563  1.0000
  C   C1        1.0  0.52221  0.70010  0.59360  1.0000
  C   C2        1.0  0.02221  0.29990  0.90640  1.0000
  C   C3        1.0  0.47779  0.79989  0.09360  1.0000
  C   C4        1.0  0.97780  0.20011  0.40640  1.0000
  C   C5        1.0  0.70533  0.80747  0.56211  1.0000
  C   C6        1.0  0.20533  0.19253  0.93789  1.0000
  C   C7        1.0  0.29469  0.69254  0.06211  1.0000
  C   C8        1.0  0.79470  0.30746  0.43789  1.0000
  C   C9        1.0  0.51374  0.58472  0.55143  1.0000
  C   C10       1.0  0.01373  0.41528  0.94858  1.0000
  C   C11       1.0  0.48626  0.91527  0.05143  1.0000
  C   C12       1.0  0.98626  0.08474  0.44857  1.0000
  C   C13       1.0  0.33961  0.48695  0.58220  1.0000
  C   C14       1.0  0.83961  0.51304  0.91780  1.0000
  C   C15       1.0  0.66040  0.01305  0.08220  1.0000
  C   C16       1.0  0.16039  0.98695  0.41780  1.0000
  C   C17       1.0  0.17594  0.50625  0.65458  1.0000
  C   C18       1.0  0.67592  0.49375  0.84542  1.0000
  C   C19       1.0  0.82405  0.99375  0.15458  1.0000
  C   C20       1.0  0.32403  0.00625  0.34543  1.0000
  C   C21       1.0  0.19333  0.62334  0.69307  1.0000
  C   C22       1.0  0.69334  0.37666  0.80693  1.0000
  C   C23       1.0  0.80665  0.87667  0.19307  1.0000
  C   C24       1.0  0.30666  0.12333  0.30693  1.0000
  I   I1        1.0  0.88137  0.86681  0.85180  1.0000
  I   I2        1.0  0.38137  0.13320  0.64820  1.0000
  I   I3        1.0  0.11863  0.63319  0.35180  1.0000
  I   I4        1.0  0.61863  0.36680  0.14820  1.0000
  N   N1        1.0  0.36259  0.71819  0.66382  1.0000
  N   N2        1.0  0.86259  0.28181  0.83618  1.0000
  N   N3        1.0  0.63740  0.78181  0.16382  1.0000
  N   N4        1.0  0.13740  0.21819  0.33617  1.0000
