data_image0
_chemical_formula_structural       Ag4H28C36I4N4
_chemical_formula_sum              "Ag4 H28 C36 I4 N4"
_cell_length_a       4.38241
_cell_length_b       12.6058
_cell_length_c       16.479
_cell_angle_alpha    89.9998
_cell_angle_beta     90.0002
_cell_angle_gamma    95.6724

_space_group_name_H-M_alt    "P 1"
_space_group_IT_number       1

loop_
  _space_group_symop_operation_xyz
  'x, y, z'

loop_
  _atom_site_type_symbol
  _atom_site_label
  _atom_site_symmetry_multiplicity
  _atom_site_fract_x
  _atom_site_fract_y
  _atom_site_fract_z
  _atom_site_occupancy
  Ag  Ag1       1.0  0.24357  0.53076  0.43967  1.0000
  Ag  Ag2       1.0  0.25643  0.96924  0.93966  1.0000
  Ag  Ag3       1.0  0.75644  0.46924  0.56034  1.0000
  Ag  Ag4       1.0  0.74357  0.03076  0.06033  1.0000
  H   H1        1.0  0.75245  0.35337  0.38248  1.0000
  H   H2        1.0  0.74755  0.14663  0.88248  1.0000
  H   H3        1.0  0.24755  0.64663  0.61752  1.0000
  H   H4        1.0  0.25246  0.85337  0.11752  1.0000
  H   H5        1.0  0.52403  0.25920  0.25985  1.0000
  H   H6        1.0  0.97597  0.24080  0.75985  1.0000
  H   H7        1.0  0.47597  0.74080  0.74015  1.0000
  H   H8        1.0  0.02404  0.75920  0.24015  1.0000
  H   H9        1.0  0.72762  0.31230  0.12260  1.0000
  H   H10       1.0  0.77238  0.18770  0.62260  1.0000
  H   H11       1.0  0.27238  0.68770  0.87740  1.0000
  H   H12       1.0  0.22762  0.81230  0.37740  1.0000
  H   H13       1.0  0.08277  0.43521  0.03994  1.0000
  H   H14       1.0  0.41723  0.06479  0.53994  1.0000
  H   H15       1.0  0.91723  0.56479  0.96006  1.0000
  H   H16       1.0  0.58277  0.93521  0.46006  1.0000
  H   H17       1.0  0.47608  0.59264  0.03277  1.0000
  H   H18       1.0  0.02391  0.90736  0.53277  1.0000
  H   H19       1.0  0.52392  0.40736  0.96723  1.0000
  H   H20       1.0  0.97608  0.09264  0.46723  1.0000
  H   H21       1.0  0.67952  0.67925  0.15850  1.0000
  H   H22       1.0  0.82048  0.82075  0.65850  1.0000
  H   H23       1.0  0.32048  0.32075  0.84150  1.0000
  H   H24       1.0  0.17952  0.17925  0.34150  1.0000
  H   H25       1.0  0.48744  0.61326  0.29426  1.0000
  H   H26       1.0  0.01256  0.88674  0.79426  1.0000
  H   H27       1.0  0.51256  0.38674  0.70574  1.0000
  H   H28       1.0  0.98744  0.11326  0.20574  1.0000
  C   C1        1.0  0.83494  0.37678  0.32186  1.0000
  C   C2        1.0  0.66504  0.12322  0.82186  1.0000
  C   C3        1.0  0.16505  0.62322  0.67815  1.0000
  C   C4        1.0  0.33496  0.87678  0.17814  1.0000
  C   C5        1.0  0.70697  0.32343  0.25272  1.0000
  C   C6        1.0  0.79303  0.17657  0.75272  1.0000
  C   C7        1.0  0.29303  0.67657  0.74728  1.0000
  C   C8        1.0  0.20698  0.82343  0.24728  1.0000
  C   C9        1.0  0.81905  0.35286  0.17721  1.0000
  C   C10       1.0  0.68095  0.14714  0.67721  1.0000
  C   C11       1.0  0.18095  0.64714  0.82279  1.0000
  C   C12       1.0  0.31905  0.85286  0.32279  1.0000
  C   C13       1.0  0.17126  0.47559  0.09484  1.0000
  C   C14       1.0  0.32874  0.02441  0.59484  1.0000
  C   C15       1.0  0.82874  0.52441  0.90516  1.0000
  C   C16       1.0  0.67126  0.97559  0.40516  1.0000
  C   C17       1.0  0.39004  0.56187  0.09106  1.0000
  C   C18       1.0  0.10996  0.93813  0.59106  1.0000
  C   C19       1.0  0.60996  0.43813  0.90894  1.0000
  C   C20       1.0  0.89004  0.06187  0.40894  1.0000
  C   C21       1.0  0.50537  0.61155  0.16318  1.0000
  C   C22       1.0  0.99463  0.88845  0.66318  1.0000
  C   C23       1.0  0.49463  0.38845  0.83682  1.0000
  C   C24       1.0  0.00537  0.11155  0.33682  1.0000
  C   C25       1.0  0.39914  0.57579  0.23809  1.0000
  C   C26       1.0  0.10086  0.92421  0.73808  1.0000
  C   C27       1.0  0.60087  0.42421  0.76191  1.0000
  C   C28       1.0  0.89914  0.07579  0.26192  1.0000
  C   C29       1.0  0.05293  0.43805  0.17063  1.0000
  C   C30       1.0  0.44707  0.06195  0.67062  1.0000
  C   C31       1.0  0.94707  0.56195  0.82938  1.0000
  C   C32       1.0  0.55293  0.93806  0.32938  1.0000
  C   C33       1.0  0.16796  0.48928  0.24358  1.0000
  C   C34       1.0  0.33204  0.01071  0.74358  1.0000
  C   C35       1.0  0.83204  0.51071  0.75642  1.0000
  C   C36       1.0  0.66796  0.98929  0.25642  1.0000
  I   I1        1.0  0.76335  0.67218  0.47146  1.0000
  I   I2        1.0  0.73665  0.82782  0.97146  1.0000
  I   I3        1.0  0.23666  0.32782  0.52854  1.0000
  I   I4        1.0  0.26334  0.17218  0.02854  1.0000
  N   N1        1.0  0.05828  0.45594  0.31821  1.0000
  N   N2        1.0  0.44172  0.04406  0.81821  1.0000
  N   N3        1.0  0.94172  0.54406  0.68179  1.0000
  N   N4        1.0  0.55829  0.95594  0.18179  1.0000
