data_image0
_chemical_formula_structural       Ag4H28C24I4N4
_chemical_formula_sum              "Ag4 H28 C24 I4 N4"
_cell_length_a       4.68616
_cell_length_b       9.00659
_cell_length_c       18.5459
_cell_angle_alpha    86.374
_cell_angle_beta     89.9982
_cell_angle_gamma    89.9978

_space_group_name_H-M_alt    "P 1"
_space_group_IT_number       1

loop_
  _space_group_symop_operation_xyz
  'x, y, z'

loop_
  _atom_site_type_symbol
  _atom_site_label
  _atom_site_symmetry_multiplicity
  _atom_site_fract_x
  _atom_site_fract_y
  _atom_site_fract_z
  _atom_site_occupancy
  Ag  Ag1       1.0  0.15436  0.29155  0.29337  1.0000
  Ag  Ag2       1.0  0.65442  0.20811  0.20670  1.0000
  Ag  Ag3       1.0  0.84563  0.70844  0.70663  1.0000
  Ag  Ag4       1.0  0.34560  0.79189  0.79330  1.0000
  H   H1        1.0  0.82272  0.47823  0.41195  1.0000
  H   H2        1.0  0.32307  0.02158  0.08803  1.0000
  H   H3        1.0  0.17727  0.52176  0.58804  1.0000
  H   H4        1.0  0.67696  0.97845  0.91197  1.0000
  H   H5        1.0  0.15636  0.92552  0.40764  1.0000
  H   H6        1.0  0.65617  0.57412  0.09237  1.0000
  H   H7        1.0  0.84367  0.07445  0.59237  1.0000
  H   H8        1.0  0.34377  0.42588  0.90763  1.0000
  H   H9        1.0  0.47893  0.85904  0.30806  1.0000
  H   H10       1.0  0.97878  0.64049  0.19197  1.0000
  H   H11       1.0  0.52112  0.14093  0.69195  1.0000
  H   H12       1.0  0.02115  0.35948  0.80803  1.0000
  H   H13       1.0  0.46219  0.59916  0.26589  1.0000
  H   H14       1.0  0.96215  0.90039  0.23415  1.0000
  H   H15       1.0  0.53783  0.40081  0.73412  1.0000
  H   H16       1.0  0.03786  0.09959  0.76585  1.0000
  H   H17       1.0  0.59957  0.65837  0.48818  1.0000
  H   H18       1.0  0.09961  0.84145  0.01186  1.0000
  H   H19       1.0  0.40042  0.34163  0.51182  1.0000
  H   H20       1.0  0.90041  0.15863  0.98813  1.0000
  H   H21       1.0  0.89246  0.73946  0.53192  1.0000
  H   H22       1.0  0.39241  0.76043  0.96807  1.0000
  H   H23       1.0  0.10754  0.26054  0.46808  1.0000
  H   H24       1.0  0.60764  0.23965  0.03192  1.0000
  H   H25       1.0  0.67757  0.85109  0.47194  1.0000
  H   H26       1.0  0.17762  0.64874  0.02803  1.0000
  H   H27       1.0  0.32246  0.14891  0.52805  1.0000
  H   H28       1.0  0.82235  0.35132  0.97194  1.0000
  C   C1        1.0  0.96847  0.56583  0.39131  1.0000
  C   C2        1.0  0.46872  0.93392  0.10870  1.0000
  C   C3        1.0  0.03152  0.43416  0.60869  1.0000
  C   C4        1.0  0.53130  0.06609  0.89130  1.0000
  C   C5        1.0  0.96504  0.70630  0.41964  1.0000
  C   C6        1.0  0.46512  0.79347  0.08039  1.0000
  C   C7        1.0  0.03498  0.29369  0.58037  1.0000
  C   C8        1.0  0.53486  0.20657  0.91962  1.0000
  C   C9        1.0  0.77251  0.73994  0.48088  1.0000
  C   C10       1.0  0.27257  0.75989  0.01913  1.0000
  C   C11       1.0  0.22748  0.26006  0.51913  1.0000
  C   C12       1.0  0.72745  0.24017  0.98086  1.0000
  C   C13       1.0  0.15200  0.81344  0.38848  1.0000
  C   C14       1.0  0.65192  0.68623  0.11154  1.0000
  C   C15       1.0  0.84805  0.18653  0.61153  1.0000
  C   C16       1.0  0.34802  0.31378  0.88846  1.0000
  C   C17       1.0  0.33201  0.77685  0.33257  1.0000
  C   C18       1.0  0.83195  0.72273  0.16745  1.0000
  C   C19       1.0  0.66802  0.22313  0.66744  1.0000
  C   C20       1.0  0.16801  0.27724  0.83255  1.0000
  C   C21       1.0  0.32351  0.63320  0.30912  1.0000
  C   C22       1.0  0.82354  0.86638  0.19091  1.0000
  C   C23       1.0  0.67650  0.36678  0.69088  1.0000
  C   C24       1.0  0.17642  0.13360  0.80909  1.0000
  I   I1        1.0  0.15991  0.33972  0.13934  1.0000
  I   I2        1.0  0.65978  0.15997  0.36074  1.0000
  I   I3        1.0  0.84008  0.66030  0.86066  1.0000
  I   I4        1.0  0.34021  0.84001  0.63926  1.0000
  N   N1        1.0  0.14336  0.52929  0.33778  1.0000
  N   N2        1.0  0.64355  0.97039  0.16224  1.0000
  N   N3        1.0  0.85666  0.47069  0.66222  1.0000
  N   N4        1.0  0.35643  0.02960  0.83776  1.0000
