data_image0
_chemical_formula_structural       Cu2H12C16N20
_chemical_formula_sum              "Cu2 H12 C16 N20"
_cell_length_a       5.03126
_cell_length_b       10.2742
_cell_length_c       11.4988
_cell_angle_alpha    67.9719
_cell_angle_beta     83.93
_cell_angle_gamma    87.0548

_space_group_name_H-M_alt    "P 1"
_space_group_IT_number       1

loop_
  _space_group_symop_operation_xyz
  'x, y, z'

loop_
  _atom_site_type_symbol
  _atom_site_label
  _atom_site_symmetry_multiplicity
  _atom_site_fract_x
  _atom_site_fract_y
  _atom_site_fract_z
  _atom_site_occupancy
  Cu  Cu1       1.0  0.55415  0.17165  0.24026  1.0000
  Cu  Cu2       1.0  0.44585  0.82835  0.75974  1.0000
  H   H1        1.0  0.10608  0.63316  0.37483  1.0000
  H   H2        1.0  0.89394  0.36684  0.62518  1.0000
  H   H3        1.0  0.67042  0.64371  0.50584  1.0000
  H   H4        1.0  0.32959  0.35630  0.49416  1.0000
  H   H5        1.0  0.42432  0.87847  0.44323  1.0000
  H   H6        1.0  0.57567  0.12153  0.55677  1.0000
  H   H7        1.0  0.48129  0.19713  0.88273  1.0000
  H   H8        1.0  0.51872  0.80287  0.11728  1.0000
  H   H9        1.0  0.18765  0.41630  0.83550  1.0000
  H   H10       1.0  0.81234  0.58370  0.16450  1.0000
  H   H11       1.0  0.78256  0.40648  0.99297  1.0000
  H   H12       1.0  0.21743  0.59351  0.00703  1.0000
  C   C1        1.0  0.93782  0.95894  0.22854  1.0000
  C   C2        1.0  0.06218  0.04106  0.77146  1.0000
  C   C3        1.0  0.98624  0.72935  0.35451  1.0000
  C   C4        1.0  0.01377  0.27065  0.64549  1.0000
  C   C5        1.0  0.74625  0.73459  0.42532  1.0000
  C   C6        1.0  0.25376  0.26541  0.57468  1.0000
  C   C7        1.0  0.61018  0.86283  0.39196  1.0000
  C   C8        1.0  0.38981  0.13717  0.60804  1.0000
  C   C9        1.0  0.02247  0.08640  0.11837  1.0000
  C   C10       1.0  0.97754  0.91360  0.88163  1.0000
  C   C11       1.0  0.30108  0.20136  0.94373  1.0000
  C   C12       1.0  0.69892  0.79864  0.05627  1.0000
  C   C13       1.0  0.14091  0.32225  0.91839  1.0000
  C   C14       1.0  0.85908  0.67775  0.08161  1.0000
  C   C15       1.0  0.91825  0.31729  0.00251  1.0000
  C   C16       1.0  0.08173  0.68270  0.99749  1.0000
  N   N1        1.0  0.83916  0.23663  0.36515  1.0000
  N   N2        1.0  0.16084  0.76336  0.63485  1.0000
  N   N3        1.0  0.04280  0.17520  0.36563  1.0000
  N   N4        1.0  0.95720  0.82480  0.63437  1.0000
  N   N5        1.0  0.24521  0.10779  0.36878  1.0000
  N   N6        1.0  0.75479  0.89221  0.63121  1.0000
  N   N7        1.0  0.41369  0.36397  0.16083  1.0000
  N   N8        1.0  0.58630  0.63603  0.83917  1.0000
  N   N9        1.0  0.38950  0.43438  0.22482  1.0000
  N   N10       1.0  0.61049  0.56562  0.77518  1.0000
  N   N11       1.0  0.36623  0.50774  0.28245  1.0000
  N   N12       1.0  0.63376  0.49226  0.71755  1.0000
  N   N13       1.0  0.70608  0.97437  0.29347  1.0000
  N   N14       1.0  0.29392  0.02563  0.70653  1.0000
  N   N15       1.0  0.08264  0.84092  0.25542  1.0000
  N   N16       1.0  0.91736  0.15908  0.74458  1.0000
  N   N17       1.0  0.85838  0.19907  0.10197  1.0000
  N   N18       1.0  0.14162  0.80093  0.89803  1.0000
  N   N19       1.0  0.24244  0.08328  0.04398  1.0000
  N   N20       1.0  0.75757  0.91672  0.95602  1.0000
