data_image0
_chemical_formula_structural       Ho4H28C36S6O32
_chemical_formula_sum              "Ho4 H28 C36 S6 O32"
_cell_length_a       5.74056
_cell_length_b       12.8599
_cell_length_c       15.9425
_cell_angle_alpha    80.5989
_cell_angle_beta     79.6749
_cell_angle_gamma    77.1092

_space_group_name_H-M_alt    "P 1"
_space_group_IT_number       1

loop_
  _space_group_symop_operation_xyz
  'x, y, z'

loop_
  _atom_site_type_symbol
  _atom_site_label
  _atom_site_symmetry_multiplicity
  _atom_site_fract_x
  _atom_site_fract_y
  _atom_site_fract_z
  _atom_site_occupancy
  Ho  Ho1       1.0  0.97567  0.84762  0.88743  1.0000
  Ho  Ho2       1.0  0.71026  0.65246  0.61264  1.0000
  Ho  Ho3       1.0  0.02433  0.15238  0.11257  1.0000
  Ho  Ho4       1.0  0.28974  0.34754  0.38736  1.0000
  H   H1        1.0  0.05584  0.68065  0.08776  1.0000
  H   H2        1.0  0.82313  0.81973  0.41218  1.0000
  H   H3        1.0  0.94417  0.31935  0.91224  1.0000
  H   H4        1.0  0.17687  0.18027  0.58782  1.0000
  H   H5        1.0  0.13074  0.49373  0.18918  1.0000
  H   H6        1.0  0.81316  0.00650  0.31070  1.0000
  H   H7        1.0  0.86928  0.50627  0.81083  1.0000
  H   H8        1.0  0.18684  0.99350  0.68929  1.0000
  H   H9        1.0  0.24166  0.15240  0.79507  1.0000
  H   H10       1.0  0.18868  0.34804  0.70499  1.0000
  H   H11       1.0  0.75834  0.84760  0.20493  1.0000
  H   H12       1.0  0.81131  0.65196  0.29501  1.0000
  H   H13       1.0  0.43959  0.91101  0.81659  1.0000
  H   H14       1.0  0.16684  0.58893  0.68354  1.0000
  H   H15       1.0  0.56041  0.08899  0.18341  1.0000
  H   H16       1.0  0.83316  0.41106  0.31645  1.0000
  H   H17       1.0  0.42098  0.81605  0.76566  1.0000
  H   H18       1.0  0.00258  0.68371  0.73462  1.0000
  H   H19       1.0  0.57901  0.18396  0.23434  1.0000
  H   H20       1.0  0.99743  0.31628  0.26538  1.0000
  H   H21       1.0  0.94542  0.91632  0.06070  1.0000
  H   H22       1.0  0.92202  0.58381  0.43947  1.0000
  H   H23       1.0  0.05457  0.08368  0.93931  1.0000
  H   H24       1.0  0.07797  0.41619  0.56053  1.0000
  H   H25       1.0  0.67385  0.95370  0.04909  1.0000
  H   H26       1.0  0.67672  0.54611  0.45084  1.0000
  H   H27       1.0  0.32614  0.04630  0.95090  1.0000
  H   H28       1.0  0.32326  0.45389  0.54916  1.0000
  C   C1        1.0  0.47012  0.74783  0.98134  1.0000
  C   C2        1.0  0.19856  0.75231  0.51878  1.0000
  C   C3        1.0  0.52988  0.25217  0.01866  1.0000
  C   C4        1.0  0.80145  0.24769  0.48122  1.0000
  C   C5        1.0  0.44310  0.65146  0.04340  1.0000
  C   C6        1.0  0.13731  0.84862  0.45663  1.0000
  C   C7        1.0  0.55690  0.34854  0.95660  1.0000
  C   C8        1.0  0.86269  0.15138  0.54337  1.0000
  C   C9        1.0  0.23099  0.62766  0.09200  1.0000
  C   C10       1.0  0.94983  0.87257  0.40799  1.0000
  C   C11       1.0  0.76903  0.37234  0.90801  1.0000
  C   C12       1.0  0.05016  0.12743  0.59201  1.0000
  C   C13       1.0  0.26972  0.52912  0.14578  1.0000
  C   C14       1.0  0.94411  0.97105  0.35417  1.0000
  C   C15       1.0  0.73029  0.47088  0.85423  1.0000
  C   C16       1.0  0.05588  0.02895  0.64583  1.0000
  C   C17       1.0  0.51166  0.47849  0.13666  1.0000
  C   C18       1.0  0.12673  0.02149  0.36328  1.0000
  C   C19       1.0  0.48835  0.52151  0.86334  1.0000
  C   C20       1.0  0.87327  0.97851  0.63672  1.0000
  C   C21       1.0  0.62082  0.37178  0.17769  1.0000
  C   C22       1.0  0.17052  0.12816  0.32226  1.0000
  C   C23       1.0  0.37918  0.62822  0.82232  1.0000
  C   C24       1.0  0.82947  0.87184  0.67774  1.0000
  C   C25       1.0  0.72109  0.05853  0.83982  1.0000
  C   C26       1.0  0.61953  0.44159  0.65998  1.0000
  C   C27       1.0  0.27891  0.94147  0.16018  1.0000
  C   C28       1.0  0.38046  0.55841  0.34002  1.0000
  C   C29       1.0  0.61763  0.16085  0.79258  1.0000
  C   C30       1.0  0.57104  0.33931  0.70715  1.0000
  C   C31       1.0  0.38237  0.83915  0.20742  1.0000
  C   C32       1.0  0.42895  0.66069  0.29285  1.0000
  C   C33       1.0  0.38307  0.19888  0.77413  1.0000
  C   C34       1.0  0.35586  0.30147  0.72581  1.0000
  C   C35       1.0  0.61693  0.80112  0.22587  1.0000
  C   C36       1.0  0.64413  0.69853  0.27419  1.0000
  S   S1        1.0  0.68896  0.55118  0.06174  1.0000
  S   S2        1.0  0.30167  0.94870  0.43828  1.0000
  S   S3        1.0  0.31105  0.44883  0.93826  1.0000
  S   S4        1.0  0.69833  0.05130  0.56172  1.0000
  S   S5        1.0  0.80073  0.25001  0.74980  1.0000
  S   S6        1.0  0.19926  0.74999  0.25020  1.0000
  O   O1        1.0  0.32914  0.88106  0.79073  1.0000
  O   O2        1.0  0.00071  0.61872  0.70948  1.0000
  O   O3        1.0  0.67085  0.11894  0.20927  1.0000
  O   O4        1.0  0.99929  0.38127  0.29052  1.0000
  O   O5        1.0  0.68181  0.75433  0.94256  1.0000
  O   O6        1.0  0.37807  0.74583  0.55759  1.0000
  O   O7        1.0  0.31819  0.24567  0.05744  1.0000
  O   O8        1.0  0.62194  0.25417  0.44240  1.0000
  O   O9        1.0  0.82763  0.91073  0.02449  1.0000
  O   O10       1.0  0.76246  0.58923  0.47554  1.0000
  O   O11       1.0  0.17235  0.08928  0.97551  1.0000
  O   O12       1.0  0.23752  0.41077  0.52446  1.0000
  O   O13       1.0  0.27934  0.81867  0.97001  1.0000
  O   O14       1.0  0.06717  0.68153  0.53016  1.0000
  O   O15       1.0  0.72065  0.18132  0.02998  1.0000
  O   O16       1.0  0.93284  0.31846  0.46984  1.0000
  O   O17       1.0  0.81501  0.32238  0.13717  1.0000
  O   O18       1.0  0.27483  0.17752  0.36286  1.0000
  O   O19       1.0  0.18499  0.67761  0.86283  1.0000
  O   O20       1.0  0.72517  0.82248  0.63714  1.0000
  O   O21       1.0  0.51792  0.33318  0.25066  1.0000
  O   O22       1.0  0.10213  0.16677  0.24922  1.0000
  O   O23       1.0  0.48208  0.66682  0.74934  1.0000
  O   O24       1.0  0.89788  0.83323  0.75078  1.0000
  O   O25       1.0  0.59406  0.98614  0.86848  1.0000
  O   O26       1.0  0.44869  0.51411  0.63144  1.0000
  O   O27       1.0  0.40594  0.01385  0.13152  1.0000
  O   O28       1.0  0.55131  0.48589  0.36855  1.0000
  O   O29       1.0  0.94392  0.03987  0.85046  1.0000
  O   O30       1.0  0.83437  0.46013  0.64933  1.0000
  O   O31       1.0  0.05608  0.96013  0.14954  1.0000
  O   O32       1.0  0.16563  0.53987  0.35067  1.0000
