data_image0
_chemical_formula_structural       Er4H28C36S6O32
_chemical_formula_sum              "Er4 H28 C36 S6 O32"
_cell_length_a       5.7285
_cell_length_b       12.8406
_cell_length_c       15.9383
_cell_angle_alpha    80.5885
_cell_angle_beta     79.7167
_cell_angle_gamma    77.12

_space_group_name_H-M_alt    "P 1"
_space_group_IT_number       1

loop_
  _space_group_symop_operation_xyz
  'x, y, z'

loop_
  _atom_site_type_symbol
  _atom_site_label
  _atom_site_symmetry_multiplicity
  _atom_site_fract_x
  _atom_site_fract_y
  _atom_site_fract_z
  _atom_site_occupancy
  Er  Er1       1.0  0.97617  0.84756  0.88719  1.0000
  Er  Er2       1.0  0.71044  0.65247  0.61294  1.0000
  Er  Er3       1.0  0.02383  0.15244  0.11281  1.0000
  Er  Er4       1.0  0.28956  0.34753  0.38706  1.0000
  H   H1        1.0  0.05558  0.68047  0.08678  1.0000
  H   H2        1.0  0.82189  0.81980  0.41297  1.0000
  H   H3        1.0  0.94442  0.31953  0.91323  1.0000
  H   H4        1.0  0.17811  0.18020  0.58703  1.0000
  H   H5        1.0  0.13048  0.49347  0.18860  1.0000
  H   H6        1.0  0.81234  0.00670  0.31114  1.0000
  H   H7        1.0  0.86951  0.50653  0.81140  1.0000
  H   H8        1.0  0.18766  0.99330  0.68886  1.0000
  H   H9        1.0  0.24256  0.15217  0.79503  1.0000
  H   H10       1.0  0.19003  0.34845  0.70470  1.0000
  H   H11       1.0  0.75743  0.84783  0.20497  1.0000
  H   H12       1.0  0.80997  0.65155  0.29529  1.0000
  H   H13       1.0  0.43873  0.91070  0.81674  1.0000
  H   H14       1.0  0.16586  0.58929  0.68351  1.0000
  H   H15       1.0  0.56127  0.08930  0.18326  1.0000
  H   H16       1.0  0.83414  0.41072  0.31649  1.0000
  H   H17       1.0  0.41931  0.81579  0.76548  1.0000
  H   H18       1.0  0.00051  0.68405  0.73485  1.0000
  H   H19       1.0  0.58068  0.18421  0.23452  1.0000
  H   H20       1.0  0.99949  0.31595  0.26515  1.0000
  H   H21       1.0  0.94559  0.91635  0.06016  1.0000
  H   H22       1.0  0.92115  0.58375  0.44001  1.0000
  H   H23       1.0  0.05441  0.08365  0.93984  1.0000
  H   H24       1.0  0.07884  0.41625  0.55998  1.0000
  H   H25       1.0  0.67421  0.95322  0.04808  1.0000
  H   H26       1.0  0.67515  0.54648  0.45183  1.0000
  H   H27       1.0  0.32579  0.04679  0.95192  1.0000
  H   H28       1.0  0.32485  0.45351  0.54817  1.0000
  C   C1        1.0  0.47119  0.74778  0.98080  1.0000
  C   C2        1.0  0.19889  0.75223  0.51935  1.0000
  C   C3        1.0  0.52881  0.25222  0.01920  1.0000
  C   C4        1.0  0.80111  0.24776  0.48065  1.0000
  C   C5        1.0  0.44400  0.65134  0.04295  1.0000
  C   C6        1.0  0.13768  0.84859  0.45705  1.0000
  C   C7        1.0  0.55600  0.34866  0.95706  1.0000
  C   C8        1.0  0.86232  0.15141  0.54295  1.0000
  C   C9        1.0  0.23118  0.62760  0.09139  1.0000
  C   C10       1.0  0.94961  0.87249  0.40844  1.0000
  C   C11       1.0  0.76882  0.37240  0.90862  1.0000
  C   C12       1.0  0.05040  0.12751  0.59156  1.0000
  C   C13       1.0  0.26982  0.52905  0.14539  1.0000
  C   C14       1.0  0.94397  0.97105  0.35447  1.0000
  C   C15       1.0  0.73018  0.47095  0.85462  1.0000
  C   C16       1.0  0.05604  0.02895  0.64553  1.0000
  C   C17       1.0  0.51215  0.47831  0.13664  1.0000
  C   C18       1.0  0.12714  0.02161  0.36332  1.0000
  C   C19       1.0  0.48786  0.52169  0.86336  1.0000
  C   C20       1.0  0.87286  0.97840  0.63668  1.0000
  C   C21       1.0  0.62135  0.37149  0.17795  1.0000
  C   C22       1.0  0.17115  0.12836  0.32201  1.0000
  C   C23       1.0  0.37865  0.62851  0.82206  1.0000
  C   C24       1.0  0.82886  0.87165  0.67799  1.0000
  C   C25       1.0  0.72252  0.05805  0.83995  1.0000
  C   C26       1.0  0.62126  0.44199  0.66005  1.0000
  C   C27       1.0  0.27747  0.94195  0.16005  1.0000
  C   C28       1.0  0.37874  0.55801  0.33994  1.0000
  C   C29       1.0  0.61927  0.16065  0.79266  1.0000
  C   C30       1.0  0.57308  0.33940  0.70718  1.0000
  C   C31       1.0  0.38072  0.83935  0.20734  1.0000
  C   C32       1.0  0.42692  0.66060  0.29282  1.0000
  C   C33       1.0  0.38429  0.19880  0.77403  1.0000
  C   C34       1.0  0.35725  0.30159  0.72573  1.0000
  C   C35       1.0  0.61571  0.80121  0.22597  1.0000
  C   C36       1.0  0.64275  0.69841  0.27427  1.0000
  S   S1        1.0  0.69008  0.55102  0.06175  1.0000
  S   S2        1.0  0.30258  0.94877  0.43837  1.0000
  S   S3        1.0  0.30992  0.44898  0.93826  1.0000
  S   S4        1.0  0.69741  0.05124  0.56164  1.0000
  S   S5        1.0  0.80289  0.24988  0.74995  1.0000
  S   S6        1.0  0.19711  0.75012  0.25005  1.0000
  O   O1        1.0  0.32797  0.88092  0.79072  1.0000
  O   O2        1.0  0.99944  0.61896  0.70953  1.0000
  O   O3        1.0  0.67203  0.11908  0.20928  1.0000
  O   O4        1.0  0.00056  0.38104  0.29047  1.0000
  O   O5        1.0  0.68337  0.75443  0.94221  1.0000
  O   O6        1.0  0.37921  0.74556  0.55802  1.0000
  O   O7        1.0  0.31664  0.24556  0.05779  1.0000
  O   O8        1.0  0.62079  0.25444  0.44198  1.0000
  O   O9        1.0  0.82846  0.91016  0.02378  1.0000
  O   O10       1.0  0.76151  0.58972  0.47626  1.0000
  O   O11       1.0  0.17154  0.08984  0.97622  1.0000
  O   O12       1.0  0.23849  0.41028  0.52374  1.0000
  O   O13       1.0  0.27968  0.81842  0.96926  1.0000
  O   O14       1.0  0.06623  0.68170  0.53091  1.0000
  O   O15       1.0  0.72033  0.18158  0.03074  1.0000
  O   O16       1.0  0.93376  0.31830  0.46909  1.0000
  O   O17       1.0  0.81577  0.32192  0.13746  1.0000
  O   O18       1.0  0.27545  0.17794  0.36260  1.0000
  O   O19       1.0  0.18423  0.67808  0.86255  1.0000
  O   O20       1.0  0.72456  0.82206  0.63741  1.0000
  O   O21       1.0  0.51850  0.33289  0.25100  1.0000
  O   O22       1.0  0.10302  0.16686  0.24882  1.0000
  O   O23       1.0  0.48150  0.66711  0.74900  1.0000
  O   O24       1.0  0.89698  0.83315  0.75118  1.0000
  O   O25       1.0  0.59509  0.98559  0.86844  1.0000
  O   O26       1.0  0.44975  0.51467  0.63173  1.0000
  O   O27       1.0  0.40490  0.01441  0.13156  1.0000
  O   O28       1.0  0.55026  0.48533  0.36826  1.0000
  O   O29       1.0  0.94575  0.03911  0.85081  1.0000
  O   O30       1.0  0.83647  0.46075  0.64911  1.0000
  O   O31       1.0  0.05424  0.96089  0.14918  1.0000
  O   O32       1.0  0.16353  0.53924  0.35089  1.0000
