data_image0
_chemical_formula_structural       Dy4H28C36S6O32
_chemical_formula_sum              "Dy4 H28 C36 S6 O32"
_cell_length_a       5.75353
_cell_length_b       12.8811
_cell_length_c       15.9928
_cell_angle_alpha    80.585
_cell_angle_beta     79.7014
_cell_angle_gamma    77.1035

_space_group_name_H-M_alt    "P 1"
_space_group_IT_number       1

loop_
  _space_group_symop_operation_xyz
  'x, y, z'

loop_
  _atom_site_type_symbol
  _atom_site_label
  _atom_site_symmetry_multiplicity
  _atom_site_fract_x
  _atom_site_fract_y
  _atom_site_fract_z
  _atom_site_occupancy
  Dy  Dy1       1.0  0.97439  0.84735  0.88780  1.0000
  Dy  Dy2       1.0  0.70887  0.65265  0.61226  1.0000
  Dy  Dy3       1.0  0.02560  0.15265  0.11219  1.0000
  Dy  Dy4       1.0  0.29114  0.34735  0.38774  1.0000
  H   H1        1.0  0.05522  0.67913  0.08760  1.0000
  H   H2        1.0  0.82090  0.82132  0.41199  1.0000
  H   H3        1.0  0.94477  0.32087  0.91240  1.0000
  H   H4        1.0  0.17910  0.17868  0.58801  1.0000
  H   H5        1.0  0.13144  0.49247  0.18868  1.0000
  H   H6        1.0  0.81224  0.00796  0.31102  1.0000
  H   H7        1.0  0.86856  0.50753  0.81132  1.0000
  H   H8        1.0  0.18776  0.99204  0.68898  1.0000
  H   H9        1.0  0.24260  0.15238  0.79501  1.0000
  H   H10       1.0  0.18992  0.34788  0.70496  1.0000
  H   H11       1.0  0.75740  0.84762  0.20499  1.0000
  H   H12       1.0  0.81008  0.65212  0.29504  1.0000
  H   H13       1.0  0.43941  0.91090  0.81677  1.0000
  H   H14       1.0  0.16673  0.58906  0.68340  1.0000
  H   H15       1.0  0.56059  0.08910  0.18323  1.0000
  H   H16       1.0  0.83327  0.41094  0.31661  1.0000
  H   H17       1.0  0.42071  0.81584  0.76617  1.0000
  H   H18       1.0  0.00257  0.68399  0.73405  1.0000
  H   H19       1.0  0.57929  0.18416  0.23383  1.0000
  H   H20       1.0  0.99743  0.31601  0.26595  1.0000
  H   H21       1.0  0.94442  0.91650  0.06102  1.0000
  H   H22       1.0  0.92123  0.58358  0.43922  1.0000
  H   H23       1.0  0.05558  0.08350  0.93898  1.0000
  H   H24       1.0  0.07877  0.41642  0.56079  1.0000
  H   H25       1.0  0.67322  0.95390  0.04988  1.0000
  H   H26       1.0  0.67687  0.54577  0.45003  1.0000
  H   H27       1.0  0.32678  0.04610  0.95012  1.0000
  H   H28       1.0  0.32313  0.45422  0.54998  1.0000
  C   C1        1.0  0.46858  0.74706  0.98204  1.0000
  C   C2        1.0  0.19656  0.75300  0.51787  1.0000
  C   C3        1.0  0.53141  0.25294  0.01796  1.0000
  C   C4        1.0  0.80344  0.24700  0.48213  1.0000
  C   C5        1.0  0.44194  0.65073  0.04380  1.0000
  C   C6        1.0  0.13568  0.84930  0.45607  1.0000
  C   C7        1.0  0.55806  0.34927  0.95620  1.0000
  C   C8        1.0  0.86432  0.15069  0.54394  1.0000
  C   C9        1.0  0.23036  0.62663  0.09206  1.0000
  C   C10       1.0  0.94822  0.87369  0.40767  1.0000
  C   C11       1.0  0.76964  0.37337  0.90794  1.0000
  C   C12       1.0  0.05178  0.12631  0.59233  1.0000
  C   C13       1.0  0.26970  0.52822  0.14563  1.0000
  C   C14       1.0  0.94314  0.97209  0.35416  1.0000
  C   C15       1.0  0.73029  0.47178  0.85437  1.0000
  C   C16       1.0  0.05686  0.02791  0.64584  1.0000
  C   C17       1.0  0.51128  0.47806  0.13674  1.0000
  C   C18       1.0  0.12607  0.02201  0.36317  1.0000
  C   C19       1.0  0.48872  0.52194  0.86326  1.0000
  C   C20       1.0  0.87393  0.97800  0.63684  1.0000
  C   C21       1.0  0.62121  0.37170  0.17776  1.0000
  C   C22       1.0  0.17107  0.12829  0.32215  1.0000
  C   C23       1.0  0.37878  0.62830  0.82224  1.0000
  C   C24       1.0  0.82894  0.87171  0.67785  1.0000
  C   C25       1.0  0.72084  0.05873  0.83976  1.0000
  C   C26       1.0  0.61956  0.44129  0.66029  1.0000
  C   C27       1.0  0.27916  0.94128  0.16024  1.0000
  C   C28       1.0  0.38044  0.55871  0.33971  1.0000
  C   C29       1.0  0.61773  0.16091  0.79253  1.0000
  C   C30       1.0  0.57124  0.33913  0.70743  1.0000
  C   C31       1.0  0.38228  0.83909  0.20747  1.0000
  C   C32       1.0  0.42876  0.66087  0.29257  1.0000
  C   C33       1.0  0.38368  0.19885  0.77407  1.0000
  C   C34       1.0  0.35655  0.30132  0.72590  1.0000
  C   C35       1.0  0.61632  0.80114  0.22592  1.0000
  C   C36       1.0  0.64346  0.69869  0.27410  1.0000
  S   S1        1.0  0.68777  0.55095  0.06222  1.0000
  S   S2        1.0  0.30073  0.94886  0.43779  1.0000
  S   S3        1.0  0.31222  0.44905  0.93778  1.0000
  S   S4        1.0  0.69926  0.05114  0.56221  1.0000
  S   S5        1.0  0.80040  0.24996  0.74998  1.0000
  S   S6        1.0  0.19960  0.75005  0.25002  1.0000
  O   O1        1.0  0.32929  0.88076  0.79119  1.0000
  O   O2        1.0  0.00099  0.61912  0.70894  1.0000
  O   O3        1.0  0.67071  0.11924  0.20881  1.0000
  O   O4        1.0  0.99902  0.38088  0.29106  1.0000
  O   O5        1.0  0.67957  0.75389  0.94336  1.0000
  O   O6        1.0  0.37602  0.74599  0.55656  1.0000
  O   O7        1.0  0.32043  0.24610  0.05664  1.0000
  O   O8        1.0  0.62398  0.25401  0.44343  1.0000
  O   O9        1.0  0.82661  0.91137  0.02492  1.0000
  O   O10       1.0  0.76232  0.58838  0.47519  1.0000
  O   O11       1.0  0.17339  0.08863  0.97508  1.0000
  O   O12       1.0  0.23768  0.41161  0.52481  1.0000
  O   O13       1.0  0.27797  0.81767  0.97089  1.0000
  O   O14       1.0  0.06495  0.68257  0.52907  1.0000
  O   O15       1.0  0.72202  0.18233  0.02910  1.0000
  O   O16       1.0  0.93505  0.31743  0.47093  1.0000
  O   O17       1.0  0.81549  0.32281  0.13747  1.0000
  O   O18       1.0  0.27643  0.17714  0.36251  1.0000
  O   O19       1.0  0.18450  0.67719  0.86254  1.0000
  O   O20       1.0  0.72358  0.82286  0.63749  1.0000
  O   O21       1.0  0.51896  0.33294  0.25049  1.0000
  O   O22       1.0  0.10269  0.16705  0.24939  1.0000
  O   O23       1.0  0.48104  0.66706  0.74951  1.0000
  O   O24       1.0  0.89732  0.83294  0.75061  1.0000
  O   O25       1.0  0.59358  0.98660  0.86840  1.0000
  O   O26       1.0  0.44875  0.51354  0.63168  1.0000
  O   O27       1.0  0.40642  0.01340  0.13160  1.0000
  O   O28       1.0  0.55125  0.48646  0.36832  1.0000
  O   O29       1.0  0.94313  0.04006  0.85038  1.0000
  O   O30       1.0  0.83380  0.45983  0.64964  1.0000
  O   O31       1.0  0.05687  0.95995  0.14962  1.0000
  O   O32       1.0  0.16621  0.54017  0.35036  1.0000
