data_image0
_chemical_formula_structural       Hg6H28C28I12N8O4
_chemical_formula_sum              "Hg6 H28 C28 I12 N8 O4"
_cell_length_a       5.00973
_cell_length_b       13.668
_cell_length_c       19.9415
_cell_angle_alpha    90.0001
_cell_angle_beta     93.2309
_cell_angle_gamma    90

_space_group_name_H-M_alt    "P 1"
_space_group_IT_number       1

loop_
  _space_group_symop_operation_xyz
  'x, y, z'

loop_
  _atom_site_type_symbol
  _atom_site_label
  _atom_site_symmetry_multiplicity
  _atom_site_fract_x
  _atom_site_fract_y
  _atom_site_fract_z
  _atom_site_occupancy
  Hg  Hg1       1.0  0.52093  0.33463  0.35014  1.0000
  Hg  Hg2       1.0  0.47907  0.83462  0.14986  1.0000
  Hg  Hg3       1.0  0.47907  0.66538  0.64986  1.0000
  Hg  Hg4       1.0  0.52093  0.16537  0.85014  1.0000
  Hg  Hg5       1.0  0.00000  0.50000  0.50000  1.0000
  Hg  Hg6       1.0  1.00000  1.00000  1.00000  1.0000
  H   H1        1.0  0.14279  0.44107  0.03965  1.0000
  H   H2        1.0  0.85722  0.94107  0.46035  1.0000
  H   H3        1.0  0.85722  0.55893  0.96035  1.0000
  H   H4        1.0  0.14279  0.05893  0.53965  1.0000
  H   H5        1.0  0.78022  0.19076  0.24409  1.0000
  H   H6        1.0  0.21977  0.69076  0.25591  1.0000
  H   H7        1.0  0.21977  0.80924  0.75591  1.0000
  H   H8        1.0  0.78022  0.30924  0.74409  1.0000
  H   H9        1.0  0.09780  0.18427  0.15186  1.0000
  H   H10       1.0  0.90219  0.68427  0.34814  1.0000
  H   H11       1.0  0.90219  0.81573  0.84814  1.0000
  H   H12       1.0  0.09780  0.31573  0.65186  1.0000
  H   H13       1.0  0.19423  0.49720  0.17298  1.0000
  H   H14       1.0  0.80577  0.99720  0.32702  1.0000
  H   H15       1.0  0.80577  0.50280  0.82702  1.0000
  H   H16       1.0  0.19423  0.00280  0.67298  1.0000
  H   H17       1.0  0.87333  0.49074  0.26445  1.0000
  H   H18       1.0  0.12668  0.99074  0.23555  1.0000
  H   H19       1.0  0.12668  0.50926  0.73555  1.0000
  H   H20       1.0  0.87333  0.00926  0.76445  1.0000
  H   H21       1.0  0.57713  0.34362  0.12324  1.0000
  H   H22       1.0  0.42287  0.84362  0.37676  1.0000
  H   H23       1.0  0.42287  0.65638  0.87676  1.0000
  H   H24       1.0  0.57713  0.15638  0.62324  1.0000
  H   H25       1.0  0.35850  0.26739  0.07445  1.0000
  H   H26       1.0  0.64149  0.76739  0.42555  1.0000
  H   H27       1.0  0.64149  0.73261  0.92555  1.0000
  H   H28       1.0  0.35851  0.23261  0.57445  1.0000
  C   C1        1.0  0.87878  0.25679  0.22706  1.0000
  C   C2        1.0  0.12121  0.75679  0.27294  1.0000
  C   C3        1.0  0.12121  0.74321  0.77294  1.0000
  C   C4        1.0  0.87878  0.24321  0.72706  1.0000
  C   C5        1.0  0.05517  0.25389  0.17569  1.0000
  C   C6        1.0  0.94483  0.75389  0.32431  1.0000
  C   C7        1.0  0.94483  0.74611  0.82431  1.0000
  C   C8        1.0  0.05517  0.24611  0.67569  1.0000
  C   C9        1.0  0.17516  0.34037  0.15516  1.0000
  C   C10       1.0  0.82484  0.84037  0.34484  1.0000
  C   C11       1.0  0.82484  0.65963  0.84484  1.0000
  C   C12       1.0  0.17516  0.15963  0.65516  1.0000
  C   C13       1.0  0.10905  0.42740  0.18745  1.0000
  C   C14       1.0  0.89095  0.92740  0.31255  1.0000
  C   C15       1.0  0.89095  0.57260  0.81255  1.0000
  C   C16       1.0  0.10905  0.07260  0.68745  1.0000
  C   C17       1.0  0.93063  0.42446  0.23832  1.0000
  C   C18       1.0  0.06937  0.92445  0.26169  1.0000
  C   C19       1.0  0.06937  0.57554  0.76169  1.0000
  C   C20       1.0  0.93063  0.07555  0.73831  1.0000
  C   C21       1.0  0.37163  0.33822  0.10087  1.0000
  C   C22       1.0  0.62837  0.83822  0.39913  1.0000
  C   C23       1.0  0.62837  0.66178  0.89913  1.0000
  C   C24       1.0  0.37163  0.16178  0.60087  1.0000
  C   C25       1.0  0.54033  0.45798  0.02402  1.0000
  C   C26       1.0  0.45968  0.95798  0.47598  1.0000
  C   C27       1.0  0.45968  0.54202  0.97598  1.0000
  C   C28       1.0  0.54033  0.04202  0.52402  1.0000
  I   I1        1.0  0.45207  0.52864  0.37422  1.0000
  I   I2        1.0  0.54794  0.02864  0.12578  1.0000
  I   I3        1.0  0.54794  0.47136  0.62578  1.0000
  I   I4        1.0  0.45207  0.97136  0.87422  1.0000
  I   I5        1.0  0.36532  0.14701  0.34809  1.0000
  I   I6        1.0  0.63468  0.64701  0.15191  1.0000
  I   I7        1.0  0.63468  0.85299  0.65191  1.0000
  I   I8        1.0  0.36532  0.35299  0.84809  1.0000
  I   I9        1.0  0.92599  0.30915  0.47982  1.0000
  I   I10       1.0  0.07401  0.80915  0.02018  1.0000
  I   I11       1.0  0.07401  0.69085  0.52018  1.0000
  I   I12       1.0  0.92599  0.19085  0.97982  1.0000
  N   N1        1.0  0.81756  0.34059  0.25776  1.0000
  N   N2        1.0  0.18243  0.84059  0.24224  1.0000
  N   N3        1.0  0.18243  0.65941  0.74224  1.0000
  N   N4        1.0  0.81756  0.15941  0.75776  1.0000
  N   N5        1.0  0.33361  0.41830  0.05378  1.0000
  N   N6        1.0  0.66639  0.91831  0.44622  1.0000
  N   N7        1.0  0.66639  0.58169  0.94622  1.0000
  N   N8        1.0  0.33361  0.08170  0.55378  1.0000
  O   O1        1.0  0.77702  0.43122  0.03366  1.0000
  O   O2        1.0  0.22298  0.93122  0.46634  1.0000
  O   O3        1.0  0.22298  0.56878  0.96634  1.0000
  O   O4        1.0  0.77702  0.06878  0.53366  1.0000
