data_image0
_chemical_formula_structural       Ni2H32C44S4N12
_chemical_formula_sum              "Ni2 H32 C44 S4 N12"
_cell_length_a       8.22297
_cell_length_b       8.22302
_cell_length_c       16.4748
_cell_angle_alpha    82.4574
_cell_angle_beta     82.4572
_cell_angle_gamma    86.9844

_space_group_name_H-M_alt    "P 1"
_space_group_IT_number       1

loop_
  _space_group_symop_operation_xyz
  'x, y, z'

loop_
  _atom_site_type_symbol
  _atom_site_label
  _atom_site_symmetry_multiplicity
  _atom_site_fract_x
  _atom_site_fract_y
  _atom_site_fract_z
  _atom_site_occupancy
  Ni  Ni1       1.0  0.86828  0.13173  0.75000  1.0000
  Ni  Ni2       1.0  0.13172  0.86828  0.25000  1.0000
  H   H1        1.0  0.74425  0.39843  0.62547  1.0000
  H   H2        1.0  0.60157  0.25575  0.87453  1.0000
  H   H3        1.0  0.25575  0.60157  0.37453  1.0000
  H   H4        1.0  0.39843  0.74426  0.12547  1.0000
  H   H5        1.0  0.52262  0.61632  0.61905  1.0000
  H   H6        1.0  0.38368  0.47737  0.88095  1.0000
  H   H7        1.0  0.47738  0.38367  0.38095  1.0000
  H   H8        1.0  0.61632  0.52263  0.11905  1.0000
  H   H9        1.0  0.19012  0.61777  0.65035  1.0000
  H   H10       1.0  0.38223  0.80987  0.84966  1.0000
  H   H11       1.0  0.80988  0.38223  0.34966  1.0000
  H   H12       1.0  0.61777  0.19012  0.15034  1.0000
  H   H13       1.0  0.96427  0.83252  0.66063  1.0000
  H   H14       1.0  0.16749  0.03573  0.83938  1.0000
  H   H15       1.0  0.03573  0.16748  0.33937  1.0000
  H   H16       1.0  0.83252  0.96427  0.16063  1.0000
  H   H17       1.0  0.45735  0.98375  0.26064  1.0000
  H   H18       1.0  0.01625  0.54265  0.23936  1.0000
  H   H19       1.0  0.54265  0.01625  0.73937  1.0000
  H   H20       1.0  0.98376  0.45735  0.76063  1.0000
  H   H21       1.0  0.64220  0.01239  0.36422  1.0000
  H   H22       1.0  0.98761  0.35780  0.13578  1.0000
  H   H23       1.0  0.35780  0.98761  0.63578  1.0000
  H   H24       1.0  0.01239  0.64220  0.86422  1.0000
  H   H25       1.0  0.21952  0.95155  0.55026  1.0000
  H   H26       1.0  0.04844  0.78048  0.94974  1.0000
  H   H27       1.0  0.78048  0.04844  0.44974  1.0000
  H   H28       1.0  0.95156  0.21952  0.05026  1.0000
  H   H29       1.0  0.05842  0.90653  0.43935  1.0000
  H   H30       1.0  0.09346  0.94158  0.06065  1.0000
  H   H31       1.0  0.94158  0.09346  0.56065  1.0000
  H   H32       1.0  0.90654  0.05842  0.93935  1.0000
  C   C1        1.0  0.58192  0.34056  0.81976  1.0000
  C   C2        1.0  0.65945  0.41808  0.68024  1.0000
  C   C3        1.0  0.41808  0.65945  0.18024  1.0000
  C   C4        1.0  0.34055  0.58191  0.31976  1.0000
  C   C5        1.0  0.45966  0.46362  0.82275  1.0000
  C   C6        1.0  0.53638  0.54034  0.67725  1.0000
  C   C7        1.0  0.54034  0.53638  0.17725  1.0000
  C   C8        1.0  0.46362  0.45965  0.32275  1.0000
  C   C9        1.0  0.43465  0.56535  0.75000  1.0000
  C   C10       1.0  0.56535  0.43465  0.25000  1.0000
  C   C11       1.0  0.30435  0.69565  0.75000  1.0000
  C   C12       1.0  0.69565  0.30435  0.25000  1.0000
  C   C13       1.0  0.29426  0.81310  0.80509  1.0000
  C   C14       1.0  0.18690  0.70574  0.69491  1.0000
  C   C15       1.0  0.70574  0.18690  0.19491  1.0000
  C   C16       1.0  0.81310  0.29426  0.30509  1.0000
  C   C17       1.0  0.17277  0.93714  0.80085  1.0000
  C   C18       1.0  0.06286  0.82724  0.69915  1.0000
  C   C19       1.0  0.82724  0.06286  0.19915  1.0000
  C   C20       1.0  0.93714  0.17276  0.30085  1.0000
  C   C21       1.0  0.58917  0.02314  0.67411  1.0000
  C   C22       1.0  0.97686  0.41083  0.82589  1.0000
  C   C23       1.0  0.41083  0.97686  0.32589  1.0000
  C   C24       1.0  0.02314  0.58917  0.17411  1.0000
  C   C25       1.0  0.48735  0.00540  0.61538  1.0000
  C   C26       1.0  0.99459  0.51265  0.88462  1.0000
  C   C27       1.0  0.51265  0.99460  0.38462  1.0000
  C   C28       1.0  0.00541  0.48735  0.11538  1.0000
  C   C29       1.0  0.55188  0.01130  0.53198  1.0000
  C   C30       1.0  0.98870  0.44811  0.96802  1.0000
  C   C31       1.0  0.44811  0.98870  0.46802  1.0000
  C   C32       1.0  0.01130  0.55189  0.03198  1.0000
  C   C33       1.0  0.27996  0.95928  0.48718  1.0000
  C   C34       1.0  0.04070  0.72003  0.01282  1.0000
  C   C35       1.0  0.72003  0.04071  0.51282  1.0000
  C   C36       1.0  0.95929  0.27996  0.98718  1.0000
  C   C37       1.0  0.18732  0.93674  0.42519  1.0000
  C   C38       1.0  0.06325  0.81268  0.07481  1.0000
  C   C39       1.0  0.81268  0.06325  0.57481  1.0000
  C   C40       1.0  0.93675  0.18732  0.92519  1.0000
  C   C41       1.0  0.67857  0.87924  0.88908  1.0000
  C   C42       1.0  0.12076  0.32144  0.61092  1.0000
  C   C43       1.0  0.32143  0.12076  0.11092  1.0000
  C   C44       1.0  0.87923  0.67857  0.38908  1.0000
  S   S1        1.0  0.60155  0.73993  0.96031  1.0000
  S   S2        1.0  0.26009  0.39846  0.53968  1.0000
  S   S3        1.0  0.39845  0.26009  0.03968  1.0000
  S   S4        1.0  0.73990  0.60155  0.46031  1.0000
  N   N1        1.0  0.68103  0.31897  0.75000  1.0000
  N   N2        1.0  0.31897  0.68103  0.25000  1.0000
  N   N3        1.0  0.74990  0.05249  0.65492  1.0000
  N   N4        1.0  0.94752  0.25010  0.84507  1.0000
  N   N5        1.0  0.25009  0.94751  0.34507  1.0000
  N   N6        1.0  0.05249  0.74990  0.15493  1.0000
  N   N7        1.0  0.05640  0.94360  0.75000  1.0000
  N   N8        1.0  0.94360  0.05640  0.25000  1.0000
  N   N9        1.0  0.73290  0.98239  0.83642  1.0000
  N   N10       1.0  0.01762  0.26710  0.66357  1.0000
  N   N11       1.0  0.26710  0.01762  0.16357  1.0000
  N   N12       1.0  0.98238  0.73290  0.33643  1.0000
