data_image0
_chemical_formula_structural       Zn2H40C60N12O14
_chemical_formula_sum              "Zn2 H40 C60 N12 O14"
_cell_length_a       7.47771
_cell_length_b       10.8905
_cell_length_c       19.046
_cell_angle_alpha    79.9505
_cell_angle_beta     79.4707
_cell_angle_gamma    73.2182

_space_group_name_H-M_alt    "P 1"
_space_group_IT_number       1

loop_
  _space_group_symop_operation_xyz
  'x, y, z'

loop_
  _atom_site_type_symbol
  _atom_site_label
  _atom_site_symmetry_multiplicity
  _atom_site_fract_x
  _atom_site_fract_y
  _atom_site_fract_z
  _atom_site_occupancy
  Zn  Zn1       1.0  0.27702  0.71771  0.03369  1.0000
  Zn  Zn2       1.0  0.62126  0.21199  0.55301  1.0000
  H   H1        1.0  0.27017  0.99519  0.91502  1.0000
  H   H2        1.0  0.84813  0.81847  0.02874  1.0000
  H   H3        1.0  0.67798  0.04797  0.94636  1.0000
  H   H4        1.0  0.81283  0.54016  0.08979  1.0000
  H   H5        1.0  0.13501  0.09603  0.78084  1.0000
  H   H6        1.0  0.76299  0.27492  0.95707  1.0000
  H   H7        1.0  0.58554  0.41878  0.16092  1.0000
  H   H8        1.0  0.68291  0.25653  0.26463  1.0000
  H   H9        1.0  0.88397  0.50852  0.75479  1.0000
  H   H10       1.0  0.40207  0.20802  0.71021  1.0000
  H   H11       1.0  0.89593  0.42946  0.62990  1.0000
  H   H12       1.0  0.78910  0.66639  0.80997  1.0000
  H   H13       1.0  0.52767  0.44313  0.98358  1.0000
  H   H14       1.0  0.96240  0.08936  0.19329  1.0000
  H   H15       1.0  0.09650  0.00375  0.41068  1.0000
  H   H16       1.0  0.19185  0.40088  0.51729  1.0000
  H   H17       1.0  0.54789  0.82608  0.90106  1.0000
  H   H18       1.0  0.98763  0.85638  0.19307  1.0000
  H   H19       1.0  0.14454  0.76839  0.40580  1.0000
  H   H20       1.0  0.69870  0.92190  0.49526  1.0000
  H   H21       1.0  0.42253  0.30492  0.41739  1.0000
  H   H22       1.0  0.24827  0.48440  0.30603  1.0000
  H   H23       1.0  0.39871  0.14457  0.32582  1.0000
  H   H24       1.0  0.27390  0.05910  0.58690  1.0000
  H   H25       1.0  0.64361  0.74623  0.46213  1.0000
  H   H26       1.0  0.49989  0.00228  0.26825  1.0000
  H   H27       1.0  0.52286  0.94882  0.66750  1.0000
  H   H28       1.0  0.44536  0.80650  0.77744  1.0000
  H   H29       1.0  0.61596  0.58800  0.27399  1.0000
  H   H30       1.0  0.94970  0.45879  0.33767  1.0000
  H   H31       1.0  0.47192  0.52950  0.49801  1.0000
  H   H32       1.0  0.44216  0.63854  0.18529  1.0000
  H   H33       1.0  0.49726  0.02390  0.16116  1.0000
  H   H34       1.0  0.35760  0.62939  0.71891  1.0000
  H   H35       1.0  0.05974  0.59658  0.93495  1.0000
  H   H36       1.0  0.97182  0.24185  0.44313  1.0000
  H   H37       1.0  0.36607  0.98727  0.04291  1.0000
  H   H38       1.0  0.50936  0.39345  0.73479  1.0000
  H   H39       1.0  0.20619  0.35807  0.94866  1.0000
  H   H40       1.0  0.63603  0.07366  0.79645  1.0000
  C   C1        1.0  0.13597  0.97248  0.93443  1.0000
  C   C2        1.0  0.90924  0.88959  0.99332  1.0000
  C   C3        1.0  0.16279  0.52086  0.10998  1.0000
  C   C4        1.0  0.82394  0.00234  0.95416  1.0000
  C   C5        1.0  0.03797  0.43995  0.15100  1.0000
  C   C6        1.0  0.94801  0.17495  0.87270  1.0000
  C   C7        1.0  0.09806  0.34320  0.20776  1.0000
  C   C8        1.0  0.85463  0.46529  0.13425  1.0000
  C   C9        1.0  0.04543  0.18255  0.80302  1.0000
  C   C10       1.0  0.82998  0.28443  0.90136  1.0000
  C   C11       1.0  0.29224  0.30189  0.23126  1.0000
  C   C12       1.0  0.96683  0.27879  0.24697  1.0000
  C   C13       1.0  0.72744  0.39930  0.17425  1.0000
  C   C14       1.0  0.01897  0.30403  0.76188  1.0000
  C   C15       1.0  0.80628  0.40451  0.85880  1.0000
  C   C16       1.0  0.78266  0.30694  0.23234  1.0000
  C   C17       1.0  0.89911  0.41517  0.78821  1.0000
  C   C18       1.0  0.03070  0.05991  0.30173  1.0000
  C   C19       1.0  0.30657  0.26313  0.67230  1.0000
  C   C20       1.0  0.04475  0.38163  0.62901  1.0000
  C   C21       1.0  0.70294  0.64274  0.85994  1.0000
  C   C22       1.0  0.56727  0.52452  0.94968  1.0000
  C   C23       1.0  0.99831  0.01964  0.24026  1.0000
  C   C24       1.0  0.07688  0.97023  0.36260  1.0000
  C   C25       1.0  0.19308  0.36665  0.57422  1.0000
  C   C26       1.0  0.57859  0.72181  0.90544  1.0000
  C   C27       1.0  0.01387  0.88986  0.23995  1.0000
  C   C28       1.0  0.10089  0.83933  0.35994  1.0000
  C   C29       1.0  0.06982  0.79775  0.29860  1.0000
  C   C30       1.0  0.09579  0.66080  0.28978  1.0000
  C   C31       1.0  0.61617  0.00375  0.46349  1.0000
  C   C32       1.0  0.47285  0.20057  0.42142  1.0000
  C   C33       1.0  0.91871  0.06052  0.60660  1.0000
  C   C34       1.0  0.45963  0.12209  0.37524  1.0000
  C   C35       1.0  0.05703  0.98808  0.65697  1.0000
  C   C36       1.0  0.57006  0.88664  0.36864  1.0000
  C   C37       1.0  0.00987  0.90895  0.72050  1.0000
  C   C38       1.0  0.24227  0.99943  0.63728  1.0000
  C   C39       1.0  0.61688  0.76271  0.40652  1.0000
  C   C40       1.0  0.53716  0.90503  0.29732  1.0000
  C   C41       1.0  0.82065  0.87794  0.74204  1.0000
  C   C42       1.0  0.15485  0.84119  0.76126  1.0000
  C   C43       1.0  0.38027  0.93733  0.68118  1.0000
  C   C44       1.0  0.63291  0.65784  0.37078  1.0000
  C   C45       1.0  0.54787  0.79839  0.26401  1.0000
  C   C46       1.0  0.33661  0.85720  0.74381  1.0000
  C   C47       1.0  0.59956  0.67286  0.29985  1.0000
  C   C48       1.0  0.19876  0.62767  0.82607  1.0000
  C   C49       1.0  0.85804  0.43902  0.38685  1.0000
  C   C50       1.0  0.60661  0.47933  0.47060  1.0000
  C   C51       1.0  0.44291  0.73663  0.16210  1.0000
  C   C52       1.0  0.47347  0.93742  0.14788  1.0000
  C   C53       1.0  0.32457  0.57025  0.76923  1.0000
  C   C54       1.0  0.15606  0.55084  0.89091  1.0000
  C   C55       1.0  0.86705  0.33407  0.43882  1.0000
  C   C56       1.0  0.40419  0.91906  0.09000  1.0000
  C   C57       1.0  0.40851  0.43777  0.77820  1.0000
  C   C58       1.0  0.23879  0.41818  0.89848  1.0000
  C   C59       1.0  0.36716  0.35925  0.84249  1.0000
  C   C60       1.0  0.45589  0.21704  0.85167  1.0000
  N   N1        1.0  0.10288  0.87260  0.98089  1.0000
  N   N2        1.0  0.38517  0.79399  0.09966  1.0000
  N   N3        1.0  0.49461  0.64709  0.96068  1.0000
  N   N4        1.0  0.96941  0.05361  0.91694  1.0000
  N   N5        1.0  0.11866  0.31518  0.69084  1.0000
  N   N6        1.0  0.69524  0.51756  0.88822  1.0000
  N   N7        1.0  0.35564  0.29354  0.60207  1.0000
  N   N8        1.0  0.56975  0.12597  0.47626  1.0000
  N   N9        1.0  0.70936  0.35995  0.49052  1.0000
  N   N10       1.0  0.55071  0.99733  0.40212  1.0000
  N   N11       1.0  0.69317  0.53039  0.40783  1.0000
  N   N12       1.0  0.49834  0.82072  0.19343  1.0000
  O   O1        1.0  0.08220  0.62335  0.06889  1.0000
  O   O2        1.0  0.33556  0.49287  0.11498  1.0000
  O   O3        1.0  0.40412  0.20066  0.20962  1.0000
  O   O4        1.0  0.32450  0.36223  0.27758  1.0000
  O   O5        1.0  0.02475  0.18579  0.30527  1.0000
  O   O6        1.0  0.97392  0.07960  0.54031  1.0000
  O   O7        1.0  0.74384  0.10533  0.63472  1.0000
  O   O8        1.0  0.01113  0.63143  0.24794  1.0000
  O   O9        1.0  0.22030  0.57304  0.32753  1.0000
  O   O10       1.0  0.80598  0.78475  0.71479  1.0000
  O   O11       1.0  0.69701  0.93935  0.78868  1.0000
  O   O12       1.0  0.10916  0.75733  0.82251  1.0000
  O   O13       1.0  0.57624  0.17619  0.79481  1.0000
  O   O14       1.0  0.41848  0.14533  0.90761  1.0000
