data_image0
_chemical_formula_structural       Cd3H42C60N12O16
_chemical_formula_sum              "Cd3 H42 C60 N12 O16"
_cell_length_a       8.19792
_cell_length_b       13.6161
_cell_length_c       14.3133
_cell_angle_alpha    94.1285
_cell_angle_beta     106.781
_cell_angle_gamma    89.9894

_space_group_name_H-M_alt    "P 1"
_space_group_IT_number       1

loop_
  _space_group_symop_operation_xyz
  'x, y, z'

loop_
  _atom_site_type_symbol
  _atom_site_label
  _atom_site_symmetry_multiplicity
  _atom_site_fract_x
  _atom_site_fract_y
  _atom_site_fract_z
  _atom_site_occupancy
  Cd  Cd1       1.0  0.15821  0.43910  0.36082  1.0000
  Cd  Cd2       1.0  0.79710  0.56037  0.63932  1.0000
  Cd  Cd3       1.0  0.17717  0.00037  0.99952  1.0000
  H   H1        1.0  0.57941  0.05115  0.53238  1.0000
  H   H2        1.0  0.04634  0.94847  0.46766  1.0000
  H   H3        1.0  0.74727  0.98477  0.42446  1.0000
  H   H4        1.0  0.32285  0.01515  0.57557  1.0000
  H   H5        1.0  0.95615  0.09559  0.38165  1.0000
  H   H6        1.0  0.57530  0.90451  0.61854  1.0000
  H   H7        1.0  0.73312  0.09618  0.72530  1.0000
  H   H8        1.0  0.00770  0.90323  0.27495  1.0000
  H   H9        1.0  0.57445  0.01300  0.82498  1.0000
  H   H10       1.0  0.74924  0.98679  0.17487  1.0000
  H   H11       1.0  0.13973  0.19165  0.71204  1.0000
  H   H12       1.0  0.42674  0.80890  0.28731  1.0000
  H   H13       1.0  0.29150  0.26988  0.60685  1.0000
  H   H14       1.0  0.68391  0.73036  0.39295  1.0000
  H   H15       1.0  0.93528  0.57565  0.17573  1.0000
  H   H16       1.0  0.75936  0.42401  0.82474  1.0000
  H   H17       1.0  0.73679  0.46800  0.38973  1.0000
  H   H18       1.0  0.34622  0.53138  0.60990  1.0000
  H   H19       1.0  0.48645  0.57597  0.26854  1.0000
  H   H20       1.0  0.21710  0.42423  0.73126  1.0000
  H   H21       1.0  0.35559  0.57438  0.09141  1.0000
  H   H22       1.0  0.26370  0.42620  0.90856  1.0000
  H   H23       1.0  0.39050  0.77621  0.87760  1.0000
  H   H24       1.0  0.51301  0.22410  0.12252  1.0000
  H   H25       1.0  0.83561  0.71759  0.11351  1.0000
  H   H26       1.0  0.72140  0.28245  0.88705  1.0000
  H   H27       1.0  0.92210  0.86429  0.07845  1.0000
  H   H28       1.0  0.84232  0.13624  0.92159  1.0000
  H   H29       1.0  0.87660  0.88731  0.77951  1.0000
  H   H30       1.0  0.09866  0.11228  0.22030  1.0000
  H   H31       1.0  0.60276  0.77843  0.79227  1.0000
  H   H32       1.0  0.81184  0.22107  0.20806  1.0000
  H   H33       1.0  0.19884  0.63370  0.77703  1.0000
  H   H34       1.0  0.42256  0.36657  0.22308  1.0000
  H   H35       1.0  0.06953  0.65260  0.04405  1.0000
  H   H36       1.0  0.02485  0.34788  0.95582  1.0000
  H   H37       1.0  0.78271  0.59640  0.88887  1.0000
  H   H38       1.0  0.89372  0.40345  0.11083  1.0000
  H   H39       1.0  0.40441  0.30040  0.42143  1.0000
  H   H40       1.0  0.98292  0.69874  0.57844  1.0000
  H   H41       1.0  0.54161  0.38744  0.45297  1.0000
  H   H42       1.0  0.08872  0.61188  0.54709  1.0000
  C   C1        1.0  0.02738  0.28603  0.43822  1.0000
  C   C2        1.0  0.59009  0.71419  0.56202  1.0000
  C   C3        1.0  0.83979  0.36116  0.58119  1.0000
  C   C4        1.0  0.25893  0.63869  0.41890  1.0000
  C   C5        1.0  0.91436  0.21918  0.47244  1.0000
  C   C6        1.0  0.44233  0.78086  0.52768  1.0000
  C   C7        1.0  0.82523  0.25613  0.53746  1.0000
  C   C8        1.0  0.28782  0.74373  0.46270  1.0000
  C   C9        1.0  0.70339  0.19460  0.55667  1.0000
  C   C10       1.0  0.14648  0.80516  0.44350  1.0000
  C   C11       1.0  0.67613  0.09718  0.51753  1.0000
  C   C12       1.0  0.15829  0.90261  0.48255  1.0000
  C   C13       1.0  0.77034  0.06046  0.45620  1.0000
  C   C14       1.0  0.31422  0.93947  0.54388  1.0000
  C   C15       1.0  0.88678  0.12139  0.43278  1.0000
  C   C16       1.0  0.45446  0.87864  0.56736  1.0000
  C   C17       1.0  0.51945  0.18725  0.66054  1.0000
  C   C18       1.0  0.85840  0.81252  0.33940  1.0000
  C   C19       1.0  0.60235  0.11547  0.72170  1.0000
  C   C20       1.0  0.88032  0.88420  0.27832  1.0000
  C   C21       1.0  0.51448  0.06973  0.77719  1.0000
  C   C22       1.0  0.73694  0.93013  0.22261  1.0000
  C   C23       1.0  0.34844  0.09723  0.77474  1.0000
  C   C24       1.0  0.57317  0.90293  0.22486  1.0000
  C   C25       1.0  0.26818  0.16958  0.71341  1.0000
  C   C26       1.0  0.55403  0.83070  0.28613  1.0000
  C   C27       1.0  0.35215  0.21347  0.65490  1.0000
  C   C28       1.0  0.69657  0.78663  0.34486  1.0000
  C   C29       1.0  0.26497  0.05428  0.84278  1.0000
  C   C30       1.0  0.42150  0.94607  0.15672  1.0000
  C   C31       1.0  0.84862  0.55944  0.21735  1.0000
  C   C32       1.0  0.63090  0.44027  0.78294  1.0000
  C   C33       1.0  0.73832  0.50368  0.32454  1.0000
  C   C34       1.0  0.41308  0.49584  0.67525  1.0000
  C   C35       1.0  0.61238  0.55564  0.26408  1.0000
  C   C36       1.0  0.34762  0.44439  0.73585  1.0000
  C   C37       1.0  0.60315  0.64278  0.11284  1.0000
  C   C38       1.0  0.48978  0.35755  0.88743  1.0000
  C   C39       1.0  0.43023  0.62588  0.06470  1.0000
  C   C40       1.0  0.36512  0.37463  0.93539  1.0000
  C   C41       1.0  0.35739  0.67244  0.97901  1.0000
  C   C42       1.0  0.37819  0.32806  0.02106  1.0000
  C   C43       1.0  0.45159  0.73550  0.94082  1.0000
  C   C44       1.0  0.51068  0.26483  0.05936  1.0000
  C   C45       1.0  0.62500  0.74923  0.98905  1.0000
  C   C46       1.0  0.63566  0.25090  0.01130  1.0000
  C   C47       1.0  0.70122  0.70443  0.07537  1.0000
  C   C48       1.0  0.62531  0.29573  0.92505  1.0000
  C   C49       1.0  0.87446  0.85639  0.99927  1.0000
  C   C50       1.0  0.87468  0.14388  0.00079  1.0000
  C   C51       1.0  0.84410  0.86821  0.84422  1.0000
  C   C52       1.0  0.00085  0.13161  0.15571  1.0000
  C   C53       1.0  0.70603  0.81457  0.84942  1.0000
  C   C54       1.0  0.85739  0.18513  0.15076  1.0000
  C   C55       1.0  0.12218  0.63121  0.82722  1.0000
  C   C56       1.0  0.29545  0.36906  0.17279  1.0000
  C   C57       1.0  0.05149  0.63819  0.96632  1.0000
  C   C58       1.0  0.08490  0.36217  0.03357  1.0000
  C   C59       1.0  0.91230  0.61110  0.88865  1.0000
  C   C60       1.0  0.02365  0.38894  0.11116  1.0000
  N   N1        1.0  0.88352  0.50573  0.29361  1.0000
  N   N2        1.0  0.58944  0.49363  0.70640  1.0000
  N   N3        1.0  0.68394  0.59105  0.19548  1.0000
  N   N4        1.0  0.48797  0.40909  0.80478  1.0000
  N   N5        1.0  0.72611  0.80759  0.94859  1.0000
  N   N6        1.0  0.77740  0.19238  0.05165  1.0000
  N   N7        1.0  0.94695  0.89392  0.93787  1.0000
  N   N8        1.0  0.00923  0.10628  0.06197  1.0000
  N   N9        1.0  0.18451  0.65128  0.92651  1.0000
  N   N10       1.0  0.25809  0.34925  0.07347  1.0000
  N   N11       1.0  0.95853  0.60603  0.80282  1.0000
  N   N12       1.0  0.15618  0.39393  0.19711  1.0000
  O   O1        1.0  0.06701  0.37071  0.48415  1.0000
  O   O2        1.0  0.58372  0.62947  0.51615  1.0000
  O   O3        1.0  0.07278  0.25817  0.36276  1.0000
  O   O4        1.0  0.71132  0.74218  0.63748  1.0000
  O   O5        1.0  0.73646  0.42178  0.52988  1.0000
  O   O6        1.0  0.20719  0.57790  0.46998  1.0000
  O   O7        1.0  0.93672  0.38462  0.66552  1.0000
  O   O8        1.0  0.27146  0.61548  0.33466  1.0000
  O   O9        1.0  0.60080  0.24049  0.60792  1.0000
  O   O10       1.0  0.99236  0.75918  0.39226  1.0000
  O   O11       1.0  0.14270  0.10075  0.86358  1.0000
  O   O12       1.0  0.27801  0.89993  0.13584  1.0000
  O   O13       1.0  0.32518  0.97539  0.88216  1.0000
  O   O14       1.0  0.44268  0.02486  0.11734  1.0000
  O   O15       1.0  0.43337  0.36386  0.40238  1.0000
  O   O16       1.0  0.03143  0.63538  0.59764  1.0000
