data_image0
_chemical_formula_structural       CoH26C40N6O10
_chemical_formula_sum              "Co1 H26 C40 N6 O10"
_cell_length_a       8.53475
_cell_length_b       10.0264
_cell_length_c       10.9149
_cell_angle_alpha    100.797
_cell_angle_beta     94.2739
_cell_angle_gamma    104.925

_space_group_name_H-M_alt    "P 1"
_space_group_IT_number       1

loop_
  _space_group_symop_operation_xyz
  'x, y, z'

loop_
  _atom_site_type_symbol
  _atom_site_label
  _atom_site_symmetry_multiplicity
  _atom_site_fract_x
  _atom_site_fract_y
  _atom_site_fract_z
  _atom_site_occupancy
  Co  Co1       1.0  0.50000  1.00000  0.50000  1.0000
  H   H1        1.0  0.40150  0.55759  0.99677  1.0000
  H   H2        1.0  0.59851  0.44239  0.00323  1.0000
  H   H3        1.0  0.78390  0.89794  0.18423  1.0000
  H   H4        1.0  0.21610  0.10207  0.81576  1.0000
  H   H5        1.0  0.26957  0.35174  0.31044  1.0000
  H   H6        1.0  0.73044  0.64825  0.68959  1.0000
  H   H7        1.0  0.27800  0.82256  0.67586  1.0000
  H   H8        1.0  0.72199  0.17746  0.32413  1.0000
  H   H9        1.0  0.10352  0.65265  0.78389  1.0000
  H   H10       1.0  0.89649  0.34738  0.21611  1.0000
  H   H11       1.0  0.04074  0.39402  0.70025  1.0000
  H   H12       1.0  0.95926  0.60600  0.29976  1.0000
  H   H13       1.0  0.13713  0.30245  0.49956  1.0000
  H   H14       1.0  0.86287  0.69755  0.50046  1.0000
  H   H15       1.0  0.15872  0.87125  0.48819  1.0000
  H   H16       1.0  0.84128  0.12873  0.51180  1.0000
  H   H17       1.0  0.90382  0.85221  0.35227  1.0000
  H   H18       1.0  0.09617  0.14778  0.64772  1.0000
  H   H19       1.0  0.44035  0.12949  0.28391  1.0000
  H   H20       1.0  0.55965  0.87052  0.71609  1.0000
  H   H21       1.0  0.19481  0.13256  0.14818  1.0000
  H   H22       1.0  0.80519  0.86745  0.85182  1.0000
  H   H23       1.0  0.68151  0.24521  0.04810  1.0000
  H   H24       1.0  0.31851  0.75481  0.95191  1.0000
  H   H25       1.0  0.61236  0.79955  0.02185  1.0000
  H   H26       1.0  0.38764  0.20046  0.97816  1.0000
  C   C1        1.0  0.45085  0.70574  0.35973  1.0000
  C   C2        1.0  0.54914  0.29425  0.64025  1.0000
  C   C3        1.0  0.39949  0.56144  0.29515  1.0000
  C   C4        1.0  0.60051  0.43855  0.70485  1.0000
  C   C5        1.0  0.30983  0.46386  0.35514  1.0000
  C   C6        1.0  0.69017  0.53613  0.64486  1.0000
  C   C7        1.0  0.26298  0.51005  0.47403  1.0000
  C   C8        1.0  0.73703  0.48996  0.52598  1.0000
  C   C9        1.0  0.30651  0.65927  0.52634  1.0000
  C   C10       1.0  0.69350  0.34074  0.47366  1.0000
  C   C11       1.0  0.24685  0.70879  0.63878  1.0000
  C   C12       1.0  0.75316  0.29123  0.36121  1.0000
  C   C13       1.0  0.15118  0.61388  0.69837  1.0000
  C   C14       1.0  0.84881  0.38614  0.30162  1.0000
  C   C15       1.0  0.11381  0.46669  0.64990  1.0000
  C   C16       1.0  0.88619  0.53333  0.35011  1.0000
  C   C17       1.0  0.16813  0.41565  0.53963  1.0000
  C   C18       1.0  0.83189  0.58436  0.46038  1.0000
  C   C19       1.0  0.57571  0.80967  0.30942  1.0000
  C   C20       1.0  0.42427  0.19032  0.69057  1.0000
  C   C21       1.0  0.43782  0.52056  0.16372  1.0000
  C   C22       1.0  0.56218  0.47943  0.83628  1.0000
  C   C23       1.0  0.16205  0.92478  0.41006  1.0000
  C   C24       1.0  0.83794  0.07520  0.58993  1.0000
  C   C25       1.0  0.02080  0.91597  0.33548  1.0000
  C   C26       1.0  0.97920  0.08401  0.66450  1.0000
  C   C27       1.0  0.02735  0.99036  0.23761  1.0000
  C   C28       1.0  0.97265  0.00964  0.76239  1.0000
  C   C29       1.0  0.31891  0.07109  0.29788  1.0000
  C   C30       1.0  0.68108  0.92891  0.70212  1.0000
  C   C31       1.0  0.84551  0.06335  0.09152  1.0000
  C   C32       1.0  0.15450  0.93665  0.90847  1.0000
  C   C33       1.0  0.18199  0.07193  0.22120  1.0000
  C   C34       1.0  0.81801  0.92807  0.77880  1.0000
  C   C35       1.0  0.66732  0.02692  0.04205  1.0000
  C   C36       1.0  0.33269  0.97309  0.95796  1.0000
  C   C37       1.0  0.60145  0.13799  0.02702  1.0000
  C   C38       1.0  0.39855  0.86203  0.97300  1.0000
  C   C39       1.0  0.56416  0.88829  0.01360  1.0000
  C   C40       1.0  0.43584  0.11172  0.98641  1.0000
  N   N1        1.0  0.40428  0.75351  0.46873  1.0000
  N   N2        1.0  0.59571  0.24650  0.53126  1.0000
  N   N3        1.0  0.31142  0.99987  0.39188  1.0000
  N   N4        1.0  0.68857  0.00012  0.60811  1.0000
  N   N5        1.0  0.88122  0.97597  0.16601  1.0000
  N   N6        1.0  0.11878  0.02403  0.83398  1.0000
  O   O1        1.0  0.52618  0.44169  0.13528  1.0000
  O   O2        1.0  0.47384  0.55829  0.86474  1.0000
  O   O3        1.0  0.35889  0.57098  0.08235  1.0000
  O   O4        1.0  0.64111  0.42898  0.91765  1.0000
  O   O5        1.0  0.94779  0.16739  0.07200  1.0000
  O   O6        1.0  0.05222  0.83262  0.92799  1.0000
  O   O7        1.0  0.65252  0.76006  0.22665  1.0000
  O   O8        1.0  0.34747  0.23993  0.77333  1.0000
  O   O9        1.0  0.60362  0.94241  0.35659  1.0000
  O   O10       1.0  0.39635  0.05756  0.64339  1.0000
