data_image0
_chemical_formula_structural       K2Cd4H16C22N10O20
_chemical_formula_sum              "K2 Cd4 H16 C22 N10 O20"
_cell_length_a       9.16663
_cell_length_b       9.98718
_cell_length_c       9.98722
_cell_angle_alpha    111.678
_cell_angle_beta     96.2007
_cell_angle_gamma    96.2004

_space_group_name_H-M_alt    "P 1"
_space_group_IT_number       1

loop_
  _space_group_symop_operation_xyz
  'x, y, z'

loop_
  _atom_site_type_symbol
  _atom_site_label
  _atom_site_symmetry_multiplicity
  _atom_site_fract_x
  _atom_site_fract_y
  _atom_site_fract_z
  _atom_site_occupancy
  K   K1        1.0  0.75001  0.46936  0.53063  1.0000
  K   K2        1.0  0.25000  0.53063  0.46937  1.0000
  Cd  Cd1       1.0  0.89785  0.38995  0.18077  1.0000
  Cd  Cd2       1.0  0.60215  0.81923  0.61005  1.0000
  Cd  Cd3       1.0  0.10216  0.61005  0.81923  1.0000
  Cd  Cd4       1.0  0.39785  0.18077  0.38995  1.0000
  H   H1        1.0  0.95267  0.89376  0.22942  1.0000
  H   H2        1.0  0.54733  0.77058  0.10624  1.0000
  H   H3        1.0  0.04732  0.10624  0.77057  1.0000
  H   H4        1.0  0.45267  0.22942  0.89376  1.0000
  H   H5        1.0  0.79549  0.06392  0.09129  1.0000
  H   H6        1.0  0.70451  0.90871  0.93608  1.0000
  H   H7        1.0  0.20451  0.93608  0.90871  1.0000
  H   H8        1.0  0.29549  0.09129  0.06392  1.0000
  H   H9        1.0  0.22311  0.37961  0.14549  1.0000
  H   H10       1.0  0.27688  0.85451  0.62040  1.0000
  H   H11       1.0  0.77689  0.62039  0.85451  1.0000
  H   H12       1.0  0.72312  0.14548  0.37961  1.0000
  H   H13       1.0  0.18248  0.53752  0.15452  1.0000
  H   H14       1.0  0.31751  0.84548  0.46248  1.0000
  H   H15       1.0  0.81752  0.46248  0.84547  1.0000
  H   H16       1.0  0.68248  0.15452  0.53752  1.0000
  C   C1        1.0  0.93205  0.68541  0.33609  1.0000
  C   C2        1.0  0.56795  0.66391  0.31459  1.0000
  C   C3        1.0  0.06795  0.31459  0.66390  1.0000
  C   C4        1.0  0.43205  0.33609  0.68541  1.0000
  C   C5        1.0  0.75000  0.09755  0.90245  1.0000
  C   C6        1.0  0.25000  0.90245  0.09755  1.0000
  C   C7        1.0  0.98963  0.90766  0.57625  1.0000
  C   C8        1.0  0.51036  0.42375  0.09234  1.0000
  C   C9        1.0  0.01036  0.09234  0.42375  1.0000
  C   C10       1.0  0.48964  0.57625  0.90766  1.0000
  C   C11       1.0  0.97272  0.94153  0.34839  1.0000
  C   C12       1.0  0.52728  0.65161  0.05847  1.0000
  C   C13       1.0  0.02727  0.05847  0.65161  1.0000
  C   C14       1.0  0.47273  0.34839  0.94153  1.0000
  C   C15       1.0  0.96286  0.84730  0.42248  1.0000
  C   C16       1.0  0.53714  0.57752  0.15270  1.0000
  C   C17       1.0  0.03714  0.15270  0.57752  1.0000
  C   C18       1.0  0.46286  0.42248  0.84730  1.0000
  C   C19       1.0  0.97335  0.81363  0.66298  1.0000
  C   C20       1.0  0.52665  0.33702  0.18637  1.0000
  C   C21       1.0  0.02665  0.18637  0.33702  1.0000
  C   C22       1.0  0.47335  0.66298  0.81363  1.0000
  N   N1        1.0  0.78352  0.27915  0.83385  1.0000
  N   N2        1.0  0.71648  0.16615  0.72085  1.0000
  N   N3        1.0  0.21648  0.72085  0.16615  1.0000
  N   N4        1.0  0.28352  0.83385  0.27915  1.0000
  N   N5        1.0  0.80758  0.24081  0.95008  1.0000
  N   N6        1.0  0.69241  0.04992  0.75919  1.0000
  N   N7        1.0  0.19241  0.75919  0.04992  1.0000
  N   N8        1.0  0.30759  0.95008  0.24081  1.0000
  N   N9        1.0  0.75000  0.01643  0.98357  1.0000
  N   N10       1.0  0.25000  0.98357  0.01643  1.0000
  O   O1        1.0  0.95850  0.60009  0.40322  1.0000
  O   O2        1.0  0.54150  0.59678  0.39991  1.0000
  O   O3        1.0  0.04150  0.39991  0.59678  1.0000
  O   O4        1.0  0.45850  0.40322  0.60009  1.0000
  O   O5        1.0  0.88504  0.63670  0.20023  1.0000
  O   O6        1.0  0.61496  0.79977  0.36331  1.0000
  O   O7        1.0  0.11495  0.36330  0.79977  1.0000
  O   O8        1.0  0.38504  0.20023  0.63670  1.0000
  O   O9        1.0  0.84497  0.76262  0.67304  1.0000
  O   O10       1.0  0.65503  0.32696  0.23738  1.0000
  O   O11       1.0  0.15504  0.23738  0.32696  1.0000
  O   O12       1.0  0.34497  0.67303  0.76261  1.0000
  O   O13       1.0  0.09468  0.79551  0.72669  1.0000
  O   O14       1.0  0.40532  0.27331  0.20450  1.0000
  O   O15       1.0  0.90533  0.20450  0.27331  1.0000
  O   O16       1.0  0.59468  0.72669  0.79551  1.0000
  O   O17       1.0  0.15271  0.44813  0.17454  1.0000
  O   O18       1.0  0.34729  0.82546  0.55188  1.0000
  O   O19       1.0  0.84729  0.55187  0.82546  1.0000
  O   O20       1.0  0.65271  0.17454  0.44813  1.0000
