data_image0
_chemical_formula_structural       Mn2P4H60C72N4O8
_chemical_formula_sum              "Mn2 P4 H60 C72 N4 O8"
_cell_length_a       5.44515
_cell_length_b       13.7423
_cell_length_c       20.871
_cell_angle_alpha    94.6359
_cell_angle_beta     90
_cell_angle_gamma    90

_space_group_name_H-M_alt    "P 1"
_space_group_IT_number       1

loop_
  _space_group_symop_operation_xyz
  'x, y, z'

loop_
  _atom_site_type_symbol
  _atom_site_label
  _atom_site_symmetry_multiplicity
  _atom_site_fract_x
  _atom_site_fract_y
  _atom_site_fract_z
  _atom_site_occupancy
  Mn  Mn1       1.0  0.50000  0.50000  1.00000  1.0000
  Mn  Mn2       1.0  0.00001  0.00000  0.50000  1.0000
  P   P1        1.0  0.00382  0.44669  0.89330  1.0000
  P   P2        1.0  0.50382  0.05330  0.60670  1.0000
  P   P3        1.0  0.99619  0.55330  0.10670  1.0000
  P   P4        1.0  0.49620  0.94670  0.39330  1.0000
  H   H1        1.0  0.68230  0.27772  0.90130  1.0000
  H   H2        1.0  0.18230  0.22227  0.59870  1.0000
  H   H3        1.0  0.31772  0.72227  0.09870  1.0000
  H   H4        1.0  0.81771  0.77773  0.40130  1.0000
  H   H5        1.0  0.72914  0.10188  0.86436  1.0000
  H   H6        1.0  0.22914  0.39811  0.63564  1.0000
  H   H7        1.0  0.27089  0.89811  0.13564  1.0000
  H   H8        1.0  0.77087  0.60189  0.36435  1.0000
  H   H9        1.0  0.10233  0.04546  0.80171  1.0000
  H   H10       1.0  0.60233  0.45454  0.69829  1.0000
  H   H11       1.0  0.89769  0.95454  0.19829  1.0000
  H   H12       1.0  0.39767  0.54547  0.30170  1.0000
  H   H13       1.0  0.42246  0.16537  0.77669  1.0000
  H   H14       1.0  0.92246  0.33463  0.72332  1.0000
  H   H15       1.0  0.57754  0.83463  0.22331  1.0000
  H   H16       1.0  0.07754  0.66538  0.27669  1.0000
  H   H17       1.0  0.38194  0.33892  0.81681  1.0000
  H   H18       1.0  0.88193  0.16107  0.68320  1.0000
  H   H19       1.0  0.61807  0.66108  0.18319  1.0000
  H   H20       1.0  0.11808  0.83894  0.31681  1.0000
  H   H21       1.0  0.57674  0.56514  0.86584  1.0000
  H   H22       1.0  0.07672  0.93486  0.63417  1.0000
  H   H23       1.0  0.42327  0.43485  0.13417  1.0000
  H   H24       1.0  0.92328  0.06515  0.36583  1.0000
  H   H25       1.0  0.48181  0.67171  0.77798  1.0000
  H   H26       1.0  0.98180  0.82829  0.72203  1.0000
  H   H27       1.0  0.51819  0.32828  0.22202  1.0000
  H   H28       1.0  0.01821  0.17171  0.27797  1.0000
  H   H29       1.0  0.76995  0.67956  0.68603  1.0000
  H   H30       1.0  0.26996  0.82044  0.81397  1.0000
  H   H31       1.0  0.23004  0.32043  0.31397  1.0000
  H   H32       1.0  0.73005  0.17955  0.18602  1.0000
  H   H33       1.0  0.15694  0.58243  0.68300  1.0000
  H   H34       1.0  0.65695  0.91757  0.81700  1.0000
  H   H35       1.0  0.84306  0.41757  0.31700  1.0000
  H   H36       1.0  0.34307  0.08242  0.18300  1.0000
  H   H37       1.0  0.25923  0.48187  0.77265  1.0000
  H   H38       1.0  0.75922  0.01812  0.72735  1.0000
  H   H39       1.0  0.74079  0.51813  0.22735  1.0000
  H   H40       1.0  0.24078  0.98188  0.27265  1.0000
  H   H41       1.0  0.85497  0.67970  0.01836  1.0000
  H   H42       1.0  0.35503  0.82031  0.48164  1.0000
  H   H43       1.0  0.14499  0.32032  0.98163  1.0000
  H   H44       1.0  0.64498  0.17970  0.51836  1.0000
  H   H45       1.0  0.81783  0.85838  0.03197  1.0000
  H   H46       1.0  0.31790  0.64163  0.46803  1.0000
  H   H47       1.0  0.18210  0.14164  0.96802  1.0000
  H   H48       1.0  0.68212  0.35838  0.53197  1.0000
  H   H49       1.0  0.11651  0.82758  0.93392  1.0000
  H   H50       1.0  0.61658  0.67242  0.56608  1.0000
  H   H51       1.0  0.88342  0.17241  0.06607  1.0000
  H   H52       1.0  0.38344  0.32758  0.43392  1.0000
  H   H53       1.0  0.17894  0.64706  0.92933  1.0000
  H   H54       1.0  0.67900  0.85294  0.57067  1.0000
  H   H55       1.0  0.82103  0.35293  0.07066  1.0000
  H   H56       1.0  0.32103  0.14706  0.42934  1.0000
  H   H57       1.0  0.24959  0.98838  0.96563  1.0000
  H   H58       1.0  0.74967  0.51163  0.53437  1.0000
  H   H59       1.0  0.75031  0.01163  0.03436  1.0000
  H   H60       1.0  0.25035  0.48837  0.46562  1.0000
  C   C1        1.0  0.02649  0.32006  0.86088  1.0000
  C   C2        1.0  0.52649  0.17993  0.63913  1.0000
  C   C3        1.0  0.97351  0.67993  0.13912  1.0000
  C   C4        1.0  0.47352  0.82007  0.36088  1.0000
  C   C5        1.0  0.84399  0.25252  0.87403  1.0000
  C   C6        1.0  0.34400  0.24748  0.62597  1.0000
  C   C7        1.0  0.15601  0.74748  0.12597  1.0000
  C   C8        1.0  0.65601  0.75252  0.37403  1.0000
  C   C9        1.0  0.87144  0.15388  0.85329  1.0000
  C   C10       1.0  0.37145  0.34612  0.64671  1.0000
  C   C11       1.0  0.12857  0.84612  0.14671  1.0000
  C   C12       1.0  0.62855  0.65388  0.35328  1.0000
  C   C13       1.0  0.07927  0.12231  0.81816  1.0000
  C   C14       1.0  0.57927  0.37769  0.68184  1.0000
  C   C15       1.0  0.92074  0.87769  0.18184  1.0000
  C   C16       1.0  0.42073  0.62232  0.31816  1.0000
  C   C17       1.0  0.26031  0.18959  0.80408  1.0000
  C   C18       1.0  0.76031  0.31041  0.69592  1.0000
  C   C19       1.0  0.73970  0.81041  0.19592  1.0000
  C   C20       1.0  0.23970  0.68960  0.30408  1.0000
  C   C21       1.0  0.23548  0.28769  0.82590  1.0000
  C   C22       1.0  0.73548  0.21231  0.67411  1.0000
  C   C23       1.0  0.76452  0.71231  0.17410  1.0000
  C   C24       1.0  0.26453  0.78770  0.32589  1.0000
  C   C25       1.0  0.92642  0.51816  0.82607  1.0000
  C   C26       1.0  0.42642  0.98183  0.67393  1.0000
  C   C27       1.0  0.07358  0.48183  0.17393  1.0000
  C   C28       1.0  0.57359  0.01817  0.32607  1.0000
  C   C29       1.0  0.70627  0.57121  0.82664  1.0000
  C   C30       1.0  0.20625  0.92879  0.67337  1.0000
  C   C31       1.0  0.29375  0.42878  0.17337  1.0000
  C   C32       1.0  0.79375  0.07122  0.32663  1.0000
  C   C33       1.0  0.65236  0.63011  0.77689  1.0000
  C   C34       1.0  0.15235  0.86989  0.72312  1.0000
  C   C35       1.0  0.34765  0.36989  0.22312  1.0000
  C   C36       1.0  0.84766  0.13010  0.27688  1.0000
  C   C37       1.0  0.81374  0.63436  0.72517  1.0000
  C   C38       1.0  0.31374  0.86564  0.77483  1.0000
  C   C39       1.0  0.18626  0.36564  0.27483  1.0000
  C   C40       1.0  0.68627  0.13435  0.22517  1.0000
  C   C41       1.0  0.03096  0.57981  0.72350  1.0000
  C   C42       1.0  0.53096  0.92019  0.77650  1.0000
  C   C43       1.0  0.96905  0.42019  0.27650  1.0000
  C   C44       1.0  0.46906  0.07980  0.22349  1.0000
  C   C45       1.0  0.08778  0.52281  0.77387  1.0000
  C   C46       1.0  0.58778  0.97719  0.72613  1.0000
  C   C47       1.0  0.91222  0.47719  0.22613  1.0000
  C   C48       1.0  0.41223  0.02281  0.27387  1.0000
  C   C49       1.0  0.69185  0.71528  0.00124  1.0000
  C   C50       1.0  0.19191  0.78472  0.49876  1.0000
  C   C51       1.0  0.30810  0.28473  0.99876  1.0000
  C   C52       1.0  0.80811  0.21528  0.50124  1.0000
  C   C53       1.0  0.67078  0.81609  0.00773  1.0000
  C   C54       1.0  0.17084  0.68391  0.49227  1.0000
  C   C55       1.0  0.32916  0.18392  0.99227  1.0000
  C   C56       1.0  0.82918  0.31609  0.50773  1.0000
  C   C57       1.0  0.46121  0.86087  0.98340  1.0000
  C   C58       1.0  0.96129  0.63913  0.51659  1.0000
  C   C59       1.0  0.53871  0.13913  0.01659  1.0000
  C   C60       1.0  0.03874  0.36087  0.48341  1.0000
  C   C61       1.0  0.28261  0.79775  0.95405  1.0000
  C   C62       1.0  0.78268  0.70225  0.54595  1.0000
  C   C63       1.0  0.71732  0.20225  0.04595  1.0000
  C   C64       1.0  0.21734  0.29775  0.45405  1.0000
  C   C65       1.0  0.31546  0.69745  0.95113  1.0000
  C   C66       1.0  0.81553  0.80256  0.54887  1.0000
  C   C67       1.0  0.68449  0.30255  0.04887  1.0000
  C   C68       1.0  0.18450  0.19745  0.45113  1.0000
  C   C69       1.0  0.42197  0.96545  0.98679  1.0000
  C   C70       1.0  0.92202  0.53456  0.51321  1.0000
  C   C71       1.0  0.57795  0.03455  0.01321  1.0000
  C   C72       1.0  0.07801  0.46545  0.48679  1.0000
  N   N1        1.0  0.51775  0.65549  0.97409  1.0000
  N   N2        1.0  0.01780  0.84451  0.52590  1.0000
  N   N3        1.0  0.48221  0.34451  0.02590  1.0000
  N   N4        1.0  0.98221  0.15549  0.47410  1.0000
  O   O1        1.0  0.79449  0.45433  0.94132  1.0000
  O   O2        1.0  0.29448  0.04568  0.55869  1.0000
  O   O3        1.0  0.20552  0.54567  0.05868  1.0000
  O   O4        1.0  0.70554  0.95433  0.44131  1.0000
  O   O5        1.0  0.25954  0.47724  0.91672  1.0000
  O   O6        1.0  0.75952  0.02275  0.58328  1.0000
  O   O7        1.0  0.74047  0.52275  0.08328  1.0000
  O   O8        1.0  0.24049  0.97725  0.41673  1.0000
