data_image0
_chemical_formula_structural       Mn2H16C16S4N12
_chemical_formula_sum              "Mn2 H16 C16 S4 N12"
_cell_length_a       5.45515
_cell_length_b       6.89425
_cell_length_c       15.6415
_cell_angle_alpha    89.9956
_cell_angle_beta     94.9323
_cell_angle_gamma    90.0015

_space_group_name_H-M_alt    "P 1"
_space_group_IT_number       1

loop_
  _space_group_symop_operation_xyz
  'x, y, z'

loop_
  _atom_site_type_symbol
  _atom_site_label
  _atom_site_symmetry_multiplicity
  _atom_site_fract_x
  _atom_site_fract_y
  _atom_site_fract_z
  _atom_site_occupancy
  Mn  Mn1       1.0  0.50001  0.49997  0.50000  1.0000
  Mn  Mn2       1.0  0.50004  0.00001  1.00000  1.0000
  H   H1        1.0  0.36645  0.42041  0.68458  1.0000
  H   H2        1.0  0.63352  0.92042  0.81540  1.0000
  H   H3        1.0  0.63354  0.57958  0.31542  1.0000
  H   H4        1.0  0.36648  0.07958  0.18459  1.0000
  H   H5        1.0  0.59336  0.46864  0.83482  1.0000
  H   H6        1.0  0.40640  0.96859  0.66519  1.0000
  H   H7        1.0  0.40661  0.53136  0.16519  1.0000
  H   H8        1.0  0.59358  0.03141  0.33480  1.0000
  H   H9        1.0  0.01722  0.66872  0.80463  1.0000
  H   H10       1.0  0.98263  0.16870  0.69542  1.0000
  H   H11       1.0  0.98276  0.33127  0.19538  1.0000
  H   H12       1.0  0.01737  0.83130  0.30457  1.0000
  H   H13       1.0  0.97144  0.72662  0.62930  1.0000
  H   H14       1.0  0.02856  0.22672  0.87071  1.0000
  H   H15       1.0  0.02857  0.27336  0.37071  1.0000
  H   H16       1.0  0.97145  0.77329  0.12929  1.0000
  C   C1        1.0  0.01397  0.27297  0.53737  1.0000
  C   C2        1.0  0.98600  0.77300  0.96272  1.0000
  C   C3        1.0  0.98604  0.72701  0.46264  1.0000
  C   C4        1.0  0.01400  0.22701  0.03728  1.0000
  C   C5        1.0  0.65724  0.52215  0.77535  1.0000
  C   C6        1.0  0.34257  0.02214  0.72466  1.0000
  C   C7        1.0  0.34274  0.47786  0.22466  1.0000
  C   C8        1.0  0.65741  0.97785  0.27533  1.0000
  C   C9        1.0  0.86816  0.62435  0.75853  1.0000
  C   C10       1.0  0.13171  0.12441  0.74151  1.0000
  C   C11       1.0  0.13182  0.37565  0.24149  1.0000
  C   C12       1.0  0.86828  0.87560  0.25848  1.0000
  C   C13       1.0  0.84688  0.65375  0.66920  1.0000
  C   C14       1.0  0.15312  0.15384  0.83082  1.0000
  C   C15       1.0  0.15311  0.34624  0.33081  1.0000
  C   C16       1.0  0.84687  0.84617  0.16917  1.0000
  S   S1        1.0  0.74857  0.16851  0.51921  1.0000
  S   S2        1.0  0.25151  0.66853  0.98076  1.0000
  S   S3        1.0  0.25145  0.83147  0.48080  1.0000
  S   S4        1.0  0.74849  0.33149  0.01923  1.0000
  N   N1        1.0  0.20717  0.35160  0.55185  1.0000
  N   N2        1.0  0.79285  0.85168  0.94810  1.0000
  N   N3        1.0  0.79284  0.64839  0.44815  1.0000
  N   N4        1.0  0.20715  0.14836  0.05189  1.0000
  N   N5        1.0  0.63738  0.57461  0.63336  1.0000
  N   N6        1.0  0.36263  0.07471  0.86667  1.0000
  N   N7        1.0  0.36262  0.42537  0.36665  1.0000
  N   N8        1.0  0.63739  0.92530  0.13333  1.0000
  N   N9        1.0  0.52534  0.49660  0.69902  1.0000
  N   N10       1.0  0.47456  0.99660  0.80098  1.0000
  N   N11       1.0  0.47465  0.50340  0.30098  1.0000
  N   N12       1.0  0.52543  0.00340  0.19901  1.0000
