data_image0
_chemical_formula_structural       Cd4H16C12N8Cl8
_chemical_formula_sum              "Cd4 H16 C12 N8 Cl8"
_cell_length_a       3.84939
_cell_length_b       10.9685
_cell_length_c       15.2789
_cell_angle_alpha    90.0001
_cell_angle_beta     90.0002
_cell_angle_gamma    90.0006

_space_group_name_H-M_alt    "P 1"
_space_group_IT_number       1

loop_
  _space_group_symop_operation_xyz
  'x, y, z'

loop_
  _atom_site_type_symbol
  _atom_site_label
  _atom_site_symmetry_multiplicity
  _atom_site_fract_x
  _atom_site_fract_y
  _atom_site_fract_z
  _atom_site_occupancy
  Cd  Cd1       1.0  0.99458  0.39683  0.58900  1.0000
  Cd  Cd2       1.0  0.49458  0.60317  0.41100  1.0000
  Cd  Cd3       1.0  0.99458  0.89683  0.91100  1.0000
  Cd  Cd4       1.0  0.49458  0.10317  0.08900  1.0000
  H   H1        1.0  0.76136  0.22861  0.76603  1.0000
  H   H2        1.0  0.26137  0.77138  0.23397  1.0000
  H   H3        1.0  0.76136  0.72861  0.73397  1.0000
  H   H4        1.0  0.26136  0.27139  0.26603  1.0000
  H   H5        1.0  0.90748  0.28357  0.92584  1.0000
  H   H6        1.0  0.40749  0.71642  0.07416  1.0000
  H   H7        1.0  0.90748  0.78357  0.57416  1.0000
  H   H8        1.0  0.40748  0.21642  0.42584  1.0000
  H   H9        1.0  0.19677  0.49079  0.93768  1.0000
  H   H10       1.0  0.69678  0.50921  0.06232  1.0000
  H   H11       1.0  0.19678  0.99079  0.56232  1.0000
  H   H12       1.0  0.69678  0.00921  0.43768  1.0000
  H   H13       1.0  0.25671  0.57232  0.76631  1.0000
  H   H14       1.0  0.75672  0.42768  0.23369  1.0000
  H   H15       1.0  0.25672  0.07232  0.73369  1.0000
  H   H16       1.0  0.75672  0.92768  0.26631  1.0000
  C   C1        1.0  0.88932  0.31108  0.78807  1.0000
  C   C2        1.0  0.38933  0.68892  0.21193  1.0000
  C   C3        1.0  0.88932  0.81108  0.71193  1.0000
  C   C4        1.0  0.38933  0.18892  0.28807  1.0000
  C   C5        1.0  0.11639  0.44973  0.87656  1.0000
  C   C6        1.0  0.61640  0.55027  0.12344  1.0000
  C   C7        1.0  0.11640  0.94973  0.62344  1.0000
  C   C8        1.0  0.61640  0.05027  0.37656  1.0000
  C   C9        1.0  0.14291  0.48921  0.79149  1.0000
  C   C10       1.0  0.64292  0.51079  0.20851  1.0000
  C   C11       1.0  0.14292  0.98921  0.70851  1.0000
  C   C12       1.0  0.64292  0.01079  0.29149  1.0000
  N   N1        1.0  0.00055  0.40181  0.73706  1.0000
  N   N2        1.0  0.50056  0.59819  0.26294  1.0000
  N   N3        1.0  0.00056  0.90181  0.76294  1.0000
  N   N4        1.0  0.50056  0.09819  0.23706  1.0000
  N   N5        1.0  0.95599  0.33774  0.87269  1.0000
  N   N6        1.0  0.45599  0.66226  0.12731  1.0000
  N   N7        1.0  0.95599  0.83774  0.62731  1.0000
  N   N8        1.0  0.45599  0.16226  0.37269  1.0000
  Cl  Cl1       1.0  0.49742  0.57524  0.58475  1.0000
  Cl  Cl2       1.0  0.99741  0.42476  0.41525  1.0000
  Cl  Cl3       1.0  0.49742  0.07524  0.91525  1.0000
  Cl  Cl4       1.0  0.99742  0.92476  0.08475  1.0000
  Cl  Cl5       1.0  0.49657  0.23452  0.57821  1.0000
  Cl  Cl6       1.0  0.99658  0.76548  0.42179  1.0000
  Cl  Cl7       1.0  0.49657  0.73452  0.92179  1.0000
  Cl  Cl8       1.0  0.99659  0.26548  0.07821  1.0000
