data_image0
_chemical_formula_structural       Cd2H16C12N8Cl4
_chemical_formula_sum              "Cd2 H16 C12 N8 Cl4"
_cell_length_a       3.89231
_cell_length_b       9.66087
_cell_length_c       13.1014
_cell_angle_alpha    90.0001
_cell_angle_beta     90.0002
_cell_angle_gamma    92.8025

_space_group_name_H-M_alt    "P 1"
_space_group_IT_number       1

loop_
  _space_group_symop_operation_xyz
  'x, y, z'

loop_
  _atom_site_type_symbol
  _atom_site_label
  _atom_site_symmetry_multiplicity
  _atom_site_fract_x
  _atom_site_fract_y
  _atom_site_fract_z
  _atom_site_occupancy
  Cd  Cd1       1.0  1.00000  1.00000  1.00000  1.0000
  Cd  Cd2       1.0  1.00000  0.50000  0.50000  1.0000
  H   H1        1.0  0.68914  0.79353  0.80811  1.0000
  H   H2        1.0  0.31085  0.70647  0.30812  1.0000
  H   H3        1.0  0.31087  0.20647  0.19189  1.0000
  H   H4        1.0  0.68914  0.29353  0.69189  1.0000
  H   H5        1.0  0.79908  0.83338  0.61737  1.0000
  H   H6        1.0  0.20092  0.66663  0.11737  1.0000
  H   H7        1.0  0.20092  0.16662  0.38263  1.0000
  H   H8        1.0  0.79908  0.33338  0.88263  1.0000
  H   H9        1.0  0.18189  0.05680  0.58713  1.0000
  H   H10       1.0  0.81811  0.44321  0.08713  1.0000
  H   H11       1.0  0.81811  0.94320  0.41287  1.0000
  H   H12       1.0  0.18190  0.55680  0.91287  1.0000
  H   H13       1.0  0.31208  0.15985  0.78255  1.0000
  H   H14       1.0  0.68792  0.34015  0.28255  1.0000
  H   H15       1.0  0.68792  0.84015  0.21745  1.0000
  H   H16       1.0  0.31208  0.65985  0.71745  1.0000
  C   C1        1.0  0.84077  0.87917  0.77502  1.0000
  C   C2        1.0  0.15923  0.62083  0.27502  1.0000
  C   C3        1.0  0.15924  0.12083  0.22498  1.0000
  C   C4        1.0  0.84077  0.37917  0.72498  1.0000
  C   C5        1.0  0.09945  0.01800  0.66121  1.0000
  C   C6        1.0  0.90055  0.48200  0.16121  1.0000
  C   C7        1.0  0.90055  0.98200  0.33879  1.0000
  C   C8        1.0  0.09946  0.51800  0.83879  1.0000
  C   C9        1.0  0.16119  0.06903  0.75780  1.0000
  C   C10       1.0  0.83881  0.43097  0.25780  1.0000
  C   C11       1.0  0.83881  0.93097  0.24220  1.0000
  C   C12       1.0  0.16119  0.56903  0.74220  1.0000
  N   N1        1.0  0.99838  0.98154  0.82788  1.0000
  N   N2        1.0  0.00162  0.51846  0.32788  1.0000
  N   N3        1.0  0.00162  0.01846  0.17212  1.0000
  N   N4        1.0  0.99838  0.48153  0.67212  1.0000
  N   N5        1.0  0.89854  0.89779  0.67412  1.0000
  N   N6        1.0  0.10146  0.60221  0.17412  1.0000
  N   N7        1.0  0.10147  0.10221  0.32588  1.0000
  N   N8        1.0  0.89854  0.39779  0.82588  1.0000
  Cl  Cl1       1.0  0.52252  0.20011  0.99133  1.0000
  Cl  Cl2       1.0  0.47748  0.29989  0.49133  1.0000
  Cl  Cl3       1.0  0.47748  0.79988  0.00867  1.0000
  Cl  Cl4       1.0  0.52251  0.70012  0.50867  1.0000
