data_image0
_chemical_formula_structural       Cu4H20C20S4N16Cl8
_chemical_formula_sum              "Cu4 H20 C20 S4 N16 Cl8"
_cell_length_a       5.86921
_cell_length_b       9.58067
_cell_length_c       16.4096
_cell_angle_alpha    95.3068
_cell_angle_beta     90.0002
_cell_angle_gamma    89.9997

_space_group_name_H-M_alt    "P 1"
_space_group_IT_number       1

loop_
  _space_group_symop_operation_xyz
  'x, y, z'

loop_
  _atom_site_type_symbol
  _atom_site_label
  _atom_site_symmetry_multiplicity
  _atom_site_fract_x
  _atom_site_fract_y
  _atom_site_fract_z
  _atom_site_occupancy
  Cu  Cu1       1.0  0.92190  0.73405  0.16808  1.0000
  Cu  Cu2       1.0  0.42190  0.76595  0.33192  1.0000
  Cu  Cu3       1.0  0.07810  0.26595  0.83192  1.0000
  Cu  Cu4       1.0  0.57808  0.23405  0.66807  1.0000
  H   H1        1.0  0.78310  0.12750  0.49733  1.0000
  H   H2        1.0  0.28311  0.37249  0.00267  1.0000
  H   H3        1.0  0.21688  0.87250  0.50268  1.0000
  H   H4        1.0  0.71689  0.62750  0.99733  1.0000
  H   H5        1.0  0.48997  0.11508  0.39901  1.0000
  H   H6        1.0  0.98999  0.38493  0.10099  1.0000
  H   H7        1.0  0.51000  0.88492  0.60099  1.0000
  H   H8        1.0  0.01003  0.61508  0.89901  1.0000
  H   H9        1.0  0.10354  0.27450  0.49962  1.0000
  H   H10       1.0  0.60355  0.22549  0.00038  1.0000
  H   H11       1.0  0.89645  0.72550  0.50039  1.0000
  H   H12       1.0  0.39645  0.77450  0.99961  1.0000
  H   H13       1.0  0.28218  0.50483  0.39566  1.0000
  H   H14       1.0  0.78219  0.99517  0.10434  1.0000
  H   H15       1.0  0.71782  0.49517  0.60434  1.0000
  H   H16       1.0  0.21782  0.00483  0.89566  1.0000
  H   H17       1.0  0.75587  0.47665  0.22647  1.0000
  H   H18       1.0  0.25588  0.02335  0.27353  1.0000
  H   H19       1.0  0.24413  0.52334  0.77353  1.0000
  H   H20       1.0  0.74414  0.97665  0.72647  1.0000
  C   C1        1.0  0.62862  0.18965  0.39288  1.0000
  C   C2        1.0  0.12863  0.31035  0.10712  1.0000
  C   C3        1.0  0.37135  0.81036  0.60712  1.0000
  C   C4        1.0  0.87138  0.68965  0.89288  1.0000
  C   C5        1.0  0.80363  0.35859  0.33110  1.0000
  C   C6        1.0  0.30365  0.14141  0.16890  1.0000
  C   C7        1.0  0.19636  0.64142  0.66890  1.0000
  C   C8        1.0  0.69638  0.85859  0.83110  1.0000
  C   C9        1.0  0.98510  0.36667  0.38909  1.0000
  C   C10       1.0  0.48511  0.13334  0.11091  1.0000
  C   C11       1.0  0.01489  0.63334  0.61091  1.0000
  C   C12       1.0  0.51491  0.86667  0.88909  1.0000
  C   C13       1.0  0.97816  0.27878  0.45079  1.0000
  C   C14       1.0  0.47815  0.22121  0.04921  1.0000
  C   C15       1.0  0.02184  0.72121  0.54921  1.0000
  C   C16       1.0  0.52185  0.77879  0.95079  1.0000
  C   C17       1.0  0.05401  0.52020  0.29715  1.0000
  C   C18       1.0  0.55402  0.97980  0.20285  1.0000
  C   C19       1.0  0.94598  0.47980  0.70285  1.0000
  C   C20       1.0  0.44599  0.02020  0.79715  1.0000
  S   S1        1.0  0.18819  0.63557  0.24314  1.0000
  S   S2        1.0  0.68818  0.86441  0.25686  1.0000
  S   S3        1.0  0.81182  0.36441  0.75685  1.0000
  S   S4        1.0  0.31181  0.13557  0.74314  1.0000
  N   N1        1.0  0.79521  0.19183  0.44927  1.0000
  N   N2        1.0  0.29522  0.30817  0.05073  1.0000
  N   N3        1.0  0.20477  0.80817  0.55073  1.0000
  N   N4        1.0  0.70479  0.69183  0.94927  1.0000
  N   N5        1.0  0.62608  0.27180  0.33169  1.0000
  N   N6        1.0  0.12610  0.22821  0.16831  1.0000
  N   N7        1.0  0.37390  0.72820  0.66831  1.0000
  N   N8        1.0  0.87394  0.77181  0.83170  1.0000
  N   N9        1.0  0.13322  0.46704  0.36655  1.0000
  N   N10       1.0  0.63320  0.03296  0.13345  1.0000
  N   N11       1.0  0.86679  0.53296  0.63345  1.0000
  N   N12       1.0  0.36680  0.96704  0.86655  1.0000
  N   N13       1.0  0.85038  0.45363  0.27691  1.0000
  N   N14       1.0  0.35040  0.04637  0.22309  1.0000
  N   N15       1.0  0.14962  0.54636  0.72309  1.0000
  N   N16       1.0  0.64963  0.95364  0.77692  1.0000
  Cl  Cl1       1.0  0.06130  0.86560  0.07024  1.0000
  Cl  Cl2       1.0  0.56129  0.63440  0.42976  1.0000
  Cl  Cl3       1.0  0.93871  0.13440  0.92976  1.0000
  Cl  Cl4       1.0  0.43869  0.36560  0.57024  1.0000
  Cl  Cl5       1.0  0.67815  0.55168  0.10932  1.0000
  Cl  Cl6       1.0  0.17814  0.94831  0.39067  1.0000
  Cl  Cl7       1.0  0.32186  0.44831  0.89067  1.0000
  Cl  Cl8       1.0  0.82185  0.05168  0.60932  1.0000
