data_image0
_chemical_formula_structural       Cu4H40C48N16O8
_chemical_formula_sum              "Cu4 H40 C48 N16 O8"
_cell_length_a       9.83002
_cell_length_b       12.0547
_cell_length_c       12.0106
_cell_angle_alpha    80.5675
_cell_angle_beta     65.8441
_cell_angle_gamma    66.3919

_space_group_name_H-M_alt    "P 1"
_space_group_IT_number       1

loop_
  _space_group_symop_operation_xyz
  'x, y, z'

loop_
  _atom_site_type_symbol
  _atom_site_label
  _atom_site_symmetry_multiplicity
  _atom_site_fract_x
  _atom_site_fract_y
  _atom_site_fract_z
  _atom_site_occupancy
  Cu  Cu1       1.0  1.00000  1.00000  0.00000  1.0000
  Cu  Cu2       1.0  0.50000  1.00000  0.50000  1.0000
  Cu  Cu3       1.0  0.00000  0.50000  0.50000  1.0000
  Cu  Cu4       1.0  1.00000  0.50000  0.00000  1.0000
  H   H1        1.0  0.01358  0.84634  0.21505  1.0000
  H   H2        1.0  0.36047  0.21483  0.65306  1.0000
  H   H3        1.0  0.07735  0.65261  0.28455  1.0000
  H   H4        1.0  0.22869  0.28489  0.84635  1.0000
  H   H5        1.0  0.98642  0.15366  0.78496  1.0000
  H   H6        1.0  0.63954  0.78518  0.34694  1.0000
  H   H7        1.0  0.92265  0.34739  0.71545  1.0000
  H   H8        1.0  0.77130  0.71511  0.15365  1.0000
  H   H9        1.0  0.10722  0.82901  0.38581  1.0000
  H   H10       1.0  0.43664  0.38561  0.67014  1.0000
  H   H11       1.0  0.32410  0.67015  0.11351  1.0000
  H   H12       1.0  0.49124  0.11576  0.82903  1.0000
  H   H13       1.0  0.89277  0.17099  0.61419  1.0000
  H   H14       1.0  0.56336  0.61440  0.32986  1.0000
  H   H15       1.0  0.67590  0.32986  0.88649  1.0000
  H   H16       1.0  0.50875  0.88424  0.17097  1.0000
  H   H17       1.0  0.20467  0.98780  0.40170  1.0000
  H   H18       1.0  0.69284  0.40148  0.51135  1.0000
  H   H19       1.0  0.59404  0.51243  0.09806  1.0000
  H   H20       1.0  0.60314  0.10085  0.98822  1.0000
  H   H21       1.0  0.79533  0.01220  0.59830  1.0000
  H   H22       1.0  0.30716  0.59853  0.48864  1.0000
  H   H23       1.0  0.40596  0.48757  0.90194  1.0000
  H   H24       1.0  0.39686  0.89915  0.01178  1.0000
  H   H25       1.0  0.20771  0.15301  0.24599  1.0000
  H   H26       1.0  0.86168  0.24535  0.34644  1.0000
  H   H27       1.0  0.60469  0.34829  0.25481  1.0000
  H   H28       1.0  0.45100  0.25610  0.15393  1.0000
  H   H29       1.0  0.79229  0.84699  0.75400  1.0000
  H   H30       1.0  0.13833  0.75465  0.65355  1.0000
  H   H31       1.0  0.39531  0.65171  0.74518  1.0000
  H   H32       1.0  0.54901  0.74390  0.84606  1.0000
  H   H33       1.0  0.12061  0.15105  0.07619  1.0000
  H   H34       1.0  0.77271  0.07553  0.34875  1.0000
  H   H35       1.0  0.34609  0.35001  0.42477  1.0000
  H   H36       1.0  0.19616  0.42440  0.15190  1.0000
  H   H37       1.0  0.87939  0.84895  0.92381  1.0000
  H   H38       1.0  0.22729  0.92448  0.65125  1.0000
  H   H39       1.0  0.65391  0.64999  0.57523  1.0000
  H   H40       1.0  0.80384  0.57560  0.84810  1.0000
  C   C1        1.0  0.31234  0.99867  0.81382  1.0000
  C   C2        1.0  0.80970  0.81464  0.50127  1.0000
  C   C3        1.0  0.12493  0.50124  0.68659  1.0000
  C   C4        1.0  0.12626  0.68611  0.99872  1.0000
  C   C5        1.0  0.68766  0.00133  0.18618  1.0000
  C   C6        1.0  0.19031  0.18536  0.49873  1.0000
  C   C7        1.0  0.87507  0.49876  0.31342  1.0000
  C   C8        1.0  0.87373  0.31389  0.00130  1.0000
  C   C9        1.0  0.06256  0.90937  0.22432  1.0000
  C   C10       1.0  0.47247  0.22405  0.59003  1.0000
  C   C11       1.0  0.19765  0.59013  0.27547  1.0000
  C   C12       1.0  0.28620  0.27622  0.90959  1.0000
  C   C13       1.0  0.93744  0.09063  0.77568  1.0000
  C   C14       1.0  0.52753  0.77595  0.40997  1.0000
  C   C15       1.0  0.80235  0.40987  0.72453  1.0000
  C   C16       1.0  0.71379  0.72378  0.09042  1.0000
  C   C17       1.0  0.11268  0.90183  0.31926  1.0000
  C   C18       1.0  0.51495  0.31904  0.59738  1.0000
  C   C19       1.0  0.33508  0.59775  0.18039  1.0000
  C   C20       1.0  0.43024  0.18213  0.90207  1.0000
  C   C21       1.0  0.88732  0.09817  0.68074  1.0000
  C   C22       1.0  0.48505  0.68096  0.40262  1.0000
  C   C23       1.0  0.66492  0.40225  0.81961  1.0000
  C   C24       1.0  0.56976  0.81787  0.09793  1.0000
  C   C25       1.0  0.16621  0.98982  0.32798  1.0000
  C   C26       1.0  0.65655  0.32769  0.50938  1.0000
  C   C27       1.0  0.48402  0.51042  0.17200  1.0000
  C   C28       1.0  0.49177  0.17394  0.99029  1.0000
  C   C29       1.0  0.83380  0.01018  0.67202  1.0000
  C   C30       1.0  0.34346  0.67231  0.49062  1.0000
  C   C31       1.0  0.51599  0.48957  0.82799  1.0000
  C   C32       1.0  0.50823  0.82606  0.00971  1.0000
  C   C33       1.0  0.16886  0.08198  0.24091  1.0000
  C   C34       1.0  0.75158  0.24044  0.41742  1.0000
  C   C35       1.0  0.49070  0.41882  0.25961  1.0000
  C   C36       1.0  0.40757  0.26076  0.08271  1.0000
  C   C37       1.0  0.83114  0.91802  0.75909  1.0000
  C   C38       1.0  0.24842  0.75956  0.58258  1.0000
  C   C39       1.0  0.50930  0.58118  0.74039  1.0000
  C   C40       1.0  0.59244  0.73923  0.91729  1.0000
  C   C41       1.0  0.11922  0.08263  0.14762  1.0000
  C   C42       1.0  0.70263  0.14708  0.41699  1.0000
  C   C43       1.0  0.34850  0.41806  0.35299  1.0000
  C   C44       1.0  0.26569  0.35322  0.08327  1.0000
  C   C45       1.0  0.88078  0.91737  0.85238  1.0000
  C   C46       1.0  0.29737  0.85292  0.58300  1.0000
  C   C47       1.0  0.65150  0.58194  0.64701  1.0000
  C   C48       1.0  0.73431  0.64678  0.91674  1.0000
  N   N1        1.0  0.17873  0.04510  0.88730  1.0000
  N   N2        1.0  0.72258  0.88847  0.45554  1.0000
  N   N3        1.0  0.11011  0.45536  0.61289  1.0000
  N   N4        1.0  0.06651  0.61205  0.04520  1.0000
  N   N5        1.0  0.82127  0.95490  0.11270  1.0000
  N   N6        1.0  0.27743  0.11153  0.54446  1.0000
  N   N7        1.0  0.88989  0.54464  0.38711  1.0000
  N   N8        1.0  0.93348  0.38794  0.95482  1.0000
  N   N9        1.0  0.06703  0.99756  0.13992  1.0000
  N   N10       1.0  0.56523  0.13952  0.50202  1.0000
  N   N11       1.0  0.20479  0.50241  0.36029  1.0000
  N   N12       1.0  0.20640  0.36046  0.99798  1.0000
  N   N13       1.0  0.93297  0.00245  0.86008  1.0000
  N   N14       1.0  0.43477  0.86048  0.49797  1.0000
  N   N15       1.0  0.79521  0.49760  0.63971  1.0000
  N   N16       1.0  0.79359  0.63954  0.00202  1.0000
  O   O1        1.0  0.44870  0.95800  0.73934  1.0000
  O   O2        1.0  0.90529  0.74004  0.54128  1.0000
  O   O3        1.0  0.14708  0.54153  0.76119  1.0000
  O   O4        1.0  0.18784  0.76106  0.95803  1.0000
  O   O5        1.0  0.55130  0.04200  0.26066  1.0000
  O   O6        1.0  0.09471  0.25996  0.45872  1.0000
  O   O7        1.0  0.85292  0.45847  0.23881  1.0000
  O   O8        1.0  0.81215  0.23893  0.04198  1.0000
