data_image0
_chemical_formula_structural       Zn4H20C16N36
_chemical_formula_sum              "Zn4 H20 C16 N36"
_cell_length_a       7.39795
_cell_length_b       7.7884
_cell_length_c       14.1913
_cell_angle_alpha    89.9999
_cell_angle_beta     90
_cell_angle_gamma    95.1396

_space_group_name_H-M_alt    "P 1"
_space_group_IT_number       1

loop_
  _space_group_symop_operation_xyz
  'x, y, z'

loop_
  _atom_site_type_symbol
  _atom_site_label
  _atom_site_symmetry_multiplicity
  _atom_site_fract_x
  _atom_site_fract_y
  _atom_site_fract_z
  _atom_site_occupancy
  Zn  Zn1       1.0  0.83469  0.49263  0.42214  1.0000
  Zn  Zn2       1.0  0.66531  0.00737  0.92214  1.0000
  Zn  Zn3       1.0  0.16531  0.50737  0.57786  1.0000
  Zn  Zn4       1.0  0.33469  0.99263  0.07786  1.0000
  H   H1        1.0  0.53995  0.90248  0.27176  1.0000
  H   H2        1.0  0.96005  0.59752  0.77176  1.0000
  H   H3        1.0  0.46005  0.09752  0.72824  1.0000
  H   H4        1.0  0.03995  0.40248  0.22824  1.0000
  H   H5        1.0  0.47944  0.35072  0.11981  1.0000
  H   H6        1.0  0.02056  0.14929  0.61981  1.0000
  H   H7        1.0  0.52056  0.64929  0.88019  1.0000
  H   H8        1.0  0.97944  0.85071  0.38019  1.0000
  H   H9        1.0  0.65352  0.52471  0.24411  1.0000
  H   H10       1.0  0.84648  0.97529  0.74411  1.0000
  H   H11       1.0  0.34648  0.47529  0.75589  1.0000
  H   H12       1.0  0.15352  0.02471  0.25589  1.0000
  H   H13       1.0  0.78736  0.13247  0.46511  1.0000
  H   H14       1.0  0.71264  0.36753  0.96511  1.0000
  H   H15       1.0  0.21264  0.86753  0.53489  1.0000
  H   H16       1.0  0.28737  0.63247  0.03489  1.0000
  H   H17       1.0  0.69829  0.92864  0.42013  1.0000
  H   H18       1.0  0.80171  0.57136  0.92013  1.0000
  H   H19       1.0  0.30171  0.07136  0.57987  1.0000
  H   H20       1.0  0.19829  0.42864  0.07987  1.0000
  C   C1        1.0  0.66375  0.13864  0.33677  1.0000
  C   C2        1.0  0.83625  0.36135  0.83677  1.0000
  C   C3        1.0  0.33625  0.86135  0.66323  1.0000
  C   C4        1.0  0.16375  0.63865  0.16323  1.0000
  C   C5        1.0  0.56481  0.04201  0.26480  1.0000
  C   C6        1.0  0.93519  0.45799  0.76480  1.0000
  C   C7        1.0  0.43519  0.95799  0.73520  1.0000
  C   C8        1.0  0.06481  0.54201  0.23520  1.0000
  C   C9        1.0  0.53161  0.29091  0.18199  1.0000
  C   C10       1.0  0.96839  0.20909  0.68199  1.0000
  C   C11       1.0  0.46839  0.70909  0.81801  1.0000
  C   C12       1.0  0.03161  0.79090  0.31801  1.0000
  C   C13       1.0  0.62746  0.38545  0.25046  1.0000
  C   C14       1.0  0.87254  0.11455  0.75046  1.0000
  C   C15       1.0  0.37254  0.61455  0.74954  1.0000
  C   C16       1.0  0.12746  0.88545  0.24954  1.0000
  N   N1        1.0  0.96263  0.66662  0.52932  1.0000
  N   N2        1.0  0.53737  0.83338  0.02932  1.0000
  N   N3        1.0  0.03737  0.33338  0.47068  1.0000
  N   N4        1.0  0.46263  0.16662  0.97068  1.0000
  N   N5        1.0  0.85422  0.72492  0.58175  1.0000
  N   N6        1.0  0.64578  0.77508  0.08175  1.0000
  N   N7        1.0  0.14578  0.27508  0.41825  1.0000
  N   N8        1.0  0.35422  0.22492  0.91825  1.0000
  N   N9        1.0  0.74766  0.78205  0.62988  1.0000
  N   N10       1.0  0.75234  0.71795  0.12988  1.0000
  N   N11       1.0  0.25234  0.21795  0.37012  1.0000
  N   N12       1.0  0.24766  0.28205  0.87012  1.0000
  N   N13       1.0  0.63891  0.68105  0.40326  1.0000
  N   N14       1.0  0.86109  0.81895  0.90326  1.0000
  N   N15       1.0  0.36109  0.31895  0.59674  1.0000
  N   N16       1.0  0.13891  0.18105  0.09674  1.0000
  N   N17       1.0  0.48662  0.65127  0.43093  1.0000
  N   N18       1.0  0.01338  0.84873  0.93093  1.0000
  N   N19       1.0  0.51339  0.34873  0.56907  1.0000
  N   N20       1.0  0.98662  0.15127  0.06907  1.0000
  N   N21       1.0  0.33481  0.62735  0.45499  1.0000
  N   N22       1.0  0.16519  0.87265  0.95499  1.0000
  N   N23       1.0  0.66519  0.37265  0.54501  1.0000
  N   N24       1.0  0.83481  0.12735  0.04501  1.0000
  N   N25       1.0  0.69514  0.31211  0.32730  1.0000
  N   N26       1.0  0.80486  0.18789  0.82730  1.0000
  N   N27       1.0  0.30486  0.68789  0.67270  1.0000
  N   N28       1.0  0.19514  0.81211  0.17270  1.0000
  N   N29       1.0  0.50034  0.11775  0.19010  1.0000
  N   N30       1.0  0.99966  0.38225  0.69010  1.0000
  N   N31       1.0  0.49967  0.88225  0.80990  1.0000
  N   N32       1.0  0.00034  0.61775  0.30990  1.0000
  N   N33       1.0  0.72465  0.05978  0.41299  1.0000
  N   N34       1.0  0.77535  0.44022  0.91299  1.0000
  N   N35       1.0  0.27535  0.94022  0.58701  1.0000
  N   N36       1.0  0.22465  0.55978  0.08701  1.0000
