data_image0
_chemical_formula_structural       Zn3H10C8N24
_chemical_formula_sum              "Zn3 H10 C8 N24"
_cell_length_a       7.8466
_cell_length_b       8.03939
_cell_length_c       9.31504
_cell_angle_alpha    71.5383
_cell_angle_beta     81.1605
_cell_angle_gamma    78.0668

_space_group_name_H-M_alt    "P 1"
_space_group_IT_number       1

loop_
  _space_group_symop_operation_xyz
  'x, y, z'

loop_
  _atom_site_type_symbol
  _atom_site_label
  _atom_site_symmetry_multiplicity
  _atom_site_fract_x
  _atom_site_fract_y
  _atom_site_fract_z
  _atom_site_occupancy
  Zn  Zn1       1.0  1.00000  0.50000  1.00000  1.0000
  Zn  Zn2       1.0  0.03315  0.41238  0.68100  1.0000
  Zn  Zn3       1.0  0.96685  0.58762  0.31900  1.0000
  H   H1        1.0  0.28692  0.73328  0.81331  1.0000
  H   H2        1.0  0.71308  0.26672  0.18669  1.0000
  H   H3        1.0  0.77352  0.19176  0.81908  1.0000
  H   H4        1.0  0.22648  0.80824  0.18092  1.0000
  H   H5        1.0  0.75585  0.87042  0.94186  1.0000
  H   H6        1.0  0.24415  0.12958  0.05814  1.0000
  H   H7        1.0  0.34831  0.19310  0.60937  1.0000
  H   H8        1.0  0.65169  0.80690  0.39063  1.0000
  H   H9        1.0  0.44410  0.96955  0.66973  1.0000
  H   H10       1.0  0.55590  0.03045  0.33027  1.0000
  C   C1        1.0  0.17118  0.83504  0.81347  1.0000
  C   C2        1.0  0.82882  0.16496  0.18653  1.0000
  C   C3        1.0  0.18380  0.01809  0.73914  1.0000
  C   C4        1.0  0.81620  0.98191  0.26086  1.0000
  C   C5        1.0  0.88800  0.08920  0.81569  1.0000
  C   C6        1.0  0.11200  0.91080  0.18431  1.0000
  C   C7        1.0  0.87809  0.91206  0.88484  1.0000
  C   C8        1.0  0.12191  0.08794  0.11516  1.0000
  N   N1        1.0  0.20009  0.42223  0.84028  1.0000
  N   N2        1.0  0.79991  0.57777  0.15972  1.0000
  N   N3        1.0  0.35354  0.36771  0.85815  1.0000
  N   N4        1.0  0.64646  0.63229  0.14185  1.0000
  N   N5        1.0  0.50006  0.31485  0.87768  1.0000
  N   N6        1.0  0.49994  0.68515  0.12232  1.0000
  N   N7        1.0  0.15493  0.48543  0.17799  1.0000
  N   N8        1.0  0.84507  0.51458  0.82201  1.0000
  N   N9        1.0  0.27477  0.36873  0.22567  1.0000
  N   N10       1.0  0.72523  0.63127  0.77433  1.0000
  N   N11       1.0  0.39065  0.25787  0.27046  1.0000
  N   N12       1.0  0.60935  0.74213  0.72954  1.0000
  N   N13       1.0  0.83270  0.46490  0.51010  1.0000
  N   N14       1.0  0.16730  0.53510  0.48990  1.0000
  N   N15       1.0  0.72393  0.37551  0.51425  1.0000
  N   N16       1.0  0.27607  0.62449  0.48575  1.0000
  N   N17       1.0  0.61989  0.28871  0.52219  1.0000
  N   N18       1.0  0.38012  0.71129  0.47781  1.0000
  N   N19       1.0  0.02248  0.78547  0.88480  1.0000
  N   N20       1.0  0.97752  0.21453  0.11520  1.0000
  N   N21       1.0  0.03940  0.14344  0.74498  1.0000
  N   N22       1.0  0.96060  0.85656  0.25502  1.0000
  N   N23       1.0  0.33552  0.06524  0.66753  1.0000
  N   N24       1.0  0.66448  0.93477  0.33247  1.0000
