data_image0
_chemical_formula_structural       Co2Cu2H40C54N8O12
_chemical_formula_sum              "Co2 Cu2 H40 C54 N8 O12"
_cell_length_a       9.91687
_cell_length_b       11.8629
_cell_length_c       12.2172
_cell_angle_alpha    68.313
_cell_angle_beta     85.8354
_cell_angle_gamma    67.5754

_space_group_name_H-M_alt    "P 1"
_space_group_IT_number       1

loop_
  _space_group_symop_operation_xyz
  'x, y, z'

loop_
  _atom_site_type_symbol
  _atom_site_label
  _atom_site_symmetry_multiplicity
  _atom_site_fract_x
  _atom_site_fract_y
  _atom_site_fract_z
  _atom_site_occupancy
  Co  Co1       1.0  0.08290  0.32736  0.66291  1.0000
  Co  Co2       1.0  0.91711  0.67262  0.33709  1.0000
  Cu  Cu1       1.0  0.29389  0.23675  0.09225  1.0000
  Cu  Cu2       1.0  0.70611  0.76325  0.90775  1.0000
  H   H1        1.0  0.81130  0.45064  0.27405  1.0000
  H   H2        1.0  0.18871  0.54936  0.72595  1.0000
  H   H3        1.0  0.58780  0.45574  0.18806  1.0000
  H   H4        1.0  0.41220  0.54425  0.81194  1.0000
  H   H5        1.0  0.61088  0.37418  0.02190  1.0000
  H   H6        1.0  0.38912  0.62582  0.97810  1.0000
  H   H7        1.0  0.84794  0.30225  0.93906  1.0000
  H   H8        1.0  0.15206  0.69775  0.06094  1.0000
  H   H9        1.0  0.04407  0.41973  0.28403  1.0000
  H   H10       1.0  0.95593  0.58027  0.71597  1.0000
  H   H11       1.0  0.26161  0.41910  0.30330  1.0000
  H   H12       1.0  0.73839  0.58090  0.69670  1.0000
  H   H13       1.0  0.38378  0.39033  0.19392  1.0000
  H   H14       1.0  0.61622  0.60967  0.80608  1.0000
  H   H15       1.0  0.36825  0.19985  0.43734  1.0000
  H   H16       1.0  0.63175  0.80015  0.56266  1.0000
  H   H17       1.0  0.52139  0.23060  0.36823  1.0000
  H   H18       1.0  0.47861  0.76940  0.63176  1.0000
  H   H19       1.0  0.55984  0.01817  0.37106  1.0000
  H   H20       1.0  0.44016  0.98184  0.62893  1.0000
  H   H21       1.0  0.37028  0.06019  0.34258  1.0000
  H   H22       1.0  0.62972  0.93981  0.65742  1.0000
  H   H23       1.0  0.69437  0.01330  0.22209  1.0000
  H   H24       1.0  0.30563  0.98670  0.77791  1.0000
  H   H25       1.0  0.50412  0.18486  0.75123  1.0000
  H   H26       1.0  0.49588  0.81514  0.24877  1.0000
  H   H27       1.0  0.76794  0.09693  0.72752  1.0000
  H   H28       1.0  0.23206  0.90307  0.27247  1.0000
  H   H29       1.0  0.94897  0.99192  0.90223  1.0000
  H   H30       1.0  0.05103  0.00808  0.09777  1.0000
  H   H31       1.0  0.85785  0.98462  0.10034  1.0000
  H   H32       1.0  0.14215  0.01537  0.89966  1.0000
  H   H33       1.0  0.02138  0.94442  0.71718  1.0000
  H   H34       1.0  0.97861  0.05559  0.28282  1.0000
  H   H35       1.0  0.06469  0.18373  0.36498  1.0000
  H   H36       1.0  0.93530  0.81627  0.63502  1.0000
  H   H37       1.0  0.60609  0.59162  0.31390  1.0000
  H   H38       1.0  0.39391  0.40838  0.68610  1.0000
  H   H39       1.0  0.65519  0.38801  0.68985  1.0000
  H   H40       1.0  0.34481  0.61200  0.31015  1.0000
  C   C1        1.0  0.11712  0.29622  0.90162  1.0000
  C   C2        1.0  0.88288  0.70378  0.09838  1.0000
  C   C3        1.0  0.96732  0.33510  0.05756  1.0000
  C   C4        1.0  0.03268  0.66490  0.94244  1.0000
  C   C5        1.0  0.95524  0.37523  0.15579  1.0000
  C   C6        1.0  0.04477  0.62477  0.84421  1.0000
  C   C7        1.0  0.81726  0.41876  0.20008  1.0000
  C   C8        1.0  0.18274  0.58124  0.79992  1.0000
  C   C9        1.0  0.69307  0.42102  0.15231  1.0000
  C   C10       1.0  0.30693  0.57897  0.84769  1.0000
  C   C11       1.0  0.70618  0.37660  0.05909  1.0000
  C   C12       1.0  0.29382  0.62340  0.94092  1.0000
  C   C13       1.0  0.84013  0.33490  0.01226  1.0000
  C   C14       1.0  0.15987  0.66510  0.98774  1.0000
  C   C15       1.0  0.07490  0.37715  0.21560  1.0000
  C   C16       1.0  0.92511  0.62285  0.78439  1.0000
  C   C17       1.0  0.31843  0.34800  0.26117  1.0000
  C   C18       1.0  0.68157  0.65200  0.73882  1.0000
  C   C19       1.0  0.42061  0.21814  0.35362  1.0000
  C   C20       1.0  0.57939  0.78186  0.64638  1.0000
  C   C21       1.0  0.45889  0.09742  0.31994  1.0000
  C   C22       1.0  0.54111  0.90259  0.68006  1.0000
  C   C23       1.0  0.59961  0.07545  0.15680  1.0000
  C   C24       1.0  0.40039  0.92455  0.84320  1.0000
  C   C25       1.0  0.63188  0.08866  0.03637  1.0000
  C   C26       1.0  0.36812  0.91133  0.96363  1.0000
  C   C27       1.0  0.52715  0.14556  0.93717  1.0000
  C   C28       1.0  0.47285  0.85444  0.06283  1.0000
  C   C29       1.0  0.58157  0.14418  0.82718  1.0000
  C   C30       1.0  0.41843  0.85582  0.17282  1.0000
  C   C31       1.0  0.73076  0.09237  0.81476  1.0000
  C   C32       1.0  0.26924  0.90763  0.18524  1.0000
  C   C33       1.0  0.83264  0.03488  0.91215  1.0000
  C   C34       1.0  0.16736  0.96512  0.08785  1.0000
  C   C35       1.0  0.78223  0.03254  0.02146  1.0000
  C   C36       1.0  0.21777  0.96745  0.97854  1.0000
  C   C37       1.0  0.27144  0.23724  0.86943  1.0000
  C   C38       1.0  0.72856  0.76276  0.13057  1.0000
  C   C39       1.0  0.08773  0.15603  0.59121  1.0000
  C   C40       1.0  0.91226  0.84397  0.40880  1.0000
  C   C41       1.0  0.04814  0.07198  0.54512  1.0000
  C   C42       1.0  0.95185  0.92803  0.45488  1.0000
  C   C43       1.0  0.01143  0.96831  0.62226  1.0000
  C   C44       1.0  0.98856  0.03169  0.37774  1.0000
  C   C45       1.0  0.03685  0.10243  0.42304  1.0000
  C   C46       1.0  0.96314  0.89757  0.57696  1.0000
  C   C47       1.0  0.80203  0.47505  0.50320  1.0000
  C   C48       1.0  0.19796  0.52495  0.49681  1.0000
  C   C49       1.0  0.64583  0.48876  0.50181  1.0000
  C   C50       1.0  0.35417  0.51124  0.49819  1.0000
  C   C51       1.0  0.55861  0.55112  0.39474  1.0000
  C   C52       1.0  0.44139  0.44889  0.60526  1.0000
  C   C53       1.0  0.58594  0.43770  0.60736  1.0000
  C   C54       1.0  0.41406  0.56231  0.39264  1.0000
  N   N1        1.0  0.10204  0.29416  0.01176  1.0000
  N   N2        1.0  0.89796  0.70584  0.98823  1.0000
  N   N3        1.0  0.21196  0.33228  0.19705  1.0000
  N   N4        1.0  0.78804  0.66772  0.80295  1.0000
  N   N5        1.0  0.47367  0.12649  0.19355  1.0000
  N   N6        1.0  0.52633  0.87351  0.80645  1.0000
  N   N7        1.0  0.37853  0.19992  0.95140  1.0000
  N   N8        1.0  0.62147  0.80008  0.04860  1.0000
  O   O1        1.0  0.01643  0.34313  0.82033  1.0000
  O   O2        1.0  0.98357  0.65687  0.17966  1.0000
  O   O3        1.0  0.28232  0.22902  0.76832  1.0000
  O   O4        1.0  0.71768  0.77097  0.23168  1.0000
  O   O5        1.0  0.12767  0.24679  0.52255  1.0000
  O   O6        1.0  0.87232  0.75320  0.47746  1.0000
  O   O7        1.0  0.07248  0.14120  0.70040  1.0000
  O   O8        1.0  0.92751  0.85879  0.29959  1.0000
  O   O9        1.0  0.87408  0.41626  0.60361  1.0000
  O   O10       1.0  0.12593  0.58375  0.39640  1.0000
  O   O11       1.0  0.85169  0.52169  0.40445  1.0000
  O   O12       1.0  0.14832  0.47832  0.59556  1.0000
