data_image0
_chemical_formula_structural       Cd2H28C28S4N8O4
_chemical_formula_sum              "Cd2 H28 C28 S4 N8 O4"
_cell_length_a       5.94766
_cell_length_b       10.8114
_cell_length_c       13.4796
_cell_angle_alpha    89.9992
_cell_angle_beta     101.09
_cell_angle_gamma    89.9958

_space_group_name_H-M_alt    "P 1"
_space_group_IT_number       1

loop_
  _space_group_symop_operation_xyz
  'x, y, z'

loop_
  _atom_site_type_symbol
  _atom_site_label
  _atom_site_symmetry_multiplicity
  _atom_site_fract_x
  _atom_site_fract_y
  _atom_site_fract_z
  _atom_site_occupancy
  Cd  Cd1       1.0  0.49997  0.00001  0.50000  1.0000
  Cd  Cd2       1.0  1.00000  0.49998  1.00000  1.0000
  H   H1        1.0  0.31565  0.22597  0.61989  1.0000
  H   H2        1.0  0.18429  0.72595  0.88007  1.0000
  H   H3        1.0  0.68431  0.77404  0.38010  1.0000
  H   H4        1.0  0.81572  0.27402  0.11992  1.0000
  H   H5        1.0  0.39488  0.44489  0.66652  1.0000
  H   H6        1.0  0.10507  0.94488  0.83347  1.0000
  H   H7        1.0  0.60509  0.55513  0.33347  1.0000
  H   H8        1.0  0.89496  0.05510  0.16653  1.0000
  H   H9        1.0  0.01983  0.41059  0.54742  1.0000
  H   H10       1.0  0.48018  0.91060  0.95260  1.0000
  H   H11       1.0  0.98018  0.58942  0.45260  1.0000
  H   H12       1.0  0.51984  0.08940  0.04741  1.0000
  H   H13       1.0  0.91375  0.19212  0.50691  1.0000
  H   H14       1.0  0.58623  0.69213  0.99307  1.0000
  H   H15       1.0  0.08625  0.80789  0.49309  1.0000
  H   H16       1.0  0.41380  0.30786  0.00693  1.0000
  H   H17       1.0  0.70386  0.73769  0.67279  1.0000
  H   H18       1.0  0.79611  0.23770  0.82723  1.0000
  H   H19       1.0  0.29614  0.26233  0.32721  1.0000
  H   H20       1.0  0.20391  0.76229  0.17278  1.0000
  H   H21       1.0  0.45527  0.64403  0.63112  1.0000
  H   H22       1.0  0.04470  0.14402  0.86891  1.0000
  H   H23       1.0  0.54472  0.35599  0.36888  1.0000
  H   H24       1.0  0.95533  0.85596  0.13110  1.0000
  H   H25       1.0  0.63672  0.61349  0.75162  1.0000
  H   H26       1.0  0.86325  0.11351  0.74838  1.0000
  H   H27       1.0  0.36328  0.38652  0.24837  1.0000
  H   H28       1.0  0.13677  0.88648  0.25163  1.0000
  C   C1        1.0  0.04800  0.94669  0.62518  1.0000
  C   C2        1.0  0.45192  0.44665  0.87480  1.0000
  C   C3        1.0  0.95196  0.05333  0.37481  1.0000
  C   C4        1.0  0.54804  0.55332  0.12520  1.0000
  C   C5        1.0  0.46903  0.27084  0.60383  1.0000
  C   C6        1.0  0.03094  0.77083  0.89616  1.0000
  C   C7        1.0  0.53096  0.72917  0.39617  1.0000
  C   C8        1.0  0.96910  0.22915  0.10384  1.0000
  C   C9        1.0  0.51414  0.39400  0.62982  1.0000
  C   C10       1.0  0.98581  0.89401  0.87018  1.0000
  C   C11       1.0  0.48584  0.60601  0.37018  1.0000
  C   C12       1.0  0.01423  0.10597  0.12983  1.0000
  C   C13       1.0  0.71405  0.44785  0.60817  1.0000
  C   C14       1.0  0.78592  0.94786  0.89183  1.0000
  C   C15       1.0  0.28593  0.55216  0.39182  1.0000
  C   C16       1.0  0.21412  0.05213  0.10818  1.0000
  C   C17       1.0  0.86170  0.37301  0.56419  1.0000
  C   C18       1.0  0.63829  0.87302  0.93581  1.0000
  C   C19       1.0  0.13829  0.62701  0.43581  1.0000
  C   C20       1.0  0.36174  0.12698  0.06420  1.0000
  C   C21       1.0  0.80219  0.25126  0.54157  1.0000
  C   C22       1.0  0.69780  0.75126  0.95843  1.0000
  C   C23       1.0  0.19781  0.74876  0.45843  1.0000
  C   C24       1.0  0.30223  0.24873  0.04158  1.0000
  C   C25       1.0  0.63222  0.64468  0.67374  1.0000
  C   C26       1.0  0.86773  0.14467  0.82628  1.0000
  C   C27       1.0  0.36778  0.35533  0.32625  1.0000
  C   C28       1.0  0.13229  0.85532  0.17374  1.0000
  S   S1        1.0  0.31850  0.96402  0.67451  1.0000
  S   S2        1.0  0.18144  0.46397  0.82544  1.0000
  S   S3        1.0  0.68145  0.03603  0.32548  1.0000
  S   S4        1.0  0.81853  0.53599  0.17456  1.0000
  N   N1        1.0  0.85115  0.93084  0.59077  1.0000
  N   N2        1.0  0.64878  0.43083  0.90922  1.0000
  N   N3        1.0  0.14881  0.06918  0.40922  1.0000
  N   N4        1.0  0.35120  0.56916  0.09077  1.0000
  N   N5        1.0  0.60708  0.19974  0.55966  1.0000
  N   N6        1.0  0.89290  0.69972  0.94033  1.0000
  N   N7        1.0  0.39291  0.80026  0.44034  1.0000
  N   N8        1.0  0.10713  0.30026  0.05968  1.0000
  O   O1        1.0  0.77688  0.56660  0.62576  1.0000
  O   O2        1.0  0.72309  0.06659  0.87424  1.0000
  O   O3        1.0  0.22311  0.43342  0.37423  1.0000
  O   O4        1.0  0.27693  0.93339  0.12577  1.0000
