data_image0
_chemical_formula_structural       Cu4H64C44N24Cl8
_chemical_formula_sum              "Cu4 H64 C44 N24 Cl8"
_cell_length_a       8.78035
_cell_length_b       12.0279
_cell_length_c       14.075
_cell_angle_alpha    90
_cell_angle_beta     90
_cell_angle_gamma    98.8089

_space_group_name_H-M_alt    "P 1"
_space_group_IT_number       1

loop_
  _space_group_symop_operation_xyz
  'x, y, z'

loop_
  _atom_site_type_symbol
  _atom_site_label
  _atom_site_symmetry_multiplicity
  _atom_site_fract_x
  _atom_site_fract_y
  _atom_site_fract_z
  _atom_site_occupancy
  Cu  Cu1       1.0  0.37075  0.11861  0.23057  1.0000
  Cu  Cu2       1.0  0.63000  0.38155  0.73064  1.0000
  Cu  Cu3       1.0  0.63001  0.88155  0.76937  1.0000
  Cu  Cu4       1.0  0.37074  0.61862  0.26944  1.0000
  H   H1        1.0  0.45082  0.13583  0.40470  1.0000
  H   H2        1.0  0.54927  0.36421  0.90506  1.0000
  H   H3        1.0  0.54929  0.86422  0.59495  1.0000
  H   H4        1.0  0.45081  0.63583  0.09530  1.0000
  H   H5        1.0  0.82370  0.35850  0.33084  1.0000
  H   H6        1.0  0.17670  0.14150  0.83092  1.0000
  H   H7        1.0  0.17672  0.64151  0.66907  1.0000
  H   H8        1.0  0.82370  0.85850  0.16917  1.0000
  H   H9        1.0  0.71855  0.45580  0.48223  1.0000
  H   H10       1.0  0.28065  0.04423  0.98179  1.0000
  H   H11       1.0  0.28065  0.54424  0.51821  1.0000
  H   H12       1.0  0.71853  0.95580  0.01777  1.0000
  H   H13       1.0  0.23126  0.35028  0.19661  1.0000
  H   H14       1.0  0.76801  0.15014  0.69662  1.0000
  H   H15       1.0  0.76802  0.65013  0.80338  1.0000
  H   H16       1.0  0.23126  0.85028  0.30340  1.0000
  H   H17       1.0  0.59307  0.98839  0.42013  1.0000
  H   H18       1.0  0.40681  0.51173  0.92014  1.0000
  H   H19       1.0  0.40683  0.01174  0.57987  1.0000
  H   H20       1.0  0.59307  0.48839  0.07987  1.0000
  H   H21       1.0  0.67828  0.07592  0.51359  1.0000
  H   H22       1.0  0.32166  0.42409  0.01365  1.0000
  H   H23       1.0  0.32168  0.92411  0.48635  1.0000
  H   H24       1.0  0.67828  0.57593  0.98641  1.0000
  H   H25       1.0  0.79879  0.06392  0.30967  1.0000
  H   H26       1.0  0.20113  0.43599  0.80968  1.0000
  H   H27       1.0  0.20114  0.93600  0.69032  1.0000
  H   H28       1.0  0.79879  0.56393  0.19032  1.0000
  H   H29       1.0  0.89144  0.03304  0.41672  1.0000
  H   H30       1.0  0.10851  0.46677  0.91672  1.0000
  H   H31       1.0  0.10853  0.96679  0.58328  1.0000
  H   H32       1.0  0.89144  0.53305  0.08328  1.0000
  H   H33       1.0  0.91865  0.23097  0.46780  1.0000
  H   H34       1.0  0.08117  0.26891  0.96781  1.0000
  H   H35       1.0  0.08119  0.76893  0.53219  1.0000
  H   H36       1.0  0.91865  0.73097  0.03220  1.0000
  H   H37       1.0  0.99595  0.22549  0.35046  1.0000
  H   H38       1.0  0.00423  0.27430  0.85029  1.0000
  H   H39       1.0  0.00425  0.77432  0.64970  1.0000
  H   H40       1.0  0.99594  0.72550  0.14954  1.0000
  H   H41       1.0  0.91785  0.60966  0.50341  1.0000
  H   H42       1.0  0.08207  0.89028  0.00369  1.0000
  H   H43       1.0  0.08207  0.39028  0.49632  1.0000
  H   H44       1.0  0.91784  0.10965  0.99659  1.0000
  H   H45       1.0  0.75210  0.64877  0.55976  1.0000
  H   H46       1.0  0.24832  0.85145  0.05978  1.0000
  H   H47       1.0  0.24831  0.35145  0.44023  1.0000
  H   H48       1.0  0.75209  0.14876  0.94024  1.0000
  H   H49       1.0  0.88325  0.71916  0.36338  1.0000
  H   H50       1.0  0.11685  0.78092  0.86346  1.0000
  H   H51       1.0  0.11685  0.28092  0.63654  1.0000
  H   H52       1.0  0.88324  0.21916  0.13662  1.0000
  H   H53       1.0  0.85638  0.80743  0.46161  1.0000
  H   H54       1.0  0.14311  0.69265  0.96170  1.0000
  H   H55       1.0  0.14311  0.19265  0.53831  1.0000
  H   H56       1.0  0.85637  0.30743  0.03838  1.0000
  H   H57       1.0  0.57343  0.76118  0.44908  1.0000
  H   H58       1.0  0.42585  0.73771  0.94968  1.0000
  H   H59       1.0  0.42585  0.23772  0.55033  1.0000
  H   H60       1.0  0.57343  0.26118  0.05091  1.0000
  H   H61       1.0  0.64843  0.80786  0.33730  1.0000
  H   H62       1.0  0.35140  0.69212  0.83742  1.0000
  H   H63       1.0  0.35140  0.19213  0.66259  1.0000
  H   H64       1.0  0.64843  0.30786  0.16269  1.0000
  C   C1        1.0  0.32913  0.36145  0.24448  1.0000
  C   C2        1.0  0.67032  0.13867  0.74461  1.0000
  C   C3        1.0  0.67032  0.63867  0.75539  1.0000
  C   C4        1.0  0.32913  0.86144  0.25552  1.0000
  C   C5        1.0  0.51820  0.43997  0.33563  1.0000
  C   C6        1.0  0.48147  0.05979  0.83545  1.0000
  C   C7        1.0  0.48147  0.55979  0.66456  1.0000
  C   C8        1.0  0.51820  0.93997  0.16436  1.0000
  C   C9        1.0  0.52588  0.32540  0.32866  1.0000
  C   C10       1.0  0.47435  0.17464  0.82908  1.0000
  C   C11       1.0  0.47436  0.67464  0.67092  1.0000
  C   C12       1.0  0.52586  0.82540  0.17134  1.0000
  C   C13       1.0  0.63092  0.25356  0.36719  1.0000
  C   C14       1.0  0.36932  0.24637  0.86764  1.0000
  C   C15       1.0  0.36933  0.74638  0.63236  1.0000
  C   C16       1.0  0.63091  0.75356  0.13280  1.0000
  C   C17       1.0  0.66083  0.07073  0.43618  1.0000
  C   C18       1.0  0.33915  0.42936  0.93628  1.0000
  C   C19       1.0  0.33917  0.92938  0.56373  1.0000
  C   C20       1.0  0.66083  0.57073  0.06382  1.0000
  C   C21       1.0  0.81521  0.08695  0.38501  1.0000
  C   C22       1.0  0.18480  0.41293  0.88503  1.0000
  C   C23       1.0  0.18482  0.91294  0.61497  1.0000
  C   C24       1.0  0.81520  0.58695  0.11498  1.0000
  C   C25       1.0  0.89054  0.20940  0.39324  1.0000
  C   C26       1.0  0.10944  0.29045  0.89327  1.0000
  C   C27       1.0  0.10946  0.79047  0.60673  1.0000
  C   C28       1.0  0.89054  0.70940  0.10676  1.0000
  C   C29       1.0  0.60562  0.53998  0.38024  1.0000
  C   C30       1.0  0.39437  0.95985  0.88038  1.0000
  C   C31       1.0  0.39437  0.45986  0.61963  1.0000
  C   C32       1.0  0.60561  0.03997  0.11975  1.0000
  C   C33       1.0  0.80193  0.63009  0.49077  1.0000
  C   C34       1.0  0.19799  0.86993  0.99089  1.0000
  C   C35       1.0  0.19799  0.36993  0.50911  1.0000
  C   C36       1.0  0.80192  0.13009  0.00923  1.0000
  C   C37       1.0  0.80783  0.73009  0.42403  1.0000
  C   C38       1.0  0.19212  0.76989  0.92417  1.0000
  C   C39       1.0  0.19212  0.26989  0.57583  1.0000
  C   C40       1.0  0.80782  0.23008  0.07596  1.0000
  C   C41       1.0  0.64548  0.73979  0.38962  1.0000
  C   C42       1.0  0.35453  0.75987  0.89010  1.0000
  C   C43       1.0  0.35454  0.25987  0.60991  1.0000
  C   C44       1.0  0.64548  0.23980  0.11037  1.0000
  N   N1        1.0  0.40542  0.27804  0.27072  1.0000
  N   N2        1.0  0.59479  0.22232  0.77148  1.0000
  N   N3        1.0  0.59480  0.72232  0.72851  1.0000
  N   N4        1.0  0.40543  0.77804  0.22927  1.0000
  N   N5        1.0  0.39332  0.45988  0.28256  1.0000
  N   N6        1.0  0.60590  0.03993  0.78209  1.0000
  N   N7        1.0  0.60590  0.53994  0.71791  1.0000
  N   N8        1.0  0.39331  0.95990  0.21745  1.0000
  N   N9        1.0  0.57007  0.15649  0.40593  1.0000
  N   N10       1.0  0.43006  0.34360  0.90616  1.0000
  N   N11       1.0  0.43008  0.84362  0.59385  1.0000
  N   N12       1.0  0.57007  0.65649  0.09407  1.0000
  N   N13       1.0  0.78286  0.28239  0.35945  1.0000
  N   N14       1.0  0.21738  0.21753  0.85972  1.0000
  N   N15       1.0  0.21739  0.71755  0.64027  1.0000
  N   N16       1.0  0.78286  0.78239  0.14054  1.0000
  N   N17       1.0  0.71039  0.53090  0.44836  1.0000
  N   N18       1.0  0.28899  0.96908  0.94810  1.0000
  N   N19       1.0  0.28899  0.46909  0.55191  1.0000
  N   N20       1.0  0.71038  0.03090  0.05164  1.0000
  N   N21       1.0  0.57200  0.63538  0.34620  1.0000
  N   N22       1.0  0.42905  0.86434  0.84716  1.0000
  N   N23       1.0  0.42905  0.36434  0.65285  1.0000
  N   N24       1.0  0.57197  0.13538  0.15381  1.0000
  Cl  Cl1       1.0  0.19561  0.14436  0.09654  1.0000
  Cl  Cl2       1.0  0.80499  0.35589  0.59671  1.0000
  Cl  Cl3       1.0  0.80500  0.85590  0.90329  1.0000
  Cl  Cl4       1.0  0.19562  0.64436  0.40346  1.0000
  Cl  Cl5       1.0  0.21734  0.07737  0.36989  1.0000
  Cl  Cl6       1.0  0.78391  0.42381  0.87001  1.0000
  Cl  Cl7       1.0  0.78392  0.92382  0.62998  1.0000
  Cl  Cl8       1.0  0.21733  0.57737  0.13011  1.0000
