data_image0
_chemical_formula_structural       Zn4Hg4H56C56N8O16
_chemical_formula_sum              "Zn4 Hg4 H56 C56 N8 O16"
_cell_length_a       8.01019
_cell_length_b       10.146
_cell_length_c       21.984
_cell_angle_alpha    90
_cell_angle_beta     90
_cell_angle_gamma    106.166

_space_group_name_H-M_alt    "P 1"
_space_group_IT_number       1

loop_
  _space_group_symop_operation_xyz
  'x, y, z'

loop_
  _atom_site_type_symbol
  _atom_site_label
  _atom_site_symmetry_multiplicity
  _atom_site_fract_x
  _atom_site_fract_y
  _atom_site_fract_z
  _atom_site_occupancy
  Zn  Zn1       1.0  0.97471  0.04945  0.66372  1.0000
  Zn  Zn2       1.0  0.52529  0.45055  0.16372  1.0000
  Zn  Zn3       1.0  0.02529  0.95055  0.33628  1.0000
  Zn  Zn4       1.0  0.47471  0.54945  0.83628  1.0000
  Hg  Hg1       1.0  0.18332  0.72259  0.91967  1.0000
  Hg  Hg2       1.0  0.31668  0.77741  0.41967  1.0000
  Hg  Hg3       1.0  0.81668  0.27740  0.08033  1.0000
  Hg  Hg4       1.0  0.68332  0.22259  0.58033  1.0000
  H   H1        1.0  0.43597  0.82613  0.02697  1.0000
  H   H2        1.0  0.06402  0.67388  0.52697  1.0000
  H   H3        1.0  0.56401  0.17387  0.97303  1.0000
  H   H4        1.0  0.93598  0.32613  0.47303  1.0000
  H   H5        1.0  0.56697  0.71947  0.10905  1.0000
  H   H6        1.0  0.93302  0.78053  0.60905  1.0000
  H   H7        1.0  0.43301  0.28053  0.89095  1.0000
  H   H8        1.0  0.06698  0.21947  0.39095  1.0000
  H   H9        1.0  0.27228  0.32891  0.06357  1.0000
  H   H10       1.0  0.22772  0.17109  0.56357  1.0000
  H   H11       1.0  0.72772  0.67108  0.93643  1.0000
  H   H12       1.0  0.77229  0.82891  0.43643  1.0000
  H   H13       1.0  0.12808  0.41689  0.97845  1.0000
  H   H14       1.0  0.37192  0.08311  0.47845  1.0000
  H   H15       1.0  0.87192  0.58310  0.02155  1.0000
  H   H16       1.0  0.62808  0.91689  0.52155  1.0000
  H   H17       1.0  0.19573  0.03187  0.87847  1.0000
  H   H18       1.0  0.30427  0.46813  0.37847  1.0000
  H   H19       1.0  0.80427  0.96813  0.12153  1.0000
  H   H20       1.0  0.69573  0.53187  0.62153  1.0000
  H   H21       1.0  0.12514  0.13408  0.78393  1.0000
  H   H22       1.0  0.37486  0.36592  0.28393  1.0000
  H   H23       1.0  0.87486  0.86592  0.21607  1.0000
  H   H24       1.0  0.62514  0.63408  0.71607  1.0000
  H   H25       1.0  0.93919  0.75340  0.70184  1.0000
  H   H26       1.0  0.56081  0.74660  0.20184  1.0000
  H   H27       1.0  0.06081  0.24660  0.29816  1.0000
  H   H28       1.0  0.43919  0.25340  0.79816  1.0000
  H   H29       1.0  0.01727  0.63414  0.79135  1.0000
  H   H30       1.0  0.48274  0.86586  0.29135  1.0000
  H   H31       1.0  0.98273  0.36586  0.20865  1.0000
  H   H32       1.0  0.51727  0.13414  0.70865  1.0000
  H   H33       1.0  0.05206  0.53399  0.66692  1.0000
  H   H34       1.0  0.44794  0.96601  0.16692  1.0000
  H   H35       1.0  0.94794  0.46601  0.33307  1.0000
  H   H36       1.0  0.55206  0.03399  0.83308  1.0000
  H   H37       1.0  0.26651  0.53684  0.64649  1.0000
  H   H38       1.0  0.23349  0.96315  0.14649  1.0000
  H   H39       1.0  0.73349  0.46316  0.35351  1.0000
  H   H40       1.0  0.76651  0.03684  0.85351  1.0000
  H   H41       1.0  0.19117  0.48932  0.72222  1.0000
  H   H42       1.0  0.30883  0.01068  0.22222  1.0000
  H   H43       1.0  0.80883  0.51069  0.27778  1.0000
  H   H44       1.0  0.69117  0.98932  0.77778  1.0000
  H   H45       1.0  0.38906  0.95299  0.65103  1.0000
  H   H46       1.0  0.11094  0.54701  0.15103  1.0000
  H   H47       1.0  0.61094  0.04701  0.34897  1.0000
  H   H48       1.0  0.88906  0.45299  0.84897  1.0000
  H   H49       1.0  0.39809  0.82749  0.70674  1.0000
  H   H50       1.0  0.10191  0.67251  0.20674  1.0000
  H   H51       1.0  0.60191  0.17251  0.29326  1.0000
  H   H52       1.0  0.89809  0.32749  0.79326  1.0000
  H   H53       1.0  0.36621  0.77858  0.62925  1.0000
  H   H54       1.0  0.13379  0.72142  0.12925  1.0000
  H   H55       1.0  0.63379  0.22142  0.37076  1.0000
  H   H56       1.0  0.86621  0.27858  0.87076  1.0000
  C   C1        1.0  0.26578  0.63135  0.99540  1.0000
  C   C2        1.0  0.23422  0.86866  0.49540  1.0000
  C   C3        1.0  0.73421  0.36865  0.00460  1.0000
  C   C4        1.0  0.76579  0.13135  0.50461  1.0000
  C   C5        1.0  0.39046  0.71545  0.03385  1.0000
  C   C6        1.0  0.10953  0.78455  0.53385  1.0000
  C   C7        1.0  0.60953  0.28454  0.96615  1.0000
  C   C8        1.0  0.89047  0.21545  0.46615  1.0000
  C   C9        1.0  0.46372  0.65801  0.08037  1.0000
  C   C10       1.0  0.03627  0.84200  0.58037  1.0000
  C   C11       1.0  0.53627  0.34199  0.91963  1.0000
  C   C12       1.0  0.96372  0.15800  0.41963  1.0000
  C   C13       1.0  0.29972  0.43857  0.05446  1.0000
  C   C14       1.0  0.20028  0.06144  0.55446  1.0000
  C   C15       1.0  0.70028  0.56143  0.94554  1.0000
  C   C16       1.0  0.79972  0.93857  0.44554  1.0000
  C   C17       1.0  0.22121  0.48980  0.00689  1.0000
  C   C18       1.0  0.27879  0.01020  0.50690  1.0000
  C   C19       1.0  0.77879  0.51019  0.99311  1.0000
  C   C20       1.0  0.72122  0.98980  0.49311  1.0000
  C   C21       1.0  0.11310  0.82126  0.84404  1.0000
  C   C22       1.0  0.38690  0.67874  0.34404  1.0000
  C   C23       1.0  0.88690  0.17874  0.15596  1.0000
  C   C24       1.0  0.61310  0.32126  0.65596  1.0000
  C   C25       1.0  0.14257  0.96394  0.84054  1.0000
  C   C26       1.0  0.35743  0.53606  0.34054  1.0000
  C   C27       1.0  0.85743  0.03606  0.15946  1.0000
  C   C28       1.0  0.64257  0.46394  0.65946  1.0000
  C   C29       1.0  0.10265  0.02354  0.78746  1.0000
  C   C30       1.0  0.39735  0.47646  0.28746  1.0000
  C   C31       1.0  0.89735  0.97646  0.21254  1.0000
  C   C32       1.0  0.60265  0.52354  0.71254  1.0000
  C   C33       1.0  0.00066  0.81094  0.74152  1.0000
  C   C34       1.0  0.49934  0.68906  0.24152  1.0000
  C   C35       1.0  0.99934  0.18906  0.25848  1.0000
  C   C36       1.0  0.50067  0.31094  0.75848  1.0000
  C   C37       1.0  0.04066  0.74504  0.79251  1.0000
  C   C38       1.0  0.45934  0.75496  0.29251  1.0000
  C   C39       1.0  0.95934  0.25496  0.20749  1.0000
  C   C40       1.0  0.54066  0.24504  0.70750  1.0000
  C   C41       1.0  0.08816  0.33593  0.65197  1.0000
  C   C42       1.0  0.41184  0.16407  0.15197  1.0000
  C   C43       1.0  0.91185  0.66407  0.34803  1.0000
  C   C44       1.0  0.58815  0.83593  0.84803  1.0000
  C   C45       1.0  0.15442  0.48257  0.67417  1.0000
  C   C46       1.0  0.34558  0.01743  0.17417  1.0000
  C   C47       1.0  0.84558  0.51743  0.32583  1.0000
  C   C48       1.0  0.65442  0.98256  0.82583  1.0000
  C   C49       1.0  0.62769  0.89004  0.65336  1.0000
  C   C50       1.0  0.87231  0.60996  0.15335  1.0000
  C   C51       1.0  0.37232  0.10996  0.34664  1.0000
  C   C52       1.0  0.12769  0.39004  0.84664  1.0000
  C   C53       1.0  0.43297  0.86177  0.65978  1.0000
  C   C54       1.0  0.06703  0.63823  0.15978  1.0000
  C   C55       1.0  0.56704  0.13824  0.34022  1.0000
  C   C56       1.0  0.93297  0.36177  0.84022  1.0000
  N   N1        1.0  0.41932  0.52149  0.09094  1.0000
  N   N2        1.0  0.08067  0.97851  0.59094  1.0000
  N   N3        1.0  0.58067  0.47851  0.90906  1.0000
  N   N4        1.0  0.91933  0.02149  0.40906  1.0000
  N   N5        1.0  0.03239  0.94840  0.73850  1.0000
  N   N6        1.0  0.46761  0.55160  0.23850  1.0000
  N   N7        1.0  0.96761  0.05160  0.26150  1.0000
  N   N8        1.0  0.53239  0.44840  0.76150  1.0000
  O   O1        1.0  0.07758  0.24011  0.69211  1.0000
  O   O2        1.0  0.42243  0.25989  0.19211  1.0000
  O   O3        1.0  0.92243  0.75989  0.30789  1.0000
  O   O4        1.0  0.57757  0.74010  0.80789  1.0000
  O   O5        1.0  0.04564  0.31296  0.59713  1.0000
  O   O6        1.0  0.45435  0.18704  0.09713  1.0000
  O   O7        1.0  0.95436  0.68704  0.40287  1.0000
  O   O8        1.0  0.54564  0.81296  0.90287  1.0000
  O   O9        1.0  0.71863  0.01771  0.66090  1.0000
  O   O10       1.0  0.78137  0.48229  0.16090  1.0000
  O   O11       1.0  0.28137  0.98229  0.33910  1.0000
  O   O12       1.0  0.21863  0.51771  0.83910  1.0000
  O   O13       1.0  0.69309  0.79414  0.64310  1.0000
  O   O14       1.0  0.80690  0.70586  0.14310  1.0000
  O   O15       1.0  0.30691  0.20586  0.35690  1.0000
  O   O16       1.0  0.19310  0.29415  0.85690  1.0000
