data_image0
_chemical_formula_structural       Ba2H16C24N4O12
_chemical_formula_sum              "Ba2 H16 C24 N4 O12"
_cell_length_a       5.56052
_cell_length_b       8.34379
_cell_length_c       13.8338
_cell_angle_alpha    99.1774
_cell_angle_beta     101.665
_cell_angle_gamma    90.0403

_space_group_name_H-M_alt    "P 1"
_space_group_IT_number       1

loop_
  _space_group_symop_operation_xyz
  'x, y, z'

loop_
  _atom_site_type_symbol
  _atom_site_label
  _atom_site_symmetry_multiplicity
  _atom_site_fract_x
  _atom_site_fract_y
  _atom_site_fract_z
  _atom_site_occupancy
  Ba  Ba1       1.0  0.14233  0.25025  0.00004  1.0000
  Ba  Ba2       1.0  0.85769  0.74975  0.99996  1.0000
  H   H1        1.0  0.70737  0.74751  0.34900  1.0000
  H   H2        1.0  0.35807  0.75250  0.65103  1.0000
  H   H3        1.0  0.29263  0.25249  0.65101  1.0000
  H   H4        1.0  0.64192  0.24751  0.34896  1.0000
  H   H5        1.0  0.54570  0.66997  0.49145  1.0000
  H   H6        1.0  0.05333  0.82946  0.50841  1.0000
  H   H7        1.0  0.45425  0.33003  0.50855  1.0000
  H   H8        1.0  0.94663  0.17053  0.49158  1.0000
  H   H9        1.0  0.13274  0.52797  0.45675  1.0000
  H   H10       1.0  0.67524  0.97138  0.54283  1.0000
  H   H11       1.0  0.86722  0.47203  0.54325  1.0000
  H   H12       1.0  0.32474  0.02861  0.45718  1.0000
  H   H13       1.0  0.88893  0.46542  0.28427  1.0000
  H   H14       1.0  0.60498  0.03447  0.71528  1.0000
  H   H15       1.0  0.11106  0.53458  0.71572  1.0000
  H   H16       1.0  0.39504  0.96553  0.28474  1.0000
  C   C1        1.0  0.15834  0.55833  0.21401  1.0000
  C   C2        1.0  0.94471  0.94166  0.78578  1.0000
  C   C3        1.0  0.84167  0.44166  0.78599  1.0000
  C   C4        1.0  0.05531  0.05834  0.21422  1.0000
  C   C5        1.0  0.39642  0.64228  0.23766  1.0000
  C   C6        1.0  0.15893  0.85771  0.76226  1.0000
  C   C7        1.0  0.60358  0.35772  0.76234  1.0000
  C   C8        1.0  0.84108  0.14229  0.23774  1.0000
  C   C9        1.0  0.53019  0.68399  0.33714  1.0000
  C   C10       1.0  0.19287  0.81599  0.66279  1.0000
  C   C11       1.0  0.46979  0.31601  0.66286  1.0000
  C   C12       1.0  0.80712  0.18401  0.33721  1.0000
  C   C13       1.0  0.43932  0.64172  0.41529  1.0000
  C   C14       1.0  0.02353  0.85805  0.58456  1.0000
  C   C15       1.0  0.56065  0.35828  0.58470  1.0000
  C   C16       1.0  0.97645  0.14195  0.41545  1.0000
  C   C17       1.0  0.20626  0.56126  0.39506  1.0000
  C   C18       1.0  0.81074  0.93838  0.60464  1.0000
  C   C19       1.0  0.79370  0.43874  0.60493  1.0000
  C   C20       1.0  0.18924  0.06161  0.39537  1.0000
  C   C21       1.0  0.07006  0.52451  0.29916  1.0000
  C   C22       1.0  0.77113  0.97547  0.70052  1.0000
  C   C23       1.0  0.92993  0.47549  0.70083  1.0000
  C   C24       1.0  0.22888  0.02453  0.29949  1.0000
  N   N1        1.0  0.50472  0.68754  0.16186  1.0000
  N   N2        1.0  0.34273  0.81200  0.83809  1.0000
  N   N3        1.0  0.49529  0.31247  0.83814  1.0000
  N   N4        1.0  0.65729  0.18800  0.16191  1.0000
  O   O1        1.0  0.02767  0.51575  0.12491  1.0000
  O   O2        1.0  0.90349  0.98444  0.87481  1.0000
  O   O3        1.0  0.97234  0.48425  0.87508  1.0000
  O   O4        1.0  0.09655  0.01556  0.12519  1.0000
  O   O5        1.0  0.42155  0.63091  0.07066  1.0000
  O   O6        1.0  0.35026  0.86745  0.92937  1.0000
  O   O7        1.0  0.57846  0.36910  0.92934  1.0000
  O   O8        1.0  0.64976  0.13254  0.07063  1.0000
  O   O9        1.0  0.68808  0.78591  0.18586  1.0000
  O   O10       1.0  0.50235  0.71414  0.81402  1.0000
  O   O11       1.0  0.31195  0.21408  0.81416  1.0000
  O   O12       1.0  0.49769  0.28587  0.18597  1.0000
