data_image0
_chemical_formula_structural       Zn2H52C60N8O8
_chemical_formula_sum              "Zn2 H52 C60 N8 O8"
_cell_length_a       9.86014
_cell_length_b       12.2826
_cell_length_c       12.493
_cell_angle_alpha    61.1336
_cell_angle_beta     85.908
_cell_angle_gamma    88.8036

_space_group_name_H-M_alt    "P 1"
_space_group_IT_number       1

loop_
  _space_group_symop_operation_xyz
  'x, y, z'

loop_
  _atom_site_type_symbol
  _atom_site_label
  _atom_site_symmetry_multiplicity
  _atom_site_fract_x
  _atom_site_fract_y
  _atom_site_fract_z
  _atom_site_occupancy
  Zn  Zn1       1.0  0.67852  0.29125  0.00252  1.0000
  Zn  Zn2       1.0  0.32148  0.70876  0.99748  1.0000
  H   H1        1.0  0.17976  0.46522  0.87797  1.0000
  H   H2        1.0  0.82024  0.53478  0.12203  1.0000
  H   H3        1.0  0.92861  0.42650  0.80511  1.0000
  H   H4        1.0  0.07139  0.57350  0.19488  1.0000
  H   H5        1.0  0.94411  0.34839  0.28813  1.0000
  H   H6        1.0  0.05589  0.65161  0.71186  1.0000
  H   H7        1.0  0.87320  0.20190  0.50540  1.0000
  H   H8        1.0  0.12681  0.79810  0.49460  1.0000
  H   H9        1.0  0.79678  0.98696  0.56591  1.0000
  H   H10       1.0  0.20322  0.01304  0.43409  1.0000
  H   H11       1.0  0.79080  0.91838  0.40902  1.0000
  H   H12       1.0  0.20920  0.08162  0.59098  1.0000
  H   H13       1.0  0.86062  0.06537  0.19111  1.0000
  H   H14       1.0  0.13938  0.93463  0.80889  1.0000
  H   H15       1.0  0.44544  0.98038  0.81911  1.0000
  H   H16       1.0  0.55456  0.01962  0.18089  1.0000
  H   H17       1.0  0.37142  0.18525  0.85142  1.0000
  H   H18       1.0  0.62858  0.81475  0.14859  1.0000
  H   H19       1.0  0.97404  0.92274  0.10623  1.0000
  H   H20       1.0  0.02596  0.07726  0.89377  1.0000
  H   H21       1.0  0.83797  0.78197  0.29654  1.0000
  H   H22       1.0  0.16203  0.21803  0.70346  1.0000
  H   H23       1.0  0.95076  0.61169  0.47074  1.0000
  H   H24       1.0  0.04924  0.38831  0.52925  1.0000
  H   H25       1.0  0.20087  0.58256  0.45192  1.0000
  H   H26       1.0  0.79913  0.41744  0.54808  1.0000
  H   H27       1.0  0.33747  0.72363  0.25975  1.0000
  H   H28       1.0  0.66253  0.27637  0.74025  1.0000
  H   H29       1.0  0.16105  0.37657  0.19416  1.0000
  H   H30       1.0  0.83895  0.62343  0.80584  1.0000
  H   H31       1.0  0.27319  0.40592  0.06665  1.0000
  H   H32       1.0  0.72681  0.59408  0.93335  1.0000
  H   H33       1.0  0.15912  0.14928  0.26202  1.0000
  H   H34       1.0  0.84088  0.85072  0.73798  1.0000
  H   H35       1.0  0.32189  0.21042  0.25591  1.0000
  H   H36       1.0  0.67811  0.78958  0.74409  1.0000
  H   H37       1.0  0.37850  0.21716  0.05105  1.0000
  H   H38       1.0  0.62151  0.78284  0.94896  1.0000
  H   H39       1.0  0.35425  0.06812  0.18047  1.0000
  H   H40       1.0  0.64575  0.93188  0.81953  1.0000
  H   H41       1.0  0.11238  0.06460  0.12518  1.0000
  H   H42       1.0  0.88762  0.93540  0.87481  1.0000
  H   H43       1.0  0.15261  0.20024  0.98313  1.0000
  H   H44       1.0  0.84739  0.79976  0.01687  1.0000
  H   H45       1.0  0.44238  0.87238  0.60825  1.0000
  H   H46       1.0  0.55762  0.12762  0.39175  1.0000
  H   H47       1.0  0.51964  0.91021  0.39848  1.0000
  H   H48       1.0  0.48036  0.08979  0.60153  1.0000
  H   H49       1.0  0.59249  0.72912  0.36761  1.0000
  H   H50       1.0  0.40751  0.27088  0.63239  1.0000
  H   H51       1.0  0.59587  0.51852  0.54601  1.0000
  H   H52       1.0  0.40413  0.48148  0.45399  1.0000
  C   C1        1.0  0.95327  0.29845  0.09641  1.0000
  C   C2        1.0  0.04673  0.70155  0.90359  1.0000
  C   C3        1.0  0.08680  0.41542  0.92889  1.0000
  C   C4        1.0  0.91320  0.58457  0.07111  1.0000
  C   C5        1.0  0.96407  0.39486  0.89552  1.0000
  C   C6        1.0  0.03593  0.60513  0.10448  1.0000
  C   C7        1.0  0.90830  0.21611  0.22529  1.0000
  C   C8        1.0  0.09170  0.78389  0.77471  1.0000
  C   C9        1.0  0.91198  0.25382  0.31475  1.0000
  C   C10       1.0  0.08801  0.74618  0.68525  1.0000
  C   C11       1.0  0.87178  0.17154  0.43669  1.0000
  C   C12       1.0  0.12822  0.82846  0.56331  1.0000
  C   C13       1.0  0.82830  0.05103  0.47065  1.0000
  C   C14       1.0  0.17171  0.94897  0.52935  1.0000
  C   C15       1.0  0.82441  0.01259  0.38247  1.0000
  C   C16       1.0  0.17559  0.98741  0.61753  1.0000
  C   C17       1.0  0.86351  0.09487  0.26035  1.0000
  C   C18       1.0  0.13649  0.90513  0.73965  1.0000
  C   C19       1.0  0.24630  0.91570  0.05775  1.0000
  C   C20       1.0  0.75370  0.08430  0.94225  1.0000
  C   C21       1.0  0.38174  0.98559  0.89063  1.0000
  C   C22       1.0  0.61826  0.01441  0.10937  1.0000
  C   C23       1.0  0.34189  0.08735  0.90226  1.0000
  C   C24       1.0  0.65811  0.91266  0.09774  1.0000
  C   C25       1.0  0.16501  0.83323  0.17103  1.0000
  C   C26       1.0  0.83499  0.16677  0.82897  1.0000
  C   C27       1.0  0.02422  0.84912  0.18252  1.0000
  C   C28       1.0  0.97578  0.15088  0.81748  1.0000
  C   C29       1.0  0.94740  0.76950  0.28949  1.0000
  C   C30       1.0  0.05261  0.23050  0.71051  1.0000
  C   C31       1.0  0.01071  0.67315  0.38654  1.0000
  C   C32       1.0  0.98929  0.32685  0.61346  1.0000
  C   C33       1.0  0.15079  0.65675  0.37581  1.0000
  C   C34       1.0  0.84921  0.34325  0.62418  1.0000
  C   C35       1.0  0.22815  0.73608  0.26866  1.0000
  C   C36       1.0  0.77185  0.26392  0.73134  1.0000
  C   C37       1.0  0.19263  0.34263  0.12975  1.0000
  C   C38       1.0  0.80737  0.65737  0.87025  1.0000
  C   C39       1.0  0.24234  0.20954  0.19912  1.0000
  C   C40       1.0  0.75766  0.79045  0.80088  1.0000
  C   C41       1.0  0.30175  0.15380  0.12036  1.0000
  C   C42       1.0  0.69825  0.84620  0.87964  1.0000
  C   C43       1.0  0.19588  0.11846  0.05851  1.0000
  C   C44       1.0  0.80413  0.88154  0.94149  1.0000
  C   C45       1.0  0.52150  0.57542  0.67742  1.0000
  C   C46       1.0  0.47850  0.42458  0.32258  1.0000
  C   C47       1.0  0.47659  0.67613  0.69437  1.0000
  C   C48       1.0  0.52341  0.32387  0.30563  1.0000
  C   C49       1.0  0.47851  0.79597  0.59343  1.0000
  C   C50       1.0  0.52149  0.20403  0.40658  1.0000
  C   C51       1.0  0.52063  0.81637  0.47612  1.0000
  C   C52       1.0  0.47937  0.18363  0.52388  1.0000
  C   C53       1.0  0.56229  0.71618  0.45879  1.0000
  C   C54       1.0  0.43771  0.28382  0.54121  1.0000
  C   C55       1.0  0.56328  0.59677  0.55935  1.0000
  C   C56       1.0  0.43672  0.40323  0.44065  1.0000
  C   C57       1.0  0.53406  0.44537  0.78307  1.0000
  C   C58       1.0  0.46594  0.55463  0.21693  1.0000
  C   C59       1.0  0.41565  0.65441  0.81701  1.0000
  C   C60       1.0  0.58434  0.34559  0.18299  1.0000
  N   N1        1.0  0.88187  0.32261  0.99984  1.0000
  N   N2        1.0  0.11813  0.67739  0.00016  1.0000
  N   N3        1.0  0.07828  0.35496  0.05546  1.0000
  N   N4        1.0  0.92172  0.64504  0.94454  1.0000
  N   N5        1.0  0.25511  0.04214  0.00695  1.0000
  N   N6        1.0  0.74489  0.95786  0.99305  1.0000
  N   N7        1.0  0.32297  0.87968  0.98755  1.0000
  N   N8        1.0  0.67704  0.12032  0.01245  1.0000
  O   O1        1.0  0.62932  0.43728  0.85273  1.0000
  O   O2        1.0  0.37069  0.56272  0.14727  1.0000
  O   O3        1.0  0.46446  0.35779  0.79075  1.0000
  O   O4        1.0  0.53554  0.64220  0.20926  1.0000
  O   O5        1.0  0.42269  0.74687  0.83990  1.0000
  O   O6        1.0  0.57730  0.25313  0.16010  1.0000
  O   O7        1.0  0.35782  0.55268  0.88800  1.0000
  O   O8        1.0  0.64218  0.44732  0.11200  1.0000
