data_image0
_chemical_formula_structural       Cu2H28C32S6I2N4
_chemical_formula_sum              "Cu2 H28 C32 S6 I2 N4"
_cell_length_a       8.16087
_cell_length_b       10.283
_cell_length_c       11.1564
_cell_angle_alpha    74.6603
_cell_angle_beta     73.3825
_cell_angle_gamma    80.856

_space_group_name_H-M_alt    "P 1"
_space_group_IT_number       1

loop_
  _space_group_symop_operation_xyz
  'x, y, z'

loop_
  _atom_site_type_symbol
  _atom_site_label
  _atom_site_symmetry_multiplicity
  _atom_site_fract_x
  _atom_site_fract_y
  _atom_site_fract_z
  _atom_site_occupancy
  Cu  Cu1       1.0  0.50396  0.92434  0.62362  1.0000
  Cu  Cu2       1.0  0.49603  0.07566  0.37638  1.0000
  H   H1        1.0  0.90583  0.32675  0.37916  1.0000
  H   H2        1.0  0.09416  0.67325  0.62084  1.0000
  H   H3        1.0  0.87754  0.08344  0.70346  1.0000
  H   H4        1.0  0.12246  0.91656  0.29653  1.0000
  H   H5        1.0  0.32400  0.81896  0.90644  1.0000
  H   H6        1.0  0.67599  0.18105  0.09356  1.0000
  H   H7        1.0  0.11643  0.12932  0.39000  1.0000
  H   H8        1.0  0.88357  0.87068  0.61000  1.0000
  H   H9        1.0  0.55351  0.83980  0.15551  1.0000
  H   H10       1.0  0.44651  0.16019  0.84449  1.0000
  H   H11       1.0  0.76969  0.84192  0.14888  1.0000
  H   H12       1.0  0.23033  0.15807  0.85113  1.0000
  H   H13       1.0  0.02156  0.80270  0.03093  1.0000
  H   H14       1.0  0.97844  0.19731  0.96907  1.0000
  H   H15       1.0  0.66718  0.66340  0.34790  1.0000
  H   H16       1.0  0.33282  0.33659  0.65210  1.0000
  H   H17       1.0  0.72377  0.48846  0.39583  1.0000
  H   H18       1.0  0.27624  0.51153  0.60418  1.0000
  H   H19       1.0  0.51550  0.36620  0.31908  1.0000
  H   H20       1.0  0.48450  0.63380  0.68092  1.0000
  H   H21       1.0  0.18811  0.08492  0.59306  1.0000
  H   H22       1.0  0.81189  0.91508  0.40694  1.0000
  H   H23       1.0  0.81303  0.34092  0.21312  1.0000
  H   H24       1.0  0.18698  0.65908  0.78687  1.0000
  H   H25       1.0  0.32520  0.57784  0.29095  1.0000
  H   H26       1.0  0.67480  0.42216  0.70905  1.0000
  H   H27       1.0  0.69809  0.68905  0.89093  1.0000
  H   H28       1.0  0.30191  0.31095  0.10906  1.0000
  C   C1        1.0  0.04020  0.34349  0.35942  1.0000
  C   C2        1.0  0.95980  0.65651  0.64058  1.0000
  C   C3        1.0  0.97213  0.02228  0.75228  1.0000
  C   C4        1.0  0.02787  0.97772  0.24772  1.0000
  C   C5        1.0  0.92063  0.93956  0.87668  1.0000
  C   C6        1.0  0.07937  0.06044  0.12332  1.0000
  C   C7        1.0  0.22107  0.87503  0.86418  1.0000
  C   C8        1.0  0.77893  0.12497  0.13582  1.0000
  C   C9        1.0  0.15819  0.23053  0.36872  1.0000
  C   C10       1.0  0.84180  0.76947  0.63128  1.0000
  C   C11       1.0  0.71878  0.67265  0.08790  1.0000
  C   C12       1.0  0.28123  0.32735  0.91210  1.0000
  C   C13       1.0  0.68491  0.81778  0.09840  1.0000
  C   C14       1.0  0.31510  0.18221  0.90161  1.0000
  C   C15       1.0  0.05025  0.86659  0.93398  1.0000
  C   C16       1.0  0.94975  0.13341  0.06602  1.0000
  C   C17       1.0  0.75350  0.56267  0.19067  1.0000
  C   C18       1.0  0.24651  0.43733  0.80933  1.0000
  C   C19       1.0  0.75814  0.57908  0.31887  1.0000
  C   C20       1.0  0.24186  0.42092  0.68113  1.0000
  C   C21       1.0  0.37982  0.36231  0.32879  1.0000
  C   C22       1.0  0.62018  0.63769  0.67120  1.0000
  C   C23       1.0  0.09572  0.47325  0.33093  1.0000
  C   C24       1.0  0.90428  0.52675  0.66908  1.0000
  C   C25       1.0  0.14484  0.02334  0.69007  1.0000
  C   C26       1.0  0.85516  0.97665  0.30993  1.0000
  C   C27       1.0  0.78258  0.44014  0.15600  1.0000
  C   C28       1.0  0.21742  0.55986  0.84400  1.0000
  C   C29       1.0  0.27217  0.48062  0.31405  1.0000
  C   C30       1.0  0.72783  0.51938  0.68595  1.0000
  C   C31       1.0  0.71990  0.62827  0.98152  1.0000
  C   C32       1.0  0.28010  0.37173  0.01848  1.0000
  S   S1        1.0  0.70030  0.94072  0.94704  1.0000
  S   S2        1.0  0.29970  0.05929  0.05297  1.0000
  S   S3        1.0  0.96484  0.62500  0.32065  1.0000
  S   S4        1.0  0.03515  0.37500  0.67936  1.0000
  S   S5        1.0  0.76554  0.45696  0.00335  1.0000
  S   S6        1.0  0.23446  0.54304  0.99665  1.0000
  I   I1        1.0  0.36984  0.84084  0.44501  1.0000
  I   I2        1.0  0.63015  0.15916  0.55500  1.0000
  N   N1        1.0  0.27032  0.94867  0.74243  1.0000
  N   N2        1.0  0.72968  0.05133  0.25756  1.0000
  N   N3        1.0  0.32703  0.23696  0.35472  1.0000
  N   N4        1.0  0.67297  0.76304  0.64528  1.0000
