data_image0
_chemical_formula_structural       Cu4H56C64S12I4N8
_chemical_formula_sum              "Cu4 H56 C64 S12 I4 N8"
_cell_length_a       9.21735
_cell_length_b       14.3983
_cell_length_c       16.453
_cell_angle_alpha    90
_cell_angle_beta     90
_cell_angle_gamma    105.473

_space_group_name_H-M_alt    "P 1"
_space_group_IT_number       1

loop_
  _space_group_symop_operation_xyz
  'x, y, z'

loop_
  _atom_site_type_symbol
  _atom_site_label
  _atom_site_symmetry_multiplicity
  _atom_site_fract_x
  _atom_site_fract_y
  _atom_site_fract_z
  _atom_site_occupancy
  Cu  Cu1       1.0  0.97748  0.05537  0.94280  1.0000
  Cu  Cu2       1.0  0.52253  0.44464  0.44280  1.0000
  Cu  Cu3       1.0  0.02254  0.94463  0.05720  1.0000
  Cu  Cu4       1.0  0.47748  0.55537  0.55721  1.0000
  H   H1        1.0  0.36641  0.25224  0.80904  1.0000
  H   H2        1.0  0.13359  0.24776  0.30904  1.0000
  H   H3        1.0  0.63359  0.74776  0.19096  1.0000
  H   H4        1.0  0.86641  0.75225  0.69097  1.0000
  H   H5        1.0  0.33412  0.23966  0.91653  1.0000
  H   H6        1.0  0.16588  0.26034  0.41654  1.0000
  H   H7        1.0  0.66588  0.76034  0.08346  1.0000
  H   H8        1.0  0.83411  0.73965  0.58347  1.0000
  H   H9        1.0  0.41054  0.44962  0.03518  1.0000
  H   H10       1.0  0.08947  0.05039  0.53519  1.0000
  H   H11       1.0  0.58948  0.55038  0.96481  1.0000
  H   H12       1.0  0.91051  0.94962  0.46481  1.0000
  H   H13       1.0  0.31350  0.32519  0.02273  1.0000
  H   H14       1.0  0.18652  0.17482  0.52273  1.0000
  H   H15       1.0  0.68651  0.67482  0.97728  1.0000
  H   H16       1.0  0.81349  0.82519  0.47727  1.0000
  H   H17       1.0  0.25374  0.37429  0.73021  1.0000
  H   H18       1.0  0.24623  0.12570  0.23021  1.0000
  H   H19       1.0  0.74625  0.62571  0.26979  1.0000
  H   H20       1.0  0.75374  0.87429  0.76979  1.0000
  H   H21       1.0  0.64266  0.03175  0.92844  1.0000
  H   H22       1.0  0.85735  0.46824  0.42842  1.0000
  H   H23       1.0  0.35736  0.96824  0.07156  1.0000
  H   H24       1.0  0.14265  0.53175  0.57156  1.0000
  H   H25       1.0  0.11289  0.48594  0.24822  1.0000
  H   H26       1.0  0.38711  0.01407  0.74822  1.0000
  H   H27       1.0  0.88712  0.51407  0.75178  1.0000
  H   H28       1.0  0.61288  0.98593  0.25177  1.0000
  H   H29       1.0  0.25207  0.49483  0.37913  1.0000
  H   H30       1.0  0.24793  0.00518  0.87913  1.0000
  H   H31       1.0  0.74794  0.50518  0.62088  1.0000
  H   H32       1.0  0.75207  0.99482  0.12086  1.0000
  H   H33       1.0  0.01943  0.26217  0.95556  1.0000
  H   H34       1.0  0.48056  0.23784  0.45556  1.0000
  H   H35       1.0  0.98057  0.73782  0.04446  1.0000
  H   H36       1.0  0.51943  0.76217  0.54446  1.0000
  H   H37       1.0  0.14947  0.53759  0.95078  1.0000
  H   H38       1.0  0.35055  0.96242  0.45078  1.0000
  H   H39       1.0  0.85054  0.46241  0.04922  1.0000
  H   H40       1.0  0.64944  0.03758  0.54922  1.0000
  H   H41       1.0  0.43564  0.34897  0.14398  1.0000
  H   H42       1.0  0.06436  0.15103  0.64398  1.0000
  H   H43       1.0  0.56437  0.65104  0.85602  1.0000
  H   H44       1.0  0.93564  0.84897  0.35602  1.0000
  H   H45       1.0  0.55890  0.36432  0.27824  1.0000
  H   H46       1.0  0.94110  0.13569  0.77823  1.0000
  H   H47       1.0  0.44110  0.63569  0.72177  1.0000
  H   H48       1.0  0.05891  0.86432  0.22176  1.0000
  H   H49       1.0  0.87526  0.38096  0.92353  1.0000
  H   H50       1.0  0.62471  0.11904  0.42353  1.0000
  H   H51       1.0  0.12474  0.61903  0.07648  1.0000
  H   H52       1.0  0.37525  0.88096  0.57648  1.0000
  H   H53       1.0  0.47840  0.13967  0.89992  1.0000
  H   H54       1.0  0.02159  0.36032  0.39990  1.0000
  H   H55       1.0  0.52162  0.86032  0.10008  1.0000
  H   H56       1.0  0.97839  0.63966  0.60007  1.0000
  C   C1        1.0  0.26163  0.41642  0.18380  1.0000
  C   C2        1.0  0.23838  0.08359  0.68380  1.0000
  C   C3        1.0  0.73839  0.58360  0.81621  1.0000
  C   C4        1.0  0.76162  0.91641  0.31620  1.0000
  C   C5        1.0  0.25753  0.41839  0.93319  1.0000
  C   C6        1.0  0.24248  0.08160  0.43320  1.0000
  C   C7        1.0  0.74249  0.58160  0.06681  1.0000
  C   C8        1.0  0.75750  0.91840  0.56680  1.0000
  C   C9        1.0  0.37416  0.29138  0.86678  1.0000
  C   C10       1.0  0.12584  0.20862  0.36678  1.0000
  C   C11       1.0  0.62584  0.70862  0.13322  1.0000
  C   C12       1.0  0.87416  0.79138  0.63322  1.0000
  C   C13       1.0  0.30249  0.39920  0.01809  1.0000
  C   C14       1.0  0.19752  0.10080  0.51809  1.0000
  C   C15       1.0  0.69752  0.60080  0.98191  1.0000
  C   C16       1.0  0.80248  0.89920  0.48191  1.0000
  C   C17       1.0  0.24087  0.39836  0.79194  1.0000
  C   C18       1.0  0.25911  0.10163  0.29193  1.0000
  C   C19       1.0  0.75913  0.60164  0.20807  1.0000
  C   C20       1.0  0.74086  0.89837  0.70806  1.0000
  C   C21       1.0  0.68905  0.11002  0.92712  1.0000
  C   C22       1.0  0.81095  0.38999  0.42710  1.0000
  C   C23       1.0  0.31097  0.88997  0.07289  1.0000
  C   C24       1.0  0.18905  0.61002  0.57289  1.0000
  C   C25       1.0  0.28857  0.36622  0.86336  1.0000
  C   C26       1.0  0.21143  0.13377  0.36337  1.0000
  C   C27       1.0  0.71144  0.63378  0.13663  1.0000
  C   C28       1.0  0.78855  0.86623  0.63663  1.0000
  C   C29       1.0  0.21021  0.45672  0.25247  1.0000
  C   C30       1.0  0.28979  0.04329  0.75247  1.0000
  C   C31       1.0  0.78980  0.54329  0.74754  1.0000
  C   C32       1.0  0.71021  0.95671  0.24752  1.0000
  C   C33       1.0  0.28758  0.46233  0.32528  1.0000
  C   C34       1.0  0.21242  0.03767  0.82527  1.0000
  C   C35       1.0  0.71243  0.53768  0.67473  1.0000
  C   C36       1.0  0.78758  0.96232  0.17472  1.0000
  C   C37       1.0  0.89945  0.23827  0.94189  1.0000
  C   C38       1.0  0.60055  0.26174  0.44189  1.0000
  C   C39       1.0  0.10055  0.76172  0.05812  1.0000
  C   C40       1.0  0.39945  0.73827  0.55813  1.0000
  C   C41       1.0  0.18648  0.48779  0.91145  1.0000
  C   C42       1.0  0.31352  0.01222  0.41144  1.0000
  C   C43       1.0  0.81353  0.51221  0.08856  1.0000
  C   C44       1.0  0.68646  0.98779  0.58855  1.0000
  C   C45       1.0  0.38965  0.38219  0.19364  1.0000
  C   C46       1.0  0.11036  0.11783  0.69363  1.0000
  C   C47       1.0  0.61037  0.61783  0.80637  1.0000
  C   C48       1.0  0.88964  0.88218  0.30636  1.0000
  C   C49       1.0  0.66307  0.27068  0.90835  1.0000
  C   C50       1.0  0.83692  0.22932  0.40834  1.0000
  C   C51       1.0  0.33693  0.72930  0.09165  1.0000
  C   C52       1.0  0.16306  0.77068  0.59165  1.0000
  C   C53       1.0  0.45923  0.39040  0.26935  1.0000
  C   C54       1.0  0.04076  0.10961  0.76935  1.0000
  C   C55       1.0  0.54077  0.60961  0.73066  1.0000
  C   C56       1.0  0.95924  0.89040  0.23065  1.0000
  C   C57       1.0  0.81838  0.30411  0.92493  1.0000
  C   C58       1.0  0.68161  0.19589  0.42493  1.0000
  C   C59       1.0  0.18162  0.69588  0.07508  1.0000
  C   C60       1.0  0.31837  0.80411  0.57507  1.0000
  C   C61       1.0  0.59802  0.17066  0.91060  1.0000
  C   C62       1.0  0.90197  0.32933  0.41058  1.0000
  C   C63       1.0  0.40199  0.82932  0.08941  1.0000
  C   C64       1.0  0.09802  0.67066  0.58941  1.0000
  S   S1        1.0  0.16420  0.41426  0.09239  1.0000
  S   S2        1.0  0.33582  0.08574  0.59239  1.0000
  S   S3        1.0  0.83583  0.58575  0.90761  1.0000
  S   S4        1.0  0.66417  0.91425  0.40760  1.0000
  S   S5        1.0  0.56956  0.35771  0.88570  1.0000
  S   S6        1.0  0.93043  0.14229  0.38570  1.0000
  S   S7        1.0  0.43045  0.64228  0.11430  1.0000
  S   S8        1.0  0.06954  0.85770  0.61429  1.0000
  S   S9        1.0  0.15812  0.48990  0.80849  1.0000
  S   S10       1.0  0.34187  0.01009  0.30850  1.0000
  S   S11       1.0  0.84187  0.51009  0.19151  1.0000
  S   S12       1.0  0.65810  0.98990  0.69150  1.0000
  I   I1        1.0  0.80529  0.87704  0.94820  1.0000
  I   I2        1.0  0.69473  0.62297  0.44821  1.0000
  I   I3        1.0  0.19475  0.12296  0.05179  1.0000
  I   I4        1.0  0.30527  0.37704  0.55179  1.0000
  N   N1        1.0  0.83807  0.14177  0.94223  1.0000
  N   N2        1.0  0.66193  0.35824  0.44222  1.0000
  N   N3        1.0  0.16194  0.85823  0.05778  1.0000
  N   N4        1.0  0.33808  0.64177  0.55778  1.0000
  N   N5        1.0  0.41132  0.42991  0.33489  1.0000
  N   N6        1.0  0.08868  0.07010  0.83488  1.0000
  N   N7        1.0  0.58868  0.57009  0.66512  1.0000
  N   N8        1.0  0.91133  0.92991  0.16511  1.0000
