data_image0
_chemical_formula_structural       Cu2H48C52N4O12
_chemical_formula_sum              "Cu2 H48 C52 N4 O12"
_cell_length_a       9.5695
_cell_length_b       10.6529
_cell_length_c       12.2122
_cell_angle_alpha    110.241
_cell_angle_beta     89.9991
_cell_angle_gamma    90.0004

_space_group_name_H-M_alt    "P 1"
_space_group_IT_number       1

loop_
  _space_group_symop_operation_xyz
  'x, y, z'

loop_
  _atom_site_type_symbol
  _atom_site_label
  _atom_site_symmetry_multiplicity
  _atom_site_fract_x
  _atom_site_fract_y
  _atom_site_fract_z
  _atom_site_occupancy
  Cu  Cu1       1.0  1.00000  0.50000  0.00000  1.0000
  Cu  Cu2       1.0  0.50000  1.00000  1.00000  1.0000
  H   H1        1.0  0.10001  0.34518  0.10726  1.0000
  H   H2        1.0  0.60001  0.15482  0.89274  1.0000
  H   H3        1.0  0.89999  0.65482  0.89274  1.0000
  H   H4        1.0  0.39998  0.84518  0.10726  1.0000
  H   H5        1.0  0.28747  0.70279  0.31824  1.0000
  H   H6        1.0  0.78748  0.79722  0.68176  1.0000
  H   H7        1.0  0.71252  0.29721  0.68176  1.0000
  H   H8        1.0  0.21252  0.20278  0.31824  1.0000
  H   H9        1.0  0.11670  0.76788  0.35022  1.0000
  H   H10       1.0  0.61671  0.73213  0.64978  1.0000
  H   H11       1.0  0.88329  0.23212  0.64978  1.0000
  H   H12       1.0  0.38329  0.26788  0.35022  1.0000
  H   H13       1.0  0.97423  0.72291  0.49811  1.0000
  H   H14       1.0  0.47424  0.77709  0.50189  1.0000
  H   H15       1.0  0.02577  0.27709  0.50189  1.0000
  H   H16       1.0  0.52577  0.22291  0.49811  1.0000
  H   H17       1.0  0.96566  0.65446  0.67370  1.0000
  H   H18       1.0  0.46567  0.84554  0.32630  1.0000
  H   H19       1.0  0.03434  0.34554  0.32630  1.0000
  H   H20       1.0  0.53434  0.15446  0.67369  1.0000
  H   H21       1.0  0.16851  0.54035  0.72401  1.0000
  H   H22       1.0  0.66852  0.95965  0.27598  1.0000
  H   H23       1.0  0.83149  0.45966  0.27599  1.0000
  H   H24       1.0  0.33149  0.04034  0.72401  1.0000
  H   H25       1.0  0.37489  0.48121  0.59227  1.0000
  H   H26       1.0  0.87490  0.01879  0.40772  1.0000
  H   H27       1.0  0.62511  0.51879  0.40773  1.0000
  H   H28       1.0  0.12511  0.98121  0.59228  1.0000
  H   H29       1.0  0.38029  0.54307  0.41327  1.0000
  H   H30       1.0  0.88029  0.95694  0.58672  1.0000
  H   H31       1.0  0.61971  0.45693  0.58672  1.0000
  H   H32       1.0  0.11971  0.04307  0.41329  1.0000
  H   H33       1.0  0.29656  0.21202  0.07943  1.0000
  H   H34       1.0  0.79656  0.28798  0.92057  1.0000
  H   H35       1.0  0.70344  0.78798  0.92056  1.0000
  H   H36       1.0  0.20344  0.71202  0.07943  1.0000
  H   H37       1.0  0.92682  0.08456  0.86680  1.0000
  H   H38       1.0  0.42681  0.41544  0.13320  1.0000
  H   H39       1.0  0.07318  0.91544  0.13320  1.0000
  H   H40       1.0  0.57318  0.58456  0.86681  1.0000
  H   H41       1.0  0.05067  0.86715  0.76513  1.0000
  H   H42       1.0  0.55067  0.63285  0.23487  1.0000
  H   H43       1.0  0.94932  0.13285  0.23487  1.0000
  H   H44       1.0  0.44933  0.36715  0.76513  1.0000
  H   H45       1.0  0.29176  0.83248  0.82674  1.0000
  H   H46       1.0  0.79176  0.66752  0.17326  1.0000
  H   H47       1.0  0.70824  0.16752  0.17325  1.0000
  H   H48       1.0  0.20824  0.33248  0.82674  1.0000
  C   C1        1.0  0.12958  0.56768  0.22820  1.0000
  C   C2        1.0  0.62958  0.93232  0.77180  1.0000
  C   C3        1.0  0.87042  0.43232  0.77180  1.0000
  C   C4        1.0  0.37042  0.06768  0.22820  1.0000
  C   C5        1.0  0.18056  0.67868  0.33803  1.0000
  C   C6        1.0  0.68056  0.82132  0.66197  1.0000
  C   C7        1.0  0.81944  0.32132  0.66197  1.0000
  C   C8        1.0  0.31944  0.17868  0.33803  1.0000
  C   C9        1.0  0.17947  0.64060  0.44572  1.0000
  C   C10       1.0  0.67948  0.85941  0.55428  1.0000
  C   C11       1.0  0.82052  0.35940  0.55428  1.0000
  C   C12       1.0  0.32053  0.14060  0.44572  1.0000
  C   C13       1.0  0.06312  0.67175  0.51989  1.0000
  C   C14       1.0  0.56313  0.82826  0.48011  1.0000
  C   C15       1.0  0.93688  0.32825  0.48011  1.0000
  C   C16       1.0  0.43688  0.17175  0.51989  1.0000
  C   C17       1.0  0.05880  0.63501  0.61893  1.0000
  C   C18       1.0  0.55881  0.86499  0.38107  1.0000
  C   C19       1.0  0.94120  0.36499  0.38107  1.0000
  C   C20       1.0  0.44120  0.13501  0.61893  1.0000
  C   C21       1.0  0.17173  0.56834  0.64629  1.0000
  C   C22       1.0  0.67173  0.93166  0.35371  1.0000
  C   C23       1.0  0.82827  0.43166  0.35371  1.0000
  C   C24       1.0  0.32827  0.06833  0.64629  1.0000
  C   C25       1.0  0.28762  0.53551  0.57228  1.0000
  C   C26       1.0  0.78762  0.96449  0.42771  1.0000
  C   C27       1.0  0.71238  0.46449  0.42772  1.0000
  C   C28       1.0  0.21238  0.03551  0.57229  1.0000
  C   C29       1.0  0.29083  0.57065  0.47222  1.0000
  C   C30       1.0  0.79084  0.92935  0.52777  1.0000
  C   C31       1.0  0.70916  0.42935  0.52778  1.0000
  C   C32       1.0  0.20917  0.07065  0.47223  1.0000
  C   C33       1.0  0.23801  0.13810  0.01063  1.0000
  C   C34       1.0  0.73801  0.36189  0.98937  1.0000
  C   C35       1.0  0.76199  0.86189  0.98936  1.0000
  C   C36       1.0  0.26199  0.63811  0.01063  1.0000
  C   C37       1.0  0.10196  0.16539  0.98257  1.0000
  C   C38       1.0  0.60195  0.33461  0.01743  1.0000
  C   C39       1.0  0.89804  0.83461  0.01743  1.0000
  C   C40       1.0  0.39804  0.66539  0.98257  1.0000
  C   C41       1.0  0.03268  0.06709  0.89135  1.0000
  C   C42       1.0  0.53268  0.43291  0.10865  1.0000
  C   C43       1.0  0.96731  0.93291  0.10865  1.0000
  C   C44       1.0  0.46732  0.56709  0.89136  1.0000
  C   C45       1.0  0.10083  0.94672  0.83552  1.0000
  C   C46       1.0  0.60082  0.55328  0.16448  1.0000
  C   C47       1.0  0.89917  0.05328  0.16448  1.0000
  C   C48       1.0  0.39917  0.44672  0.83552  1.0000
  C   C49       1.0  0.23528  0.92528  0.86922  1.0000
  C   C50       1.0  0.73527  0.57472  0.13078  1.0000
  C   C51       1.0  0.76472  0.07472  0.13078  1.0000
  C   C52       1.0  0.26473  0.42528  0.86922  1.0000
  N   N1        1.0  0.30198  0.02097  0.95545  1.0000
  N   N2        1.0  0.80198  0.47903  0.04456  1.0000
  N   N3        1.0  0.69802  0.97902  0.04455  1.0000
  N   N4        1.0  0.19802  0.52097  0.95544  1.0000
  O   O1        1.0  0.17656  0.45021  0.20435  1.0000
  O   O2        1.0  0.67656  0.04980  0.79566  1.0000
  O   O3        1.0  0.82344  0.54979  0.79565  1.0000
  O   O4        1.0  0.32344  0.95021  0.20434  1.0000
  O   O5        1.0  0.04296  0.60570  0.16574  1.0000
  O   O6        1.0  0.54296  0.89430  0.83427  1.0000
  O   O7        1.0  0.95704  0.39430  0.83427  1.0000
  O   O8        1.0  0.45704  0.10570  0.16573  1.0000
  O   O9        1.0  0.03770  0.28120  0.04175  1.0000
  O   O10       1.0  0.53770  0.21880  0.95825  1.0000
  O   O11       1.0  0.96229  0.71880  0.95824  1.0000
  O   O12       1.0  0.46230  0.78120  0.04175  1.0000
