data_image0
_chemical_formula_structural       Cd2H48C52N4O10
_chemical_formula_sum              "Cd2 H48 C52 N4 O10"
_cell_length_a       6.99924
_cell_length_b       11.1513
_cell_length_c       16.835
_cell_angle_alpha    104.446
_cell_angle_beta     90
_cell_angle_gamma    108.29

_space_group_name_H-M_alt    "P 1"
_space_group_IT_number       1

loop_
  _space_group_symop_operation_xyz
  'x, y, z'

loop_
  _atom_site_type_symbol
  _atom_site_label
  _atom_site_symmetry_multiplicity
  _atom_site_fract_x
  _atom_site_fract_y
  _atom_site_fract_z
  _atom_site_occupancy
  Cd  Cd1       1.0  0.74603  0.99977  0.25021  1.0000
  Cd  Cd2       1.0  0.25396  0.00022  0.74979  1.0000
  H   H1        1.0  0.30649  0.03522  0.21572  1.0000
  H   H2        1.0  0.27154  0.96423  0.28458  1.0000
  H   H3        1.0  0.69348  0.96479  0.78428  1.0000
  H   H4        1.0  0.72842  0.03576  0.71542  1.0000
  H   H5        1.0  0.20113  0.17236  0.05592  1.0000
  H   H6        1.0  0.02610  0.82737  0.44512  1.0000
  H   H7        1.0  0.79894  0.82769  0.94411  1.0000
  H   H8        1.0  0.97389  0.17261  0.55486  1.0000
  H   H9        1.0  0.96345  0.17832  0.02220  1.0000
  H   H10       1.0  0.78145  0.82038  0.47808  1.0000
  H   H11       1.0  0.03663  0.82170  0.97780  1.0000
  H   H12       1.0  0.21856  0.17962  0.52191  1.0000
  H   H13       1.0  0.34010  0.33836  0.20858  1.0000
  H   H14       1.0  0.00199  0.66228  0.29225  1.0000
  H   H15       1.0  0.65987  0.66169  0.79146  1.0000
  H   H16       1.0  0.99800  0.33770  0.70774  1.0000
  H   H17       1.0  0.44580  0.57506  0.27944  1.0000
  H   H18       1.0  0.87288  0.42562  0.22094  1.0000
  H   H19       1.0  0.55414  0.42499  0.72060  1.0000
  H   H20       1.0  0.12707  0.57437  0.77906  1.0000
  H   H21       1.0  0.30967  0.72351  0.22592  1.0000
  H   H22       1.0  0.58818  0.27608  0.27365  1.0000
  H   H23       1.0  0.69031  0.27653  0.77409  1.0000
  H   H24       1.0  0.41177  0.72390  0.72634  1.0000
  H   H25       1.0  0.06753  0.63222  0.10116  1.0000
  H   H26       1.0  0.43523  0.36607  0.39816  1.0000
  H   H27       1.0  0.93252  0.36780  0.89884  1.0000
  H   H28       1.0  0.56472  0.63390  0.60183  1.0000
  H   H29       1.0  0.95696  0.39408  0.03158  1.0000
  H   H30       1.0  0.56079  0.60404  0.46816  1.0000
  H   H31       1.0  0.04312  0.60595  0.96841  1.0000
  H   H32       1.0  0.43921  0.39594  0.53183  1.0000
  H   H33       1.0  0.51755  0.87728  0.06652  1.0000
  H   H34       1.0  0.64032  0.12276  0.43389  1.0000
  H   H35       1.0  0.48248  0.12272  0.93347  1.0000
  H   H36       1.0  0.35966  0.87719  0.56610  1.0000
  H   H37       1.0  0.39526  0.66408  0.96173  1.0000
  H   H38       1.0  0.73120  0.33609  0.53846  1.0000
  H   H39       1.0  0.60480  0.33592  0.03827  1.0000
  H   H40       1.0  0.26883  0.66385  0.46152  1.0000
  H   H41       1.0  0.71235  0.51357  0.11388  1.0000
  H   H42       1.0  0.19942  0.48600  0.38638  1.0000
  H   H43       1.0  0.28765  0.48644  0.88613  1.0000
  H   H44       1.0  0.80058  0.51400  0.61361  1.0000
  H   H45       1.0  0.83082  0.73523  0.20831  1.0000
  H   H46       1.0  0.09623  0.26414  0.29215  1.0000
  H   H47       1.0  0.16917  0.26477  0.79170  1.0000
  H   H48       1.0  0.90375  0.73585  0.70783  1.0000
  C   C1        1.0  0.97048  0.12874  0.13828  1.0000
  C   C2        1.0  0.83978  0.87060  0.36227  1.0000
  C   C3        1.0  0.02953  0.87127  0.86172  1.0000
  C   C4        1.0  0.16020  0.12938  0.63772  1.0000
  C   C5        1.0  0.07064  0.20316  0.07603  1.0000
  C   C6        1.0  0.86500  0.79612  0.42454  1.0000
  C   C7        1.0  0.92943  0.79688  0.92398  1.0000
  C   C8        1.0  0.13499  0.20385  0.57545  1.0000
  C   C9        1.0  0.13833  0.34883  0.11598  1.0000
  C   C10       1.0  0.78836  0.65053  0.38434  1.0000
  C   C11       1.0  0.86170  0.65121  0.88405  1.0000
  C   C12       1.0  0.21160  0.34944  0.61565  1.0000
  C   C13       1.0  0.27720  0.40230  0.18570  1.0000
  C   C14       1.0  0.87504  0.59775  0.31479  1.0000
  C   C15       1.0  0.72279  0.59774  0.81433  1.0000
  C   C16       1.0  0.12492  0.40221  0.68520  1.0000
  C   C17       1.0  0.33651  0.53547  0.22569  1.0000
  C   C18       1.0  0.80228  0.46466  0.27452  1.0000
  C   C19       1.0  0.66346  0.46456  0.77433  1.0000
  C   C20       1.0  0.19769  0.53530  0.72547  1.0000
  C   C21       1.0  0.26044  0.61892  0.19575  1.0000
  C   C22       1.0  0.64271  0.38061  0.30404  1.0000
  C   C23       1.0  0.73955  0.38113  0.80426  1.0000
  C   C24       1.0  0.35726  0.61936  0.69595  1.0000
  C   C25       1.0  0.12537  0.56741  0.12550  1.0000
  C   C26       1.0  0.55800  0.43144  0.37415  1.0000
  C   C27       1.0  0.87466  0.43262  0.87451  1.0000
  C   C28       1.0  0.44198  0.56856  0.62586  1.0000
  C   C29       1.0  0.06337  0.43343  0.08634  1.0000
  C   C30       1.0  0.62880  0.56532  0.41357  1.0000
  C   C31       1.0  0.93668  0.56661  0.91368  1.0000
  C   C32       1.0  0.37119  0.43468  0.58644  1.0000
  C   C33       1.0  0.55730  0.79331  0.07385  1.0000
  C   C34       1.0  0.76417  0.20661  0.42650  1.0000
  C   C35       1.0  0.44273  0.20670  0.92615  1.0000
  C   C36       1.0  0.23586  0.79339  0.57349  1.0000
  C   C37       1.0  0.48875  0.67289  0.01591  1.0000
  C   C38       1.0  0.81592  0.32714  0.48431  1.0000
  C   C39       1.0  0.51131  0.32711  0.98409  1.0000
  C   C40       1.0  0.18409  0.67286  0.51569  1.0000
  C   C41       1.0  0.53889  0.56598  0.02861  1.0000
  C   C42       1.0  0.97303  0.43390  0.47151  1.0000
  C   C43       1.0  0.46112  0.43401  0.97140  1.0000
  C   C44       1.0  0.02693  0.56607  0.52849  1.0000
  C   C45       1.0  0.66574  0.59016  0.09903  1.0000
  C   C46       1.0  0.07600  0.40946  0.40121  1.0000
  C   C47       1.0  0.33428  0.40984  0.90098  1.0000
  C   C48       1.0  0.92396  0.59049  0.59877  1.0000
  C   C49       1.0  0.73178  0.71401  0.15316  1.0000
  C   C50       1.0  0.01827  0.28551  0.34722  1.0000
  C   C51       1.0  0.26823  0.28598  0.84685  1.0000
  C   C52       1.0  0.98173  0.71447  0.65276  1.0000
  N   N1        1.0  0.67545  0.81352  0.14208  1.0000
  N   N2        1.0  0.86222  0.18615  0.35831  1.0000
  N   N3        1.0  0.32456  0.18648  0.85793  1.0000
  N   N4        1.0  0.13780  0.81383  0.64167  1.0000
  O   O1        1.0  0.37663  0.99978  0.25009  1.0000
  O   O2        1.0  0.62334  0.00023  0.74992  1.0000
  O   O3        1.0  0.78539  0.11776  0.14887  1.0000
  O   O4        1.0  0.66596  0.88202  0.35169  1.0000
  O   O5        1.0  0.21463  0.88225  0.85112  1.0000
  O   O6        1.0  0.33401  0.11796  0.64830  1.0000
  O   O7        1.0  0.07609  0.08660  0.17909  1.0000
  O   O8        1.0  0.98765  0.91229  0.32138  1.0000
  O   O9        1.0  0.92392  0.91341  0.82092  1.0000
  O   O10       1.0  0.01232  0.08770  0.67860  1.0000
