data_image0
_chemical_formula_structural       Mn2H24C32I12O12
_chemical_formula_sum              "Mn2 H24 C32 I12 O12"
_cell_length_a       4.61914
_cell_length_b       16.2769
_cell_length_c       16.7195
_cell_angle_alpha    90.0001
_cell_angle_beta     89.9999
_cell_angle_gamma    91.2572

_space_group_name_H-M_alt    "P 1"
_space_group_IT_number       1

loop_
  _space_group_symop_operation_xyz
  'x, y, z'

loop_
  _atom_site_type_symbol
  _atom_site_label
  _atom_site_symmetry_multiplicity
  _atom_site_fract_x
  _atom_site_fract_y
  _atom_site_fract_z
  _atom_site_occupancy
  Mn  Mn1       1.0  0.50000  0.50000  0.50000  1.0000
  Mn  Mn2       1.0  0.50000  0.00000  1.00000  1.0000
  H   H1        1.0  0.90624  0.50820  0.60654  1.0000
  H   H2        1.0  0.09376  0.99180  0.10653  1.0000
  H   H3        1.0  0.09376  0.49180  0.39346  1.0000
  H   H4        1.0  0.90624  0.00820  0.89346  1.0000
  H   H5        1.0  0.54556  0.07344  0.53886  1.0000
  H   H6        1.0  0.45446  0.42656  0.03887  1.0000
  H   H7        1.0  0.45444  0.92655  0.46113  1.0000
  H   H8        1.0  0.54555  0.57345  0.96114  1.0000
  H   H9        1.0  0.66092  0.32930  0.60281  1.0000
  H   H10       1.0  0.33908  0.17070  0.10281  1.0000
  H   H11       1.0  0.33907  0.67070  0.39718  1.0000
  H   H12       1.0  0.66092  0.82930  0.89719  1.0000
  H   H13       1.0  0.58142  0.54716  0.70790  1.0000
  H   H14       1.0  0.41858  0.95284  0.20790  1.0000
  H   H15       1.0  0.41859  0.45284  0.29210  1.0000
  H   H16       1.0  0.58142  0.04716  0.79210  1.0000
  H   H17       1.0  0.72439  0.44901  0.73555  1.0000
  H   H18       1.0  0.27561  0.05099  0.23555  1.0000
  H   H19       1.0  0.27562  0.55099  0.26445  1.0000
  H   H20       1.0  0.72439  0.94901  0.76445  1.0000
  H   H21       1.0  0.37958  0.45437  0.68795  1.0000
  H   H22       1.0  0.62041  0.04563  0.18794  1.0000
  H   H23       1.0  0.62042  0.54563  0.31206  1.0000
  H   H24       1.0  0.37958  0.95437  0.81205  1.0000
  C   C1        1.0  0.99559  0.37662  0.48127  1.0000
  C   C2        1.0  0.00441  0.12338  0.98127  1.0000
  C   C3        1.0  0.00441  0.62338  0.51873  1.0000
  C   C4        1.0  0.99559  0.87662  0.01872  1.0000
  C   C5        1.0  0.87465  0.29109  0.49549  1.0000
  C   C6        1.0  0.12536  0.20891  0.99550  1.0000
  C   C7        1.0  0.12536  0.70891  0.50450  1.0000
  C   C8        1.0  0.87464  0.79109  0.00451  1.0000
  C   C9        1.0  0.93394  0.22593  0.44339  1.0000
  C   C10       1.0  0.06607  0.27407  0.94339  1.0000
  C   C11       1.0  0.06606  0.77407  0.55661  1.0000
  C   C12       1.0  0.93393  0.72593  0.05661  1.0000
  C   C13       1.0  0.81502  0.14770  0.45978  1.0000
  C   C14       1.0  0.18499  0.35230  0.95979  1.0000
  C   C15       1.0  0.18497  0.85230  0.54022  1.0000
  C   C16       1.0  0.81501  0.64770  0.04022  1.0000
  C   C17       1.0  0.63852  0.13428  0.52692  1.0000
  C   C18       1.0  0.36149  0.36572  0.02692  1.0000
  C   C19       1.0  0.36148  0.86571  0.47308  1.0000
  C   C20       1.0  0.63851  0.63429  0.97308  1.0000
  C   C21       1.0  0.58446  0.20004  0.57767  1.0000
  C   C22       1.0  0.41555  0.29996  0.07768  1.0000
  C   C23       1.0  0.41555  0.79996  0.42233  1.0000
  C   C24       1.0  0.58445  0.70004  0.92233  1.0000
  C   C25       1.0  0.70214  0.27801  0.56310  1.0000
  C   C26       1.0  0.29786  0.22199  0.06311  1.0000
  C   C27       1.0  0.29786  0.72199  0.43690  1.0000
  C   C28       1.0  0.70214  0.77801  0.93690  1.0000
  C   C29       1.0  0.59772  0.48223  0.69076  1.0000
  C   C30       1.0  0.40228  0.01777  0.19075  1.0000
  C   C31       1.0  0.40229  0.51777  0.30925  1.0000
  C   C32       1.0  0.59772  0.98223  0.80924  1.0000
  I   I1        1.0  0.19740  0.25064  0.34255  1.0000
  I   I2        1.0  0.80262  0.24937  0.84256  1.0000
  I   I3        1.0  0.80260  0.74936  0.65745  1.0000
  I   I4        1.0  0.19739  0.75064  0.15745  1.0000
  I   I5        1.0  0.88301  0.04497  0.38600  1.0000
  I   I6        1.0  0.11700  0.45503  0.88600  1.0000
  I   I7        1.0  0.11697  0.95503  0.61400  1.0000
  I   I8        1.0  0.88301  0.54497  0.11400  1.0000
  I   I9        1.0  0.31935  0.18510  0.67991  1.0000
  I   I10       1.0  0.68066  0.31489  0.17991  1.0000
  I   I11       1.0  0.68065  0.81489  0.32009  1.0000
  I   I12       1.0  0.31934  0.68510  0.82009  1.0000
  O   O1        1.0  0.84483  0.42649  0.43987  1.0000
  O   O2        1.0  0.15517  0.07351  0.93987  1.0000
  O   O3        1.0  0.15517  0.57351  0.56013  1.0000
  O   O4        1.0  0.84483  0.92649  0.06013  1.0000
  O   O5        1.0  0.23795  0.39374  0.51296  1.0000
  O   O6        1.0  0.76203  0.10627  0.01296  1.0000
  O   O7        1.0  0.76204  0.60626  0.48704  1.0000
  O   O8        1.0  0.23796  0.89374  0.98704  1.0000
  O   O9        1.0  0.72492  0.47402  0.61256  1.0000
  O   O10       1.0  0.27508  0.02598  0.11255  1.0000
  O   O11       1.0  0.27508  0.52598  0.38744  1.0000
  O   O12       1.0  0.72492  0.97402  0.88744  1.0000
