data_image0
_chemical_formula_structural       Cu2H30C26N4O8
_chemical_formula_sum              "Cu2 H30 C26 N4 O8"
_cell_length_a       7.58151
_cell_length_b       8.12321
_cell_length_c       11.0892
_cell_angle_alpha    97.383
_cell_angle_beta     90.5796
_cell_angle_gamma    104.731

_space_group_name_H-M_alt    "P 1"
_space_group_IT_number       1

loop_
  _space_group_symop_operation_xyz
  'x, y, z'

loop_
  _atom_site_type_symbol
  _atom_site_label
  _atom_site_symmetry_multiplicity
  _atom_site_fract_x
  _atom_site_fract_y
  _atom_site_fract_z
  _atom_site_occupancy
  Cu  Cu1       1.0  0.40312  0.44233  0.08872  1.0000
  Cu  Cu2       1.0  0.59688  0.55768  0.91128  1.0000
  H   H1        1.0  0.73958  0.44207  0.29826  1.0000
  H   H2        1.0  0.26042  0.55794  0.70175  1.0000
  H   H3        1.0  0.01797  0.46093  0.18182  1.0000
  H   H4        1.0  0.98202  0.53907  0.81819  1.0000
  H   H5        1.0  0.93397  0.19869  0.50167  1.0000
  H   H6        1.0  0.06603  0.80129  0.49833  1.0000
  H   H7        1.0  0.22702  0.11958  0.46131  1.0000
  H   H8        1.0  0.77297  0.88040  0.53868  1.0000
  H   H9        1.0  0.40146  0.21568  0.28060  1.0000
  H   H10       1.0  0.59853  0.78432  0.71939  1.0000
  H   H11       1.0  0.57933  0.42352  0.46631  1.0000
  H   H12       1.0  0.42067  0.57647  0.53370  1.0000
  H   H13       1.0  0.77422  0.41411  0.55002  1.0000
  H   H14       1.0  0.22578  0.58588  0.44999  1.0000
  H   H15       1.0  0.56003  0.23183  0.67647  1.0000
  H   H16       1.0  0.43997  0.76816  0.32353  1.0000
  H   H17       1.0  0.60745  0.06529  0.29647  1.0000
  H   H18       1.0  0.39255  0.93470  0.70354  1.0000
  H   H19       1.0  0.73378  0.05471  0.08238  1.0000
  H   H20       1.0  0.26620  0.94527  0.91764  1.0000
  H   H21       1.0  0.90856  0.17182  0.99431  1.0000
  H   H22       1.0  0.09141  0.82816  0.00571  1.0000
  H   H23       1.0  0.71301  0.01960  0.92125  1.0000
  H   H24       1.0  0.28696  0.98040  0.07878  1.0000
  H   H25       1.0  0.92907  0.93437  0.22508  1.0000
  H   H26       1.0  0.07098  0.06566  0.77488  1.0000
  H   H27       1.0  0.02045  0.75746  0.23695  1.0000
  H   H28       1.0  0.97958  0.24255  0.76301  1.0000
  H   H29       1.0  0.85162  0.80015  0.34029  1.0000
  H   H30       1.0  0.14842  0.19988  0.65968  1.0000
  C   C1        1.0  0.05789  0.38399  0.24596  1.0000
  C   C2        1.0  0.94210  0.61600  0.75404  1.0000
  C   C3        1.0  0.94668  0.33395  0.34368  1.0000
  C   C4        1.0  0.05331  0.66605  0.65633  1.0000
  C   C5        1.0  0.01223  0.23911  0.42412  1.0000
  C   C6        1.0  0.98777  0.76088  0.57588  1.0000
  C   C7        1.0  0.17539  0.19509  0.40172  1.0000
  C   C8        1.0  0.82460  0.80489  0.59827  1.0000
  C   C9        1.0  0.27417  0.24854  0.30237  1.0000
  C   C10       1.0  0.72582  0.75145  0.69762  1.0000
  C   C11       1.0  0.68510  0.35302  0.46869  1.0000
  C   C12       1.0  0.31490  0.64698  0.53132  1.0000
  C   C13       1.0  0.59449  0.16839  0.48408  1.0000
  C   C14       1.0  0.40551  0.83160  0.51593  1.0000
  C   C15       1.0  0.53461  0.13034  0.59882  1.0000
  C   C16       1.0  0.46539  0.86965  0.40119  1.0000
  C   C17       1.0  0.56042  0.03622  0.38591  1.0000
  C   C18       1.0  0.43958  0.96377  0.61409  1.0000
  C   C19       1.0  0.66158  0.25652  0.00003  1.0000
  C   C20       1.0  0.33840  0.74347  0.00000  1.0000
  C   C21       1.0  0.76124  0.11763  0.00057  1.0000
  C   C22       1.0  0.23873  0.88236  0.99945  1.0000
  C   C23       1.0  0.74812  0.68903  0.15800  1.0000
  C   C24       1.0  0.25191  0.31100  0.84198  1.0000
  C   C25       1.0  0.89551  0.80236  0.24683  1.0000
  C   C26       1.0  0.10452  0.19767  0.75313  1.0000
  N   N1        1.0  0.21655  0.34368  0.22734  1.0000
  N   N2        1.0  0.78344  0.65633  0.77266  1.0000
  N   N3        1.0  0.78525  0.37746  0.35961  1.0000
  N   N4        1.0  0.21474  0.62254  0.64040  1.0000
  O   O1        1.0  0.54252  0.26298  0.07999  1.0000
  O   O2        1.0  0.45743  0.73700  0.92003  1.0000
  O   O3        1.0  0.70340  0.35686  0.91912  1.0000
  O   O4        1.0  0.29661  0.64316  0.08092  1.0000
  O   O5        1.0  0.61263  0.58910  0.20220  1.0000
  O   O6        1.0  0.38741  0.41092  0.79778  1.0000
  O   O7        1.0  0.77109  0.70073  0.04591  1.0000
  O   O8        1.0  0.22892  0.29930  0.95406  1.0000
