data_image0
_chemical_formula_structural       Mn4H32C16O28
_chemical_formula_sum              "Mn4 H32 C16 O28"
_cell_length_a       7.86038
_cell_length_b       7.86066
_cell_length_c       13.1173
_cell_angle_alpha    90
_cell_angle_beta     89.9996
_cell_angle_gamma    89.9983

_space_group_name_H-M_alt    "P 1"
_space_group_IT_number       1

loop_
  _space_group_symop_operation_xyz
  'x, y, z'

loop_
  _atom_site_type_symbol
  _atom_site_label
  _atom_site_symmetry_multiplicity
  _atom_site_fract_x
  _atom_site_fract_y
  _atom_site_fract_z
  _atom_site_occupancy
  Mn  Mn1       1.0  0.45185  0.85797  0.15800  1.0000
  Mn  Mn2       1.0  0.54815  0.14204  0.65800  1.0000
  Mn  Mn3       1.0  0.14208  0.45183  0.90796  1.0000
  Mn  Mn4       1.0  0.85792  0.54817  0.40797  1.0000
  H   H1        1.0  0.38060  0.90899  0.36866  1.0000
  H   H2        1.0  0.61940  0.09102  0.86866  1.0000
  H   H3        1.0  0.09111  0.38059  0.11869  1.0000
  H   H4        1.0  0.90888  0.61941  0.61869  1.0000
  H   H5        1.0  0.80852  0.93934  0.14513  1.0000
  H   H6        1.0  0.19148  0.06066  0.64513  1.0000
  H   H7        1.0  0.06065  0.80858  0.89505  1.0000
  H   H8        1.0  0.93935  0.19141  0.39505  1.0000
  H   H9        1.0  0.69975  0.06245  0.07467  1.0000
  H   H10       1.0  0.30024  0.93755  0.57467  1.0000
  H   H11       1.0  0.93746  0.69982  0.82468  1.0000
  H   H12       1.0  0.06254  0.30018  0.32468  1.0000
  H   H13       1.0  0.16349  0.71461  0.25476  1.0000
  H   H14       1.0  0.83651  0.28539  0.75476  1.0000
  H   H15       1.0  0.28528  0.16355  0.00477  1.0000
  H   H16       1.0  0.71472  0.83645  0.50477  1.0000
  H   H17       1.0  0.15618  0.65979  0.13803  1.0000
  H   H18       1.0  0.84382  0.34021  0.63803  1.0000
  H   H19       1.0  0.34035  0.15627  0.88808  1.0000
  H   H20       1.0  0.65965  0.84373  0.38808  1.0000
  H   H21       1.0  0.27817  0.15372  0.37344  1.0000
  H   H22       1.0  0.72183  0.84628  0.87344  1.0000
  H   H23       1.0  0.84617  0.27806  0.12339  1.0000
  H   H24       1.0  0.15383  0.72194  0.62339  1.0000
  H   H25       1.0  0.62406  0.24446  0.28314  1.0000
  H   H26       1.0  0.37594  0.75554  0.78314  1.0000
  H   H27       1.0  0.75553  0.62413  0.03320  1.0000
  H   H28       1.0  0.24447  0.37587  0.53320  1.0000
  H   H29       1.0  0.47183  0.40319  0.31145  1.0000
  H   H30       1.0  0.52817  0.59681  0.81145  1.0000
  H   H31       1.0  0.59680  0.47198  0.06148  1.0000
  H   H32       1.0  0.40320  0.52802  0.56148  1.0000
  C   C1        1.0  0.28674  0.18804  0.21111  1.0000
  C   C2        1.0  0.71326  0.81197  0.71111  1.0000
  C   C3        1.0  0.81192  0.28682  0.96114  1.0000
  C   C4        1.0  0.18809  0.71319  0.46115  1.0000
  C   C5        1.0  0.37341  0.14430  0.31238  1.0000
  C   C6        1.0  0.62660  0.85571  0.81238  1.0000
  C   C7        1.0  0.85572  0.37343  0.06241  1.0000
  C   C8        1.0  0.14428  0.62657  0.56241  1.0000
  C   C9        1.0  0.51436  0.27446  0.33226  1.0000
  C   C10       1.0  0.48564  0.72554  0.83227  1.0000
  C   C11       1.0  0.72555  0.51438  0.08228  1.0000
  C   C12       1.0  0.27445  0.48563  0.58228  1.0000
  C   C13       1.0  0.57236  0.27833  0.44262  1.0000
  C   C14       1.0  0.42763  0.72166  0.94262  1.0000
  C   C15       1.0  0.72168  0.57234  0.19260  1.0000
  C   C16       1.0  0.27832  0.42766  0.69260  1.0000
  O   O1        1.0  0.17336  0.30370  0.21465  1.0000
  O   O2        1.0  0.82665  0.69630  0.71465  1.0000
  O   O3        1.0  0.69620  0.17348  0.96469  1.0000
  O   O4        1.0  0.30379  0.82652  0.46469  1.0000
  O   O5        1.0  0.33478  0.11168  0.13077  1.0000
  O   O6        1.0  0.66522  0.88831  0.63077  1.0000
  O   O7        1.0  0.88833  0.33487  0.88083  1.0000
  O   O8        1.0  0.11167  0.66512  0.38083  1.0000
  O   O9        1.0  0.66798  0.39905  0.47312  1.0000
  O   O10       1.0  0.33202  0.60095  0.97312  1.0000
  O   O11       1.0  0.60092  0.66797  0.22303  1.0000
  O   O12       1.0  0.39908  0.33203  0.72303  1.0000
  O   O13       1.0  0.51940  0.16089  0.50089  1.0000
  O   O14       1.0  0.48060  0.83911  0.00089  1.0000
  O   O15       1.0  0.83909  0.51939  0.25089  1.0000
  O   O16       1.0  0.16091  0.48061  0.75089  1.0000
  O   O17       1.0  0.43870  0.97381  0.31044  1.0000
  O   O18       1.0  0.56130  0.02619  0.81045  1.0000
  O   O19       1.0  0.02622  0.43876  0.06049  1.0000
  O   O20       1.0  0.97378  0.56124  0.56049  1.0000
  O   O21       1.0  0.70523  0.00759  0.14376  1.0000
  O   O22       1.0  0.29477  0.99242  0.64376  1.0000
  O   O23       1.0  0.99238  0.70533  0.89377  1.0000
  O   O24       1.0  0.00762  0.29467  0.39377  1.0000
  O   O25       1.0  0.19458  0.74997  0.18404  1.0000
  O   O26       1.0  0.80542  0.25003  0.68404  1.0000
  O   O27       1.0  0.25006  0.19468  0.93402  1.0000
  O   O28       1.0  0.74994  0.80532  0.43401  1.0000
