data_image0
_chemical_formula_structural       Cd2H42C48N8O8
_chemical_formula_sum              "Cd2 H42 C48 N8 O8"
_cell_length_a       9.54446
_cell_length_b       11.0385
_cell_length_c       11.161
_cell_angle_alpha    77.4031
_cell_angle_beta     78.1052
_cell_angle_gamma    85.0925

_space_group_name_H-M_alt    "P 1"
_space_group_IT_number       1

loop_
  _space_group_symop_operation_xyz
  'x, y, z'

loop_
  _atom_site_type_symbol
  _atom_site_label
  _atom_site_symmetry_multiplicity
  _atom_site_fract_x
  _atom_site_fract_y
  _atom_site_fract_z
  _atom_site_occupancy
  Cd  Cd1       1.0  0.94573  0.20093  0.15415  1.0000
  Cd  Cd2       1.0  0.05427  0.79907  0.84585  1.0000
  H   H1        1.0  0.85534  0.57641  0.88904  1.0000
  H   H2        1.0  0.14466  0.42359  0.11096  1.0000
  H   H3        1.0  0.86606  0.41463  0.88554  1.0000
  H   H4        1.0  0.13394  0.58537  0.11446  1.0000
  H   H5        1.0  0.88618  0.52820  0.74380  1.0000
  H   H6        1.0  0.11382  0.47180  0.25620  1.0000
  H   H7        1.0  0.39254  0.71702  0.85158  1.0000
  H   H8        1.0  0.60746  0.28298  0.14842  1.0000
  H   H9        1.0  0.62847  0.60156  0.83243  1.0000
  H   H10       1.0  0.37153  0.39844  0.16757  1.0000
  H   H11       1.0  0.65066  0.38366  0.80005  1.0000
  H   H12       1.0  0.34934  0.61634  0.19995  1.0000
  H   H13       1.0  0.43848  0.27782  0.78535  1.0000
  H   H14       1.0  0.56152  0.72218  0.21465  1.0000
  H   H15       1.0  0.22072  0.19391  0.27513  1.0000
  H   H16       1.0  0.77928  0.80609  0.72487  1.0000
  H   H17       1.0  0.26703  0.10128  0.41469  1.0000
  H   H18       1.0  0.73297  0.89872  0.58531  1.0000
  H   H19       1.0  0.24085  0.26468  0.39920  1.0000
  H   H20       1.0  0.75915  0.73532  0.60080  1.0000
  H   H21       1.0  0.76392  0.12915  0.77407  1.0000
  H   H22       1.0  0.23608  0.87086  0.22593  1.0000
  H   H23       1.0  0.51528  0.09903  0.74917  1.0000
  H   H24       1.0  0.48472  0.90097  0.25083  1.0000
  H   H25       1.0  0.46032  0.10611  0.54153  1.0000
  H   H26       1.0  0.53968  0.89389  0.45847  1.0000
  H   H27       1.0  0.65272  0.13350  0.34919  1.0000
  H   H28       1.0  0.34728  0.86650  0.65081  1.0000
  H   H29       1.0  0.17492  0.10759  0.63551  1.0000
  H   H30       1.0  0.82508  0.89241  0.36449  1.0000
  H   H31       1.0  0.01070  0.10353  0.74219  1.0000
  H   H32       1.0  0.98930  0.89647  0.25781  1.0000
  H   H33       1.0  0.02729  0.25200  0.87083  1.0000
  H   H34       1.0  0.97271  0.74800  0.12916  1.0000
  H   H35       1.0  0.21079  0.21943  0.81615  1.0000
  H   H36       1.0  0.78922  0.78057  0.18385  1.0000
  H   H37       1.0  0.98906  0.34498  0.65913  1.0000
  H   H38       1.0  0.01095  0.65502  0.34087  1.0000
  H   H39       1.0  0.17528  0.33491  0.59632  1.0000
  H   H40       1.0  0.82472  0.66508  0.40368  1.0000
  H   H41       1.0  0.46630  0.19967  0.07073  1.0000
  H   H42       1.0  0.53370  0.80033  0.92927  1.0000
  C   C1        1.0  0.91007  0.50541  0.83892  1.0000
  C   C2        1.0  0.08993  0.49459  0.16108  1.0000
  C   C3        1.0  0.06658  0.50468  0.83390  1.0000
  C   C4        1.0  0.93342  0.49532  0.16610  1.0000
  C   C5        1.0  0.28185  0.56155  0.83199  1.0000
  C   C6        1.0  0.71815  0.43845  0.16802  1.0000
  C   C7        1.0  0.40247  0.62235  0.83695  1.0000
  C   C8        1.0  0.59753  0.37765  0.16305  1.0000
  C   C9        1.0  0.53413  0.55688  0.82490  1.0000
  C   C10       1.0  0.46586  0.44313  0.17511  1.0000
  C   C11       1.0  0.54688  0.43382  0.80653  1.0000
  C   C12       1.0  0.45312  0.56618  0.19347  1.0000
  C   C13       1.0  0.42793  0.37283  0.79944  1.0000
  C   C14       1.0  0.57207  0.62717  0.20056  1.0000
  C   C15       1.0  0.29612  0.43839  0.81299  1.0000
  C   C16       1.0  0.70388  0.56161  0.18701  1.0000
  C   C17       1.0  0.20236  0.18257  0.37703  1.0000
  C   C18       1.0  0.79764  0.81743  0.62297  1.0000
  C   C19       1.0  0.04779  0.16682  0.43080  1.0000
  C   C20       1.0  0.95221  0.83318  0.56920  1.0000
  C   C21       1.0  0.84580  0.14440  0.57444  1.0000
  C   C22       1.0  0.15420  0.85560  0.42556  1.0000
  C   C23       1.0  0.73976  0.13010  0.68258  1.0000
  C   C24       1.0  0.26024  0.86990  0.31742  1.0000
  C   C25       1.0  0.60119  0.11589  0.66713  1.0000
  C   C26       1.0  0.39882  0.88411  0.33287  1.0000
  C   C27       1.0  0.57015  0.11864  0.54851  1.0000
  C   C28       1.0  0.42985  0.88136  0.45149  1.0000
  C   C29       1.0  0.67642  0.13427  0.44049  1.0000
  C   C30       1.0  0.32358  0.86573  0.55951  1.0000
  C   C31       1.0  0.81654  0.14714  0.45461  1.0000
  C   C32       1.0  0.18346  0.85286  0.54539  1.0000
  C   C33       1.0  0.07089  0.15738  0.65484  1.0000
  C   C34       1.0  0.92911  0.84262  0.34516  1.0000
  C   C35       1.0  0.12082  0.28540  0.79904  1.0000
  C   C36       1.0  0.87919  0.71460  0.20095  1.0000
  C   C37       1.0  0.08892  0.28960  0.66956  1.0000
  C   C38       1.0  0.91108  0.71040  0.33044  1.0000
  C   C39       1.0  0.21763  0.11646  0.06136  1.0000
  C   C40       1.0  0.78237  0.88354  0.93864  1.0000
  C   C41       1.0  0.48316  0.11196  0.03924  1.0000
  C   C42       1.0  0.51684  0.88804  0.96076  1.0000
  C   C43       1.0  0.36268  0.05726  0.02426  1.0000
  C   C44       1.0  0.63732  0.94274  0.97574  1.0000
  C   C45       1.0  0.37977  0.94384  0.98359  1.0000
  C   C46       1.0  0.62023  0.05616  0.01641  1.0000
  C   C47       1.0  0.25877  0.88400  0.95350  1.0000
  C   C48       1.0  0.74122  0.11600  0.04650  1.0000
  N   N1        1.0  0.94464  0.16152  0.36737  1.0000
  N   N2        1.0  0.05536  0.83848  0.63263  1.0000
  N   N3        1.0  0.99285  0.15561  0.55610  1.0000
  N   N4        1.0  0.00715  0.84439  0.44390  1.0000
  N   N5        1.0  0.15833  0.40525  0.81495  1.0000
  N   N6        1.0  0.84167  0.59475  0.18505  1.0000
  N   N7        1.0  0.13757  0.59989  0.84487  1.0000
  N   N8        1.0  0.86243  0.40011  0.15513  1.0000
  O   O1        1.0  0.10856  0.05038  0.08187  1.0000
  O   O2        1.0  0.89144  0.94962  0.91813  1.0000
  O   O3        1.0  0.20742  0.22860  0.07629  1.0000
  O   O4        1.0  0.79258  0.77141  0.92371  1.0000
  O   O5        1.0  0.19760  0.79314  0.02934  1.0000
  O   O6        1.0  0.80240  0.20686  0.97066  1.0000
  O   O7        1.0  0.23488  0.92554  0.84235  1.0000
  O   O8        1.0  0.76511  0.07446  0.15765  1.0000
