data_image0
_chemical_formula_structural       Cs4H56C24Cl4O16
_chemical_formula_sum              "Cs4 H56 C24 Cl4 O16"
_cell_length_a       8.77741
_cell_length_b       8.71921
_cell_length_c       16.0386
_cell_angle_alpha    90
_cell_angle_beta     90
_cell_angle_gamma    107.617

_space_group_name_H-M_alt    "P 1"
_space_group_IT_number       1

loop_
  _space_group_symop_operation_xyz
  'x, y, z'

loop_
  _atom_site_type_symbol
  _atom_site_label
  _atom_site_symmetry_multiplicity
  _atom_site_fract_x
  _atom_site_fract_y
  _atom_site_fract_z
  _atom_site_occupancy
  Cs  Cs1       1.0  0.10348  0.10343  0.59672  1.0000
  Cs  Cs2       1.0  0.89648  0.89661  0.09672  1.0000
  Cs  Cs3       1.0  0.10350  0.10342  0.90328  1.0000
  Cs  Cs4       1.0  0.89647  0.89661  0.40328  1.0000
  H   H1        1.0  0.25772  0.43367  0.32510  1.0000
  H   H2        1.0  0.74225  0.56635  0.82510  1.0000
  H   H3        1.0  0.43222  0.25938  0.17513  1.0000
  H   H4        1.0  0.56776  0.74066  0.67513  1.0000
  H   H5        1.0  0.74225  0.56635  0.67490  1.0000
  H   H6        1.0  0.25771  0.43367  0.17491  1.0000
  H   H7        1.0  0.56776  0.74065  0.82488  1.0000
  H   H8        1.0  0.43222  0.25937  0.32487  1.0000
  H   H9        1.0  0.25841  0.42638  0.43591  1.0000
  H   H10       1.0  0.74157  0.57363  0.93592  1.0000
  H   H11       1.0  0.42539  0.25993  0.06432  1.0000
  H   H12       1.0  0.57459  0.74009  0.56432  1.0000
  H   H13       1.0  0.74157  0.57364  0.56408  1.0000
  H   H14       1.0  0.25841  0.42639  0.06409  1.0000
  H   H15       1.0  0.57459  0.74009  0.93568  1.0000
  H   H16       1.0  0.42539  0.25993  0.43567  1.0000
  H   H17       1.0  0.01432  0.48308  0.37226  1.0000
  H   H18       1.0  0.98566  0.51693  0.87226  1.0000
  H   H19       1.0  0.48223  0.01420  0.12768  1.0000
  H   H20       1.0  0.51774  0.98582  0.62767  1.0000
  H   H21       1.0  0.98565  0.51693  0.62774  1.0000
  H   H22       1.0  0.01431  0.48308  0.12774  1.0000
  H   H23       1.0  0.51773  0.98581  0.87233  1.0000
  H   H24       1.0  0.48223  0.01420  0.37231  1.0000
  H   H25       1.0  0.95987  0.28977  0.32596  1.0000
  H   H26       1.0  0.04010  0.71023  0.82596  1.0000
  H   H27       1.0  0.29014  0.95910  0.17402  1.0000
  H   H28       1.0  0.70983  0.04093  0.67402  1.0000
  H   H29       1.0  0.04010  0.71023  0.67403  1.0000
  H   H30       1.0  0.95987  0.28977  0.17403  1.0000
  H   H31       1.0  0.70982  0.04093  0.82598  1.0000
  H   H32       1.0  0.29014  0.95909  0.32598  1.0000
  H   H33       1.0  0.71985  0.21669  0.40596  1.0000
  H   H34       1.0  0.28012  0.78335  0.90596  1.0000
  H   H35       1.0  0.21645  0.71844  0.09372  1.0000
  H   H36       1.0  0.78351  0.28159  0.59372  1.0000
  H   H37       1.0  0.28012  0.78335  0.59404  1.0000
  H   H38       1.0  0.71985  0.21669  0.09403  1.0000
  H   H39       1.0  0.78352  0.28159  0.90628  1.0000
  H   H40       1.0  0.21646  0.71843  0.40628  1.0000
  H   H41       1.0  0.77753  0.41080  0.45359  1.0000
  H   H42       1.0  0.22247  0.58924  0.95359  1.0000
  H   H43       1.0  0.40897  0.77550  0.04572  1.0000
  H   H44       1.0  0.59101  0.22454  0.54571  1.0000
  H   H45       1.0  0.22247  0.58924  0.54642  1.0000
  H   H46       1.0  0.77753  0.41080  0.04641  1.0000
  H   H47       1.0  0.59101  0.22455  0.95428  1.0000
  H   H48       1.0  0.40897  0.77550  0.45429  1.0000
  H   H49       1.0  0.41805  0.31002  0.67503  1.0000
  H   H50       1.0  0.58203  0.68976  0.17504  1.0000
  H   H51       1.0  0.31031  0.41875  0.82488  1.0000
  H   H52       1.0  0.68996  0.58119  0.32489  1.0000
  H   H53       1.0  0.58201  0.68980  0.32497  1.0000
  H   H54       1.0  0.41808  0.30996  0.82496  1.0000
  H   H55       1.0  0.69001  0.58118  0.17512  1.0000
  H   H56       1.0  0.31022  0.41875  0.67512  1.0000
  C   C1        1.0  0.19610  0.36494  0.37966  1.0000
  C   C2        1.0  0.80387  0.63507  0.87967  1.0000
  C   C3        1.0  0.36435  0.19703  0.12053  1.0000
  C   C4        1.0  0.63563  0.80300  0.62053  1.0000
  C   C5        1.0  0.80387  0.63508  0.62033  1.0000
  C   C6        1.0  0.19610  0.36494  0.12034  1.0000
  C   C7        1.0  0.63562  0.80299  0.87947  1.0000
  C   C8        1.0  0.36435  0.19703  0.37947  1.0000
  C   C9        1.0  0.02353  0.36046  0.37970  1.0000
  C   C10       1.0  0.97645  0.63955  0.87970  1.0000
  C   C11       1.0  0.36038  0.02346  0.12036  1.0000
  C   C12       1.0  0.63959  0.97656  0.62035  1.0000
  C   C13       1.0  0.97644  0.63955  0.62029  1.0000
  C   C14       1.0  0.02353  0.36046  0.12030  1.0000
  C   C15       1.0  0.63959  0.97656  0.87965  1.0000
  C   C16       1.0  0.36038  0.02346  0.37964  1.0000
  C   C17       1.0  0.78604  0.28728  0.45905  1.0000
  C   C18       1.0  0.21393  0.71275  0.95905  1.0000
  C   C19       1.0  0.28651  0.78494  0.04060  1.0000
  C   C20       1.0  0.71346  0.21509  0.54059  1.0000
  C   C21       1.0  0.21393  0.71275  0.54095  1.0000
  C   C22       1.0  0.78604  0.28728  0.04095  1.0000
  C   C23       1.0  0.71346  0.21509  0.95940  1.0000
  C   C24       1.0  0.28651  0.78494  0.45940  1.0000
  Cl  Cl1       1.0  0.07720  0.36197  0.75001  1.0000
  Cl  Cl2       1.0  0.92307  0.63817  0.25000  1.0000
  Cl  Cl3       1.0  0.36157  0.07617  0.74999  1.0000
  Cl  Cl4       1.0  0.63826  0.92353  0.25000  1.0000
  O   O1        1.0  0.20356  0.20352  0.37717  1.0000
  O   O2        1.0  0.79641  0.79650  0.87718  1.0000
  O   O3        1.0  0.20356  0.20353  0.12283  1.0000
  O   O4        1.0  0.79642  0.79650  0.62282  1.0000
  O   O5        1.0  0.94961  0.28965  0.45605  1.0000
  O   O6        1.0  0.05037  0.71037  0.95606  1.0000
  O   O7        1.0  0.28990  0.94975  0.04392  1.0000
  O   O8        1.0  0.71007  0.05028  0.54391  1.0000
  O   O9        1.0  0.05036  0.71036  0.54394  1.0000
  O   O10       1.0  0.94961  0.28965  0.04394  1.0000
  O   O11       1.0  0.71007  0.05028  0.95609  1.0000
  O   O12       1.0  0.28990  0.94975  0.45608  1.0000
  O   O13       1.0  0.39781  0.39834  0.64269  1.0000
  O   O14       1.0  0.60236  0.60147  0.14270  1.0000
  O   O15       1.0  0.39790  0.39831  0.85730  1.0000
  O   O16       1.0  0.60233  0.60151  0.35731  1.0000
