data_image0
_chemical_formula_structural       Cd4H36C44I8N12O4
_chemical_formula_sum              "Cd4 H36 C44 I8 N12 O4"
_cell_length_a       8.04845
_cell_length_b       12.409
_cell_length_c       14.4602
_cell_angle_alpha    90
_cell_angle_beta     90
_cell_angle_gamma    92.4557

_space_group_name_H-M_alt    "P 1"
_space_group_IT_number       1

loop_
  _space_group_symop_operation_xyz
  'x, y, z'

loop_
  _atom_site_type_symbol
  _atom_site_label
  _atom_site_symmetry_multiplicity
  _atom_site_fract_x
  _atom_site_fract_y
  _atom_site_fract_z
  _atom_site_occupancy
  Cd  Cd1       1.0  0.79700  0.20639  0.37081  1.0000
  Cd  Cd2       1.0  0.70300  0.29361  0.87081  1.0000
  Cd  Cd3       1.0  0.20300  0.79361  0.62919  1.0000
  Cd  Cd4       1.0  0.29700  0.70639  0.12919  1.0000
  H   H1        1.0  0.45820  0.23215  0.47996  1.0000
  H   H2        1.0  0.04180  0.26785  0.97995  1.0000
  H   H3        1.0  0.54181  0.76785  0.52004  1.0000
  H   H4        1.0  0.95819  0.73215  0.02004  1.0000
  H   H5        1.0  0.50431  0.49471  0.67579  1.0000
  H   H6        1.0  0.99569  0.00530  0.17580  1.0000
  H   H7        1.0  0.49570  0.50529  0.32421  1.0000
  H   H8        1.0  0.00430  0.99470  0.82420  1.0000
  H   H9        1.0  0.80733  0.51564  0.63165  1.0000
  H   H10       1.0  0.69267  0.98436  0.13165  1.0000
  H   H11       1.0  0.19267  0.48436  0.36835  1.0000
  H   H12       1.0  0.30733  0.01564  0.86835  1.0000
  H   H13       1.0  0.91501  0.39551  0.50781  1.0000
  H   H14       1.0  0.58499  0.10449  0.00781  1.0000
  H   H15       1.0  0.08499  0.60449  0.49219  1.0000
  H   H16       1.0  0.41500  0.89551  0.99219  1.0000
  H   H17       1.0  0.03975  0.08146  0.53845  1.0000
  H   H18       1.0  0.46025  0.41854  0.03845  1.0000
  H   H19       1.0  0.96025  0.91854  0.46155  1.0000
  H   H20       1.0  0.53975  0.58146  0.96155  1.0000
  H   H21       1.0  0.76844  0.00400  0.60263  1.0000
  H   H22       1.0  0.73156  0.49600  0.10263  1.0000
  H   H23       1.0  0.23156  0.99600  0.39737  1.0000
  H   H24       1.0  0.26844  0.50400  0.89737  1.0000
  H   H25       1.0  0.28027  0.18906  0.58132  1.0000
  H   H26       1.0  0.21973  0.31094  0.08132  1.0000
  H   H27       1.0  0.71973  0.81094  0.41868  1.0000
  H   H28       1.0  0.78027  0.68906  0.91868  1.0000
  H   H29       1.0  0.64117  0.09572  0.73733  1.0000
  H   H30       1.0  0.85883  0.40428  0.23733  1.0000
  H   H31       1.0  0.35883  0.90428  0.26267  1.0000
  H   H32       1.0  0.14117  0.59572  0.76267  1.0000
  H   H33       1.0  0.01905  0.33517  0.74163  1.0000
  H   H34       1.0  0.48095  0.16483  0.24163  1.0000
  H   H35       1.0  0.98095  0.66483  0.25837  1.0000
  H   H36       1.0  0.51905  0.83517  0.75837  1.0000
  C   C1        1.0  0.52946  0.29668  0.51554  1.0000
  C   C2        1.0  0.97054  0.20332  0.01554  1.0000
  C   C3        1.0  0.47054  0.70332  0.48446  1.0000
  C   C4        1.0  0.02946  0.79667  0.98446  1.0000
  C   C5        1.0  0.45766  0.36200  0.58212  1.0000
  C   C6        1.0  0.04234  0.13801  0.08212  1.0000
  C   C7        1.0  0.54235  0.63800  0.41788  1.0000
  C   C8        1.0  0.95765  0.86199  0.91788  1.0000
  C   C9        1.0  0.55842  0.44315  0.62375  1.0000
  C   C10       1.0  0.94158  0.05686  0.12376  1.0000
  C   C11       1.0  0.44158  0.55685  0.37625  1.0000
  C   C12       1.0  0.05842  0.94314  0.87624  1.0000
  C   C13       1.0  0.72508  0.45499  0.59892  1.0000
  C   C14       1.0  0.77492  0.04502  0.09892  1.0000
  C   C15       1.0  0.27492  0.54501  0.40108  1.0000
  C   C16       1.0  0.22508  0.95498  0.90107  1.0000
  C   C17       1.0  0.78585  0.38805  0.53062  1.0000
  C   C18       1.0  0.71415  0.11195  0.03062  1.0000
  C   C19       1.0  0.21415  0.61195  0.46938  1.0000
  C   C20       1.0  0.28585  0.88805  0.96938  1.0000
  C   C21       1.0  0.27833  0.35132  0.61085  1.0000
  C   C22       1.0  0.22167  0.14868  0.11085  1.0000
  C   C23       1.0  0.72167  0.64868  0.38915  1.0000
  C   C24       1.0  0.77833  0.85132  0.88915  1.0000
  C   C25       1.0  0.05174  0.21248  0.63640  1.0000
  C   C26       1.0  0.44826  0.28752  0.13640  1.0000
  C   C27       1.0  0.94826  0.78752  0.36360  1.0000
  C   C28       1.0  0.55174  0.71248  0.86360  1.0000
  C   C29       1.0  0.97838  0.11892  0.59656  1.0000
  C   C30       1.0  0.52162  0.38108  0.09656  1.0000
  C   C31       1.0  0.02162  0.88108  0.40344  1.0000
  C   C32       1.0  0.47838  0.61892  0.90344  1.0000
  C   C33       1.0  0.82928  0.07617  0.63196  1.0000
  C   C34       1.0  0.67072  0.42383  0.13196  1.0000
  C   C35       1.0  0.17072  0.92383  0.36803  1.0000
  C   C36       1.0  0.32928  0.57617  0.86804  1.0000
  C   C37       1.0  0.75680  0.12728  0.70648  1.0000
  C   C38       1.0  0.74320  0.37272  0.20648  1.0000
  C   C39       1.0  0.24320  0.87272  0.29352  1.0000
  C   C40       1.0  0.25680  0.62728  0.79352  1.0000
  C   C41       1.0  0.96960  0.26109  0.70975  1.0000
  C   C42       1.0  0.53040  0.23892  0.20975  1.0000
  C   C43       1.0  0.03040  0.73891  0.29025  1.0000
  C   C44       1.0  0.46960  0.76108  0.79025  1.0000
  I   I1        1.0  0.13124  0.24490  0.35422  1.0000
  I   I2        1.0  0.36876  0.25510  0.85422  1.0000
  I   I3        1.0  0.86876  0.75510  0.64578  1.0000
  I   I4        1.0  0.63124  0.74491  0.14578  1.0000
  I   I5        1.0  0.62693  0.01140  0.37829  1.0000
  I   I6        1.0  0.87307  0.48860  0.87829  1.0000
  I   I7        1.0  0.37307  0.98859  0.62171  1.0000
  I   I8        1.0  0.12693  0.51140  0.12171  1.0000
  N   N1        1.0  0.68961  0.31062  0.48955  1.0000
  N   N2        1.0  0.81039  0.18938  0.98955  1.0000
  N   N3        1.0  0.31039  0.68938  0.51045  1.0000
  N   N4        1.0  0.18961  0.81062  0.01045  1.0000
  N   N5        1.0  0.20835  0.24918  0.60492  1.0000
  N   N6        1.0  0.29165  0.25082  0.10492  1.0000
  N   N7        1.0  0.79165  0.75082  0.39508  1.0000
  N   N8        1.0  0.70835  0.74918  0.89508  1.0000
  N   N9        1.0  0.82612  0.21796  0.74359  1.0000
  N   N10       1.0  0.67388  0.28204  0.24359  1.0000
  N   N11       1.0  0.17388  0.78204  0.25641  1.0000
  N   N12       1.0  0.32612  0.71796  0.75641  1.0000
  O   O1        1.0  0.20327  0.43028  0.63819  1.0000
  O   O2        1.0  0.29673  0.06972  0.13819  1.0000
  O   O3        1.0  0.79673  0.56972  0.36181  1.0000
  O   O4        1.0  0.70327  0.93028  0.86181  1.0000
