data_image0
_chemical_formula_structural       Hg4H36C44I8N12O4
_chemical_formula_sum              "Hg4 H36 C44 I8 N12 O4"
_cell_length_a       10.9599
_cell_length_b       11.9913
_cell_length_c       12.5068
_cell_angle_alpha    90
_cell_angle_beta     90
_cell_angle_gamma    90.4802

_space_group_name_H-M_alt    "P 1"
_space_group_IT_number       1

loop_
  _space_group_symop_operation_xyz
  'x, y, z'

loop_
  _atom_site_type_symbol
  _atom_site_label
  _atom_site_symmetry_multiplicity
  _atom_site_fract_x
  _atom_site_fract_y
  _atom_site_fract_z
  _atom_site_occupancy
  Hg  Hg1       1.0  0.43697  0.09610  0.19259  1.0000
  Hg  Hg2       1.0  0.06303  0.40390  0.69259  1.0000
  Hg  Hg3       1.0  0.56303  0.90390  0.80741  1.0000
  Hg  Hg4       1.0  0.93697  0.59610  0.30742  1.0000
  H   H1        1.0  0.50097  0.89394  0.34791  1.0000
  H   H2        1.0  0.99903  0.60606  0.84791  1.0000
  H   H3        1.0  0.49903  0.10606  0.65209  1.0000
  H   H4        1.0  0.00098  0.39393  0.15209  1.0000
  H   H5        1.0  0.79545  0.95566  0.57079  1.0000
  H   H6        1.0  0.70455  0.54434  0.07079  1.0000
  H   H7        1.0  0.20454  0.04434  0.42921  1.0000
  H   H8        1.0  0.29545  0.45566  0.92921  1.0000
  H   H9        1.0  0.79558  0.15358  0.51180  1.0000
  H   H10       1.0  0.70442  0.34642  0.01180  1.0000
  H   H11       1.0  0.20442  0.84642  0.48820  1.0000
  H   H12       1.0  0.29558  0.65358  0.98820  1.0000
  H   H13       1.0  0.64437  0.21397  0.37309  1.0000
  H   H14       1.0  0.85563  0.28603  0.87310  1.0000
  H   H15       1.0  0.35563  0.78603  0.62691  1.0000
  H   H16       1.0  0.14437  0.71397  0.12690  1.0000
  H   H17       1.0  0.54612  0.58781  0.57028  1.0000
  H   H18       1.0  0.95388  0.91219  0.07029  1.0000
  H   H19       1.0  0.45389  0.41219  0.42972  1.0000
  H   H20       1.0  0.04611  0.08781  0.92972  1.0000
  H   H21       1.0  0.57895  0.38732  0.61703  1.0000
  H   H22       1.0  0.92105  0.11268  0.11704  1.0000
  H   H23       1.0  0.42105  0.61268  0.38295  1.0000
  H   H24       1.0  0.07895  0.88732  0.88296  1.0000
  H   H25       1.0  0.79325  0.31959  0.64340  1.0000
  H   H26       1.0  0.70676  0.18041  0.14340  1.0000
  H   H27       1.0  0.20676  0.68041  0.35660  1.0000
  H   H28       1.0  0.29324  0.81959  0.85660  1.0000
  H   H29       1.0  0.93802  0.63296  0.58034  1.0000
  H   H30       1.0  0.56198  0.86705  0.08034  1.0000
  H   H31       1.0  0.06199  0.36704  0.41966  1.0000
  H   H32       1.0  0.43802  0.13295  0.91967  1.0000
  H   H33       1.0  0.81354  0.77780  0.52638  1.0000
  H   H34       1.0  0.68646  0.72220  0.02638  1.0000
  H   H35       1.0  0.18646  0.22220  0.47362  1.0000
  H   H36       1.0  0.31354  0.27780  0.97362  1.0000
  C   C1        1.0  0.56843  0.94931  0.38483  1.0000
  C   C2        1.0  0.93157  0.55069  0.88483  1.0000
  C   C3        1.0  0.43157  0.05069  0.61517  1.0000
  C   C4        1.0  0.06843  0.44931  0.11517  1.0000
  C   C5        1.0  0.64893  0.90790  0.46165  1.0000
  C   C6        1.0  0.85107  0.59210  0.96165  1.0000
  C   C7        1.0  0.35107  0.09210  0.53835  1.0000
  C   C8        1.0  0.14893  0.40790  0.03835  1.0000
  C   C9        1.0  0.73297  0.98211  0.50795  1.0000
  C   C10       1.0  0.76703  0.51789  0.00796  1.0000
  C   C11       1.0  0.26703  0.01789  0.49204  1.0000
  C   C12       1.0  0.23297  0.48211  0.99204  1.0000
  C   C13       1.0  0.73261  0.09345  0.47606  1.0000
  C   C14       1.0  0.76739  0.40655  0.97607  1.0000
  C   C15       1.0  0.26739  0.90654  0.52393  1.0000
  C   C16       1.0  0.23260  0.59346  0.02393  1.0000
  C   C17       1.0  0.64879  0.12729  0.39912  1.0000
  C   C18       1.0  0.85121  0.37271  0.89913  1.0000
  C   C19       1.0  0.35120  0.87271  0.60088  1.0000
  C   C20       1.0  0.14879  0.62729  0.10088  1.0000
  C   C21       1.0  0.63264  0.78809  0.49092  1.0000
  C   C22       1.0  0.86735  0.71191  0.99093  1.0000
  C   C23       1.0  0.36735  0.21191  0.50907  1.0000
  C   C24       1.0  0.13265  0.28809  0.00907  1.0000
  C   C25       1.0  0.73943  0.62552  0.56727  1.0000
  C   C26       1.0  0.76057  0.87448  0.06727  1.0000
  C   C27       1.0  0.26057  0.37448  0.43273  1.0000
  C   C28       1.0  0.23943  0.12552  0.93273  1.0000
  C   C29       1.0  0.63733  0.55543  0.58133  1.0000
  C   C30       1.0  0.86267  0.94457  0.08134  1.0000
  C   C31       1.0  0.36267  0.44457  0.41866  1.0000
  C   C32       1.0  0.13733  0.05543  0.91867  1.0000
  C   C33       1.0  0.65610  0.44441  0.60845  1.0000
  C   C34       1.0  0.84390  0.05559  0.10846  1.0000
  C   C35       1.0  0.34391  0.55559  0.39154  1.0000
  C   C36       1.0  0.15610  0.94441  0.89155  1.0000
  C   C37       1.0  0.77447  0.40617  0.62255  1.0000
  C   C38       1.0  0.72553  0.09383  0.12255  1.0000
  C   C39       1.0  0.22553  0.59383  0.37745  1.0000
  C   C40       1.0  0.27447  0.90617  0.87745  1.0000
  C   C41       1.0  0.85571  0.58097  0.58615  1.0000
  C   C42       1.0  0.64429  0.91903  0.08615  1.0000
  C   C43       1.0  0.14430  0.41903  0.41385  1.0000
  C   C44       1.0  0.35571  0.08097  0.91386  1.0000
  I   I1        1.0  0.46501  0.31719  0.15779  1.0000
  I   I2        1.0  0.03499  0.18281  0.65779  1.0000
  I   I3        1.0  0.53500  0.68281  0.84221  1.0000
  I   I4        1.0  0.96502  0.81719  0.34221  1.0000
  I   I5        1.0  0.28408  0.92012  0.19784  1.0000
  I   I6        1.0  0.21591  0.57989  0.69785  1.0000
  I   I7        1.0  0.71592  0.07988  0.80215  1.0000
  I   I8        1.0  0.78408  0.42013  0.30216  1.0000
  N   N1        1.0  0.56856  0.05604  0.35413  1.0000
  N   N2        1.0  0.93144  0.44396  0.85413  1.0000
  N   N3        1.0  0.43144  0.94396  0.64587  1.0000
  N   N4        1.0  0.06856  0.55604  0.14587  1.0000
  N   N5        1.0  0.87173  0.47428  0.61306  1.0000
  N   N6        1.0  0.62827  0.02573  0.11306  1.0000
  N   N7        1.0  0.12827  0.52572  0.38694  1.0000
  N   N8        1.0  0.37173  0.97427  0.88695  1.0000
  N   N9        1.0  0.73187  0.73761  0.53707  1.0000
  N   N10       1.0  0.76813  0.76239  0.03708  1.0000
  N   N11       1.0  0.26814  0.26239  0.46292  1.0000
  N   N12       1.0  0.23186  0.23761  0.96292  1.0000
  O   O1        1.0  0.53436  0.73966  0.47399  1.0000
  O   O2        1.0  0.96564  0.76034  0.97399  1.0000
  O   O3        1.0  0.46564  0.26033  0.52601  1.0000
  O   O4        1.0  0.03436  0.23967  0.02601  1.0000
