data_image0
_chemical_formula_structural       Hg4H36C44Br8N12O4
_chemical_formula_sum              "Hg4 H36 C44 Br8 N12 O4"
_cell_length_a       8.00268
_cell_length_b       12.2492
_cell_length_c       13.791
_cell_angle_alpha    90
_cell_angle_beta     90
_cell_angle_gamma    93.9737

_space_group_name_H-M_alt    "P 1"
_space_group_IT_number       1

loop_
  _space_group_symop_operation_xyz
  'x, y, z'

loop_
  _atom_site_type_symbol
  _atom_site_label
  _atom_site_symmetry_multiplicity
  _atom_site_fract_x
  _atom_site_fract_y
  _atom_site_fract_z
  _atom_site_occupancy
  Hg  Hg1       1.0  0.82532  0.68266  0.37578  1.0000
  Hg  Hg2       1.0  0.67468  0.81735  0.87579  1.0000
  Hg  Hg3       1.0  0.17468  0.31735  0.62421  1.0000
  Hg  Hg4       1.0  0.32532  0.18265  0.12421  1.0000
  H   H1        1.0  0.47344  0.70968  0.49556  1.0000
  H   H2        1.0  0.02656  0.79032  0.99556  1.0000
  H   H3        1.0  0.52656  0.29032  0.50444  1.0000
  H   H4        1.0  0.97344  0.20968  0.00444  1.0000
  H   H5        1.0  0.50091  0.00306  0.67053  1.0000
  H   H6        1.0  0.99909  0.49694  0.17054  1.0000
  H   H7        1.0  0.49909  0.99694  0.32946  1.0000
  H   H8        1.0  0.00091  0.50306  0.82947  1.0000
  H   H9        1.0  0.80665  0.03018  0.62474  1.0000
  H   H10       1.0  0.69335  0.46982  0.12474  1.0000
  H   H11       1.0  0.19335  0.96982  0.37526  1.0000
  H   H12       1.0  0.30665  0.53018  0.87526  1.0000
  H   H13       1.0  0.92504  0.89459  0.51188  1.0000
  H   H14       1.0  0.57496  0.60541  0.01188  1.0000
  H   H15       1.0  0.07497  0.10541  0.48812  1.0000
  H   H16       1.0  0.42503  0.39459  0.98812  1.0000
  H   H17       1.0  0.04732  0.55509  0.56346  1.0000
  H   H18       1.0  0.45268  0.94491  0.06346  1.0000
  H   H19       1.0  0.95268  0.44491  0.43654  1.0000
  H   H20       1.0  0.54732  0.05509  0.93654  1.0000
  H   H21       1.0  0.76169  0.48653  0.62280  1.0000
  H   H22       1.0  0.73831  0.01347  0.12279  1.0000
  H   H23       1.0  0.23831  0.51347  0.37721  1.0000
  H   H24       1.0  0.26169  0.98653  0.87720  1.0000
  H   H25       1.0  0.61628  0.59991  0.74385  1.0000
  H   H26       1.0  0.88372  0.90010  0.24385  1.0000
  H   H27       1.0  0.38372  0.40010  0.25615  1.0000
  H   H28       1.0  0.11628  0.09991  0.75615  1.0000
  H   H29       1.0  0.01060  0.83903  0.74535  1.0000
  H   H30       1.0  0.48940  0.66098  0.24535  1.0000
  H   H31       1.0  0.98941  0.16098  0.25465  1.0000
  H   H32       1.0  0.51060  0.33902  0.75465  1.0000
  H   H33       1.0  0.28536  0.67344  0.60058  1.0000
  H   H34       1.0  0.21464  0.82656  0.10058  1.0000
  H   H35       1.0  0.71464  0.32656  0.39942  1.0000
  H   H36       1.0  0.78536  0.17344  0.89943  1.0000
  C   C1        1.0  0.54092  0.78208  0.52667  1.0000
  C   C2        1.0  0.95908  0.71792  0.02667  1.0000
  C   C3        1.0  0.45908  0.21792  0.47333  1.0000
  C   C4        1.0  0.04091  0.28208  0.97334  1.0000
  C   C5        1.0  0.46382  0.85390  0.58855  1.0000
  C   C6        1.0  0.03618  0.64610  0.08855  1.0000
  C   C7        1.0  0.53618  0.14610  0.41145  1.0000
  C   C8        1.0  0.96382  0.35390  0.91145  1.0000
  C   C9        1.0  0.56007  0.94569  0.62327  1.0000
  C   C10       1.0  0.93993  0.55431  0.12327  1.0000
  C   C11       1.0  0.43994  0.05431  0.37673  1.0000
  C   C12       1.0  0.06006  0.44569  0.87673  1.0000
  C   C13       1.0  0.72788  0.96077  0.59752  1.0000
  C   C14       1.0  0.77211  0.53923  0.09752  1.0000
  C   C15       1.0  0.27212  0.03923  0.40248  1.0000
  C   C16       1.0  0.22788  0.46077  0.90248  1.0000
  C   C17       1.0  0.79432  0.88570  0.53482  1.0000
  C   C18       1.0  0.70568  0.61430  0.03482  1.0000
  C   C19       1.0  0.20568  0.11430  0.46518  1.0000
  C   C20       1.0  0.29432  0.38570  0.96518  1.0000
  C   C21       1.0  0.28319  0.84102  0.61802  1.0000
  C   C22       1.0  0.21680  0.65898  0.11801  1.0000
  C   C23       1.0  0.71681  0.15898  0.38198  1.0000
  C   C24       1.0  0.78319  0.34102  0.88199  1.0000
  C   C25       1.0  0.05161  0.70170  0.64998  1.0000
  C   C26       1.0  0.44839  0.79830  0.14998  1.0000
  C   C27       1.0  0.94839  0.29830  0.35002  1.0000
  C   C28       1.0  0.55161  0.20170  0.85002  1.0000
  C   C29       1.0  0.97845  0.60182  0.61529  1.0000
  C   C30       1.0  0.52155  0.89818  0.11528  1.0000
  C   C31       1.0  0.02155  0.39818  0.38472  1.0000
  C   C32       1.0  0.47845  0.10181  0.88471  1.0000
  C   C33       1.0  0.82089  0.56397  0.64814  1.0000
  C   C34       1.0  0.67911  0.93603  0.14813  1.0000
  C   C35       1.0  0.17911  0.43603  0.35187  1.0000
  C   C36       1.0  0.32090  0.06396  0.85186  1.0000
  C   C37       1.0  0.73919  0.62661  0.71515  1.0000
  C   C38       1.0  0.76081  0.87339  0.21514  1.0000
  C   C39       1.0  0.26081  0.37339  0.28485  1.0000
  C   C40       1.0  0.23919  0.12661  0.78485  1.0000
  C   C41       1.0  0.96098  0.76065  0.71667  1.0000
  C   C42       1.0  0.53902  0.73936  0.21667  1.0000
  C   C43       1.0  0.03902  0.23935  0.28333  1.0000
  C   C44       1.0  0.46098  0.26065  0.78333  1.0000
  Br  Br1       1.0  0.61902  0.51416  0.38515  1.0000
  Br  Br2       1.0  0.88099  0.98584  0.88515  1.0000
  Br  Br3       1.0  0.38099  0.48584  0.61485  1.0000
  Br  Br4       1.0  0.11901  0.01416  0.11485  1.0000
  Br  Br5       1.0  0.13350  0.74427  0.36770  1.0000
  Br  Br6       1.0  0.36651  0.75573  0.86771  1.0000
  Br  Br7       1.0  0.86651  0.25572  0.63230  1.0000
  Br  Br8       1.0  0.63349  0.24427  0.13229  1.0000
  N   N1        1.0  0.70211  0.79877  0.49977  1.0000
  N   N2        1.0  0.79789  0.70123  0.99976  1.0000
  N   N3        1.0  0.29789  0.20123  0.50024  1.0000
  N   N4        1.0  0.20210  0.29877  0.00024  1.0000
  N   N5        1.0  0.80915  0.72240  0.74771  1.0000
  N   N6        1.0  0.69085  0.77760  0.24771  1.0000
  N   N7        1.0  0.19086  0.27760  0.25229  1.0000
  N   N8        1.0  0.30915  0.22240  0.75229  1.0000
  N   N9        1.0  0.21350  0.73588  0.61990  1.0000
  N   N10       1.0  0.28650  0.76411  0.11990  1.0000
  N   N11       1.0  0.78650  0.26411  0.38010  1.0000
  N   N12       1.0  0.71350  0.23588  0.88010  1.0000
  O   O1        1.0  0.20590  0.92185  0.63934  1.0000
  O   O2        1.0  0.29411  0.57814  0.13934  1.0000
  O   O3        1.0  0.79411  0.07814  0.36066  1.0000
  O   O4        1.0  0.70589  0.42185  0.86066  1.0000
