data_image0
_chemical_formula_structural       Co2H56C40N8O12
_chemical_formula_sum              "Co2 H56 C40 N8 O12"
_cell_length_a       8.73641
_cell_length_b       9.66475
_cell_length_c       12.351
_cell_angle_alpha    90
_cell_angle_beta     90
_cell_angle_gamma    96.1816

_space_group_name_H-M_alt    "P 1"
_space_group_IT_number       1

loop_
  _space_group_symop_operation_xyz
  'x, y, z'

loop_
  _atom_site_type_symbol
  _atom_site_label
  _atom_site_symmetry_multiplicity
  _atom_site_fract_x
  _atom_site_fract_y
  _atom_site_fract_z
  _atom_site_occupancy
  Co  Co1       1.0  0.00000  1.00000  0.00000  1.0000
  Co  Co2       1.0  0.50000  1.00000  0.50000  1.0000
  H   H1        1.0  0.10070  0.11346  0.22093  1.0000
  H   H2        1.0  0.39930  0.88653  0.72093  1.0000
  H   H3        1.0  0.89930  0.88654  0.77907  1.0000
  H   H4        1.0  0.60070  0.11347  0.27906  1.0000
  H   H5        1.0  0.92756  0.11971  0.17748  1.0000
  H   H6        1.0  0.57244  0.88030  0.67749  1.0000
  H   H7        1.0  0.07244  0.88029  0.82252  1.0000
  H   H8        1.0  0.42756  0.11970  0.32251  1.0000
  H   H9        1.0  0.84750  0.72232  0.98245  1.0000
  H   H10       1.0  0.65251  0.27768  0.48245  1.0000
  H   H11       1.0  0.15251  0.27768  0.01755  1.0000
  H   H12       1.0  0.34749  0.72231  0.51755  1.0000
  H   H13       1.0  0.84211  0.50302  0.09029  1.0000
  H   H14       1.0  0.65789  0.49698  0.59029  1.0000
  H   H15       1.0  0.15789  0.49698  0.90971  1.0000
  H   H16       1.0  0.34211  0.50302  0.40971  1.0000
  H   H17       1.0  0.19515  0.71164  0.29378  1.0000
  H   H18       1.0  0.30486  0.28837  0.79378  1.0000
  H   H19       1.0  0.80484  0.28836  0.70623  1.0000
  H   H20       1.0  0.69514  0.71163  0.20622  1.0000
  H   H21       1.0  0.19058  0.92071  0.17562  1.0000
  H   H22       1.0  0.30943  0.07930  0.67562  1.0000
  H   H23       1.0  0.80942  0.07929  0.82438  1.0000
  H   H24       1.0  0.69057  0.92070  0.32438  1.0000
  H   H25       1.0  0.90059  0.39671  0.25976  1.0000
  H   H26       1.0  0.59942  0.60329  0.75976  1.0000
  H   H27       1.0  0.09942  0.60329  0.74023  1.0000
  H   H28       1.0  0.40058  0.39670  0.24024  1.0000
  H   H29       1.0  0.10155  0.39666  0.24931  1.0000
  H   H30       1.0  0.39845  0.60334  0.74931  1.0000
  H   H31       1.0  0.89845  0.60334  0.75069  1.0000
  H   H32       1.0  0.60155  0.39666  0.25069  1.0000
  H   H33       1.0  0.79874  0.50773  0.42630  1.0000
  H   H34       1.0  0.70126  0.49228  0.92631  1.0000
  H   H35       1.0  0.20125  0.49227  0.57370  1.0000
  H   H36       1.0  0.29874  0.50772  0.07369  1.0000
  H   H37       1.0  0.89904  0.66557  0.37871  1.0000
  H   H38       1.0  0.60097  0.33444  0.87870  1.0000
  H   H39       1.0  0.10096  0.33443  0.62129  1.0000
  H   H40       1.0  0.39903  0.66556  0.12130  1.0000
  H   H41       1.0  0.15033  0.32645  0.42209  1.0000
  H   H42       1.0  0.34966  0.67355  0.92209  1.0000
  H   H43       1.0  0.84966  0.67355  0.57791  1.0000
  H   H44       1.0  0.65034  0.32645  0.07790  1.0000
  H   H45       1.0  0.95029  0.30295  0.45365  1.0000
  H   H46       1.0  0.54970  0.69705  0.95366  1.0000
  H   H47       1.0  0.04970  0.69705  0.54635  1.0000
  H   H48       1.0  0.45030  0.30295  0.04634  1.0000
  H   H49       1.0  0.52058  0.11093  0.91020  1.0000
  H   H50       1.0  0.97941  0.88908  0.41020  1.0000
  H   H51       1.0  0.47942  0.88907  0.08979  1.0000
  H   H52       1.0  0.02059  0.11092  0.58981  1.0000
  H   H53       1.0  0.54242  0.93369  0.89191  1.0000
  H   H54       1.0  0.95759  0.06633  0.39192  1.0000
  H   H55       1.0  0.45758  0.06631  0.10808  1.0000
  H   H56       1.0  0.04241  0.93367  0.60808  1.0000
  C   C1        1.0  0.92305  0.71393  0.05153  1.0000
  C   C2        1.0  0.57696  0.28606  0.55153  1.0000
  C   C3        1.0  0.07695  0.28606  0.94847  1.0000
  C   C4        1.0  0.42304  0.71394  0.44847  1.0000
  C   C5        1.0  0.92257  0.59263  0.11177  1.0000
  C   C6        1.0  0.57744  0.40737  0.61176  1.0000
  C   C7        1.0  0.07743  0.40737  0.88823  1.0000
  C   C8        1.0  0.42256  0.59263  0.38824  1.0000
  C   C9        1.0  0.01832  0.58882  0.20197  1.0000
  C   C10       1.0  0.48169  0.41118  0.70197  1.0000
  C   C11       1.0  0.98168  0.41117  0.79803  1.0000
  C   C12       1.0  0.51831  0.58883  0.29802  1.0000
  C   C13       1.0  0.11796  0.70890  0.22440  1.0000
  C   C14       1.0  0.38204  0.29110  0.72441  1.0000
  C   C15       1.0  0.88204  0.29110  0.77560  1.0000
  C   C16       1.0  0.61795  0.70889  0.27559  1.0000
  C   C17       1.0  0.11517  0.82593  0.15989  1.0000
  C   C18       1.0  0.38483  0.17407  0.65989  1.0000
  C   C19       1.0  0.88483  0.17407  0.84012  1.0000
  C   C20       1.0  0.61517  0.82594  0.34011  1.0000
  C   C21       1.0  0.01153  0.46227  0.27357  1.0000
  C   C22       1.0  0.48848  0.53773  0.77357  1.0000
  C   C23       1.0  0.98847  0.53773  0.72643  1.0000
  C   C24       1.0  0.51153  0.46227  0.22643  1.0000
  C   C25       1.0  0.91086  0.57419  0.42959  1.0000
  C   C26       1.0  0.58914  0.42581  0.92959  1.0000
  C   C27       1.0  0.08913  0.42581  0.57041  1.0000
  C   C28       1.0  0.41086  0.57419  0.07041  1.0000
  C   C29       1.0  0.05489  0.37956  0.45454  1.0000
  C   C30       1.0  0.44511  0.62043  0.95454  1.0000
  C   C31       1.0  0.94511  0.62043  0.54546  1.0000
  C   C32       1.0  0.55489  0.37957  0.04546  1.0000
  C   C33       1.0  0.30963  0.97951  0.91549  1.0000
  C   C34       1.0  0.19036  0.02049  0.41549  1.0000
  C   C35       1.0  0.69037  0.02049  0.08451  1.0000
  C   C36       1.0  0.80964  0.97952  0.58452  1.0000
  C   C37       1.0  0.48103  0.00555  0.93985  1.0000
  C   C38       1.0  0.01897  0.99446  0.43986  1.0000
  C   C39       1.0  0.51898  0.99445  0.06014  1.0000
  C   C40       1.0  0.98102  0.00555  0.56015  1.0000
  N   N1        1.0  0.01616  0.83049  0.07599  1.0000
  N   N2        1.0  0.48385  0.16951  0.57599  1.0000
  N   N3        1.0  0.98384  0.16951  0.92401  1.0000
  N   N4        1.0  0.51614  0.83049  0.42401  1.0000
  N   N5        1.0  0.03490  0.49996  0.38692  1.0000
  N   N6        1.0  0.46510  0.50004  0.88692  1.0000
  N   N7        1.0  0.96510  0.50003  0.61308  1.0000
  N   N8        1.0  0.53490  0.49996  0.11308  1.0000
  O   O1        1.0  0.22155  0.02493  0.98735  1.0000
  O   O2        1.0  0.27845  0.97507  0.48736  1.0000
  O   O3        1.0  0.77845  0.97507  0.01265  1.0000
  O   O4        1.0  0.72155  0.02493  0.51264  1.0000
  O   O5        1.0  0.26593  0.91771  0.82830  1.0000
  O   O6        1.0  0.23407  0.08228  0.32831  1.0000
  O   O7        1.0  0.73407  0.08229  0.17170  1.0000
  O   O8        1.0  0.76593  0.91773  0.67170  1.0000
  O   O9        1.0  0.03875  0.13732  0.15775  1.0000
  O   O10       1.0  0.46125  0.86268  0.65776  1.0000
  O   O11       1.0  0.96125  0.86268  0.84225  1.0000
  O   O12       1.0  0.53875  0.13732  0.34224  1.0000
