data_image0
_chemical_formula_structural       Cu2H56C40N8O12
_chemical_formula_sum              "Cu2 H56 C40 N8 O12"
_cell_length_a       8.79104
_cell_length_b       9.77169
_cell_length_c       12.6846
_cell_angle_alpha    90
_cell_angle_beta     90
_cell_angle_gamma    95.1791

_space_group_name_H-M_alt    "P 1"
_space_group_IT_number       1

loop_
  _space_group_symop_operation_xyz
  'x, y, z'

loop_
  _atom_site_type_symbol
  _atom_site_label
  _atom_site_symmetry_multiplicity
  _atom_site_fract_x
  _atom_site_fract_y
  _atom_site_fract_z
  _atom_site_occupancy
  Cu  Cu1       1.0  0.50000  0.00000  0.00000  1.0000
  Cu  Cu2       1.0  0.00000  1.00000  0.50000  1.0000
  H   H1        1.0  0.34234  0.90011  0.19080  1.0000
  H   H2        1.0  0.15766  0.09989  0.69080  1.0000
  H   H3        1.0  0.65766  0.09989  0.80920  1.0000
  H   H4        1.0  0.84234  0.90012  0.30920  1.0000
  H   H5        1.0  0.34786  0.69638  0.31047  1.0000
  H   H6        1.0  0.15214  0.30362  0.81047  1.0000
  H   H7        1.0  0.65214  0.30362  0.68954  1.0000
  H   H8        1.0  0.84786  0.69638  0.18954  1.0000
  H   H9        1.0  0.64510  0.52350  0.08620  1.0000
  H   H10       1.0  0.85490  0.47650  0.58620  1.0000
  H   H11       1.0  0.35490  0.47650  0.91380  1.0000
  H   H12       1.0  0.14510  0.52350  0.41380  1.0000
  H   H13       1.0  0.62623  0.73421  0.97457  1.0000
  H   H14       1.0  0.87377  0.26579  0.47457  1.0000
  H   H15       1.0  0.37377  0.26579  0.02543  1.0000
  H   H16       1.0  0.12623  0.73421  0.52543  1.0000
  H   H17       1.0  0.42405  0.38673  0.25145  1.0000
  H   H18       1.0  0.07595  0.61327  0.75145  1.0000
  H   H19       1.0  0.57595  0.61327  0.74855  1.0000
  H   H20       1.0  0.92405  0.38673  0.24855  1.0000
  H   H21       1.0  0.62016  0.43012  0.26851  1.0000
  H   H22       1.0  0.87984  0.56988  0.76851  1.0000
  H   H23       1.0  0.37984  0.56988  0.73149  1.0000
  H   H24       1.0  0.12016  0.43012  0.23149  1.0000
  H   H25       1.0  0.61918  0.68354  0.39085  1.0000
  H   H26       1.0  0.88082  0.31645  0.89085  1.0000
  H   H27       1.0  0.38082  0.31645  0.60915  1.0000
  H   H28       1.0  0.11918  0.68355  0.10915  1.0000
  H   H29       1.0  0.70659  0.53743  0.43633  1.0000
  H   H30       1.0  0.79341  0.46257  0.93633  1.0000
  H   H31       1.0  0.29342  0.46257  0.56367  1.0000
  H   H32       1.0  0.20659  0.53743  0.06367  1.0000
  H   H33       1.0  0.54073  0.31244  0.45149  1.0000
  H   H34       1.0  0.95927  0.68756  0.95149  1.0000
  H   H35       1.0  0.45927  0.68756  0.54851  1.0000
  H   H36       1.0  0.04073  0.31244  0.04851  1.0000
  H   H37       1.0  0.34514  0.31332  0.41407  1.0000
  H   H38       1.0  0.15486  0.68668  0.91407  1.0000
  H   H39       1.0  0.65486  0.68668  0.58592  1.0000
  H   H40       1.0  0.84514  0.31332  0.08593  1.0000
  H   H41       1.0  0.05538  0.07844  0.10102  1.0000
  H   H42       1.0  0.44462  0.92156  0.60102  1.0000
  H   H43       1.0  0.94462  0.92156  0.89898  1.0000
  H   H44       1.0  0.55538  0.07844  0.39898  1.0000
  H   H45       1.0  0.00065  0.90265  0.09571  1.0000
  H   H46       1.0  0.49935  0.09735  0.59571  1.0000
  H   H47       1.0  0.99935  0.09735  0.90429  1.0000
  H   H48       1.0  0.50065  0.90265  0.40429  1.0000
  H   H49       1.0  0.42112  0.11495  0.22965  1.0000
  H   H50       1.0  0.07888  0.88505  0.72965  1.0000
  H   H51       1.0  0.57888  0.88505  0.77035  1.0000
  H   H52       1.0  0.92112  0.11495  0.27035  1.0000
  H   H53       1.0  0.59103  0.11769  0.18453  1.0000
  H   H54       1.0  0.90896  0.88231  0.68453  1.0000
  H   H55       1.0  0.40896  0.88231  0.81547  1.0000
  H   H56       1.0  0.09104  0.11769  0.31547  1.0000
  C   C1        1.0  0.40765  0.81414  0.17067  1.0000
  C   C2        1.0  0.09235  0.18586  0.67067  1.0000
  C   C3        1.0  0.59235  0.18586  0.82933  1.0000
  C   C4        1.0  0.90765  0.81414  0.32933  1.0000
  C   C5        1.0  0.41115  0.70109  0.23661  1.0000
  C   C6        1.0  0.08885  0.29891  0.73661  1.0000
  C   C7        1.0  0.58885  0.29891  0.76339  1.0000
  C   C8        1.0  0.91115  0.70109  0.26339  1.0000
  C   C9        1.0  0.49762  0.59352  0.20838  1.0000
  C   C10       1.0  0.00238  0.40647  0.70838  1.0000
  C   C11       1.0  0.50238  0.40648  0.79162  1.0000
  C   C12       1.0  0.99762  0.59352  0.29163  1.0000
  C   C13       1.0  0.57515  0.60386  0.11190  1.0000
  C   C14       1.0  0.92485  0.39614  0.61190  1.0000
  C   C15       1.0  0.42485  0.39614  0.88810  1.0000
  C   C16       1.0  0.07515  0.60386  0.38811  1.0000
  C   C17       1.0  0.56738  0.72026  0.04993  1.0000
  C   C18       1.0  0.93262  0.27974  0.54993  1.0000
  C   C19       1.0  0.43262  0.27974  0.95007  1.0000
  C   C20       1.0  0.06738  0.72026  0.45007  1.0000
  C   C21       1.0  0.50687  0.47069  0.27887  1.0000
  C   C22       1.0  0.99313  0.52931  0.77887  1.0000
  C   C23       1.0  0.49313  0.52931  0.72113  1.0000
  C   C24       1.0  0.00687  0.47069  0.22113  1.0000
  C   C25       1.0  0.59844  0.58860  0.43702  1.0000
  C   C26       1.0  0.90156  0.41140  0.93702  1.0000
  C   C27       1.0  0.40156  0.41140  0.56298  1.0000
  C   C28       1.0  0.09844  0.58860  0.06298  1.0000
  C   C29       1.0  0.44152  0.37558  0.45048  1.0000
  C   C30       1.0  0.05848  0.62443  0.95048  1.0000
  C   C31       1.0  0.55848  0.62442  0.54952  1.0000
  C   C32       1.0  0.94152  0.37558  0.04952  1.0000
  C   C33       1.0  0.81477  0.02503  0.08030  1.0000
  C   C34       1.0  0.68523  0.97497  0.58030  1.0000
  C   C35       1.0  0.18523  0.97497  0.91970  1.0000
  C   C36       1.0  0.31477  0.02503  0.41970  1.0000
  C   C37       1.0  0.98024  0.00131  0.05846  1.0000
  C   C38       1.0  0.51975  0.99869  0.55846  1.0000
  C   C39       1.0  0.01976  0.99869  0.94154  1.0000
  C   C40       1.0  0.48025  0.00131  0.44154  1.0000
  N   N1        1.0  0.48658  0.82437  0.07975  1.0000
  N   N2        1.0  0.01342  0.17563  0.57976  1.0000
  N   N3        1.0  0.51342  0.17563  0.92025  1.0000
  N   N4        1.0  0.98658  0.82437  0.42025  1.0000
  N   N5        1.0  0.47461  0.50045  0.38848  1.0000
  N   N6        1.0  0.02539  0.49955  0.88848  1.0000
  N   N7        1.0  0.52539  0.49955  0.61152  1.0000
  N   N8        1.0  0.97461  0.50045  0.11152  1.0000
  O   O1        1.0  0.72512  0.00731  0.00077  1.0000
  O   O2        1.0  0.77488  0.99269  0.50077  1.0000
  O   O3        1.0  0.27488  0.99269  0.99923  1.0000
  O   O4        1.0  0.22512  0.00731  0.49923  1.0000
  O   O5        1.0  0.77606  0.05781  0.17249  1.0000
  O   O6        1.0  0.72394  0.94219  0.67249  1.0000
  O   O7        1.0  0.22394  0.94219  0.82751  1.0000
  O   O8        1.0  0.27606  0.05781  0.32751  1.0000
  O   O9        1.0  0.48974  0.15233  0.17271  1.0000
  O   O10       1.0  0.01026  0.84767  0.67271  1.0000
  O   O11       1.0  0.51026  0.84767  0.82729  1.0000
  O   O12       1.0  0.98974  0.15233  0.32729  1.0000
