data_image0
_chemical_formula_structural       CdCo2H54C66N12Cl2O4
_chemical_formula_sum              "Cd1 Co2 H54 C66 N12 Cl2 O4"
_cell_length_a       9.28429
_cell_length_b       13.4775
_cell_length_c       13.9409
_cell_angle_alpha    106.542
_cell_angle_beta     106.98
_cell_angle_gamma    97.9835

_space_group_name_H-M_alt    "P 1"
_space_group_IT_number       1

loop_
  _space_group_symop_operation_xyz
  'x, y, z'

loop_
  _atom_site_type_symbol
  _atom_site_label
  _atom_site_symmetry_multiplicity
  _atom_site_fract_x
  _atom_site_fract_y
  _atom_site_fract_z
  _atom_site_occupancy
  Cd  Cd1       1.0  1.00000  1.00000  1.00000  1.0000
  Co  Co1       1.0  0.54549  0.30843  0.68378  1.0000
  Co  Co2       1.0  0.45450  0.69157  0.31622  1.0000
  H   H1        1.0  0.71454  0.13341  0.71953  1.0000
  H   H2        1.0  0.28545  0.86659  0.28047  1.0000
  H   H3        1.0  0.76611  0.98657  0.56038  1.0000
  H   H4        1.0  0.23391  0.01344  0.43962  1.0000
  H   H5        1.0  0.62753  0.02555  0.37895  1.0000
  H   H6        1.0  0.37250  0.97446  0.62106  1.0000
  H   H7        1.0  0.29996  0.31963  0.30467  1.0000
  H   H8        1.0  0.70005  0.68037  0.69533  1.0000
  H   H9        1.0  0.25098  0.48944  0.43897  1.0000
  H   H10       1.0  0.74905  0.51057  0.56103  1.0000
  H   H11       1.0  0.38933  0.48795  0.63868  1.0000
  H   H12       1.0  0.61068  0.51205  0.36132  1.0000
  H   H13       1.0  0.69273  0.19908  0.31769  1.0000
  H   H14       1.0  0.30727  0.80091  0.68230  1.0000
  H   H15       1.0  0.63328  0.12043  0.12229  1.0000
  H   H16       1.0  0.36672  0.87957  0.87771  1.0000
  H   H17       1.0  0.35095  0.03587  0.00143  1.0000
  H   H18       1.0  0.64905  0.96413  0.99857  1.0000
  H   H19       1.0  0.20172  0.10135  0.25903  1.0000
  H   H20       1.0  0.79828  0.89865  0.74097  1.0000
  H   H21       1.0  0.80108  0.30538  0.57775  1.0000
  H   H22       1.0  0.19890  0.69462  0.42224  1.0000
  H   H23       1.0  0.06816  0.46103  0.66026  1.0000
  H   H24       1.0  0.93182  0.53897  0.33972  1.0000
  H   H25       1.0  0.04908  0.60575  0.83446  1.0000
  H   H26       1.0  0.95092  0.39424  0.16553  1.0000
  H   H27       1.0  0.57318  0.65089  0.97987  1.0000
  H   H28       1.0  0.42683  0.34910  0.02015  1.0000
  H   H29       1.0  0.27238  0.54069  0.89739  1.0000
  H   H30       1.0  0.72763  0.45930  0.10261  1.0000
  H   H31       1.0  0.25477  0.35979  0.73924  1.0000
  H   H32       1.0  0.74522  0.64021  0.26076  1.0000
  H   H33       1.0  0.88900  0.56074  0.06825  1.0000
  H   H34       1.0  0.11098  0.43927  0.93176  1.0000
  H   H35       1.0  0.03074  0.72789  0.22378  1.0000
  H   H36       1.0  0.96924  0.27212  0.77622  1.0000
  H   H37       1.0  0.05795  0.90308  0.19036  1.0000
  H   H38       1.0  0.94204  0.09692  0.80963  1.0000
  H   H39       1.0  0.85049  0.75125  0.86431  1.0000
  H   H40       1.0  0.14952  0.24874  0.13568  1.0000
  H   H41       1.0  0.38205  0.12246  0.85234  1.0000
  H   H42       1.0  0.61796  0.87755  0.14768  1.0000
  H   H43       1.0  0.07267  0.14448  0.66126  1.0000
  H   H44       1.0  0.92733  0.85550  0.33874  1.0000
  H   H45       1.0  0.13909  0.04890  0.71955  1.0000
  H   H46       1.0  0.86092  0.95110  0.28046  1.0000
  H   H47       1.0  0.13329  0.03949  0.58778  1.0000
  H   H48       1.0  0.86673  0.96050  0.41223  1.0000
  H   H49       1.0  0.71354  0.14863  0.95027  1.0000
  H   H50       1.0  0.28647  0.85139  0.04974  1.0000
  H   H51       1.0  0.62011  0.23584  0.01700  1.0000
  H   H52       1.0  0.37990  0.76418  0.98301  1.0000
  H   H53       1.0  0.78779  0.28853  0.99145  1.0000
  H   H54       1.0  0.21222  0.71148  0.00855  1.0000
  C   C1        1.0  0.67924  0.12433  0.63572  1.0000
  C   C2        1.0  0.32076  0.87567  0.36428  1.0000
  C   C3        1.0  0.70698  0.04947  0.55250  1.0000
  C   C4        1.0  0.29303  0.95053  0.44750  1.0000
  C   C5        1.0  0.63625  0.06913  0.45967  1.0000
  C   C6        1.0  0.36376  0.93087  0.54034  1.0000
  C   C7        1.0  0.56768  0.15645  0.48865  1.0000
  C   C8        1.0  0.43232  0.84355  0.51135  1.0000
  C   C9        1.0  0.48066  0.20290  0.42100  1.0000
  C   C10       1.0  0.51934  0.79710  0.57900  1.0000
  C   C11       1.0  0.41998  0.29022  0.45515  1.0000
  C   C12       1.0  0.58001  0.70978  0.54485  1.0000
  C   C13       1.0  0.33438  0.34317  0.39074  1.0000
  C   C14       1.0  0.66562  0.65683  0.60925  1.0000
  C   C15       1.0  0.30970  0.43018  0.45927  1.0000
  C   C16       1.0  0.69032  0.56982  0.54073  1.0000
  C   C17       1.0  0.38114  0.42979  0.56414  1.0000
  C   C18       1.0  0.61887  0.57021  0.43586  1.0000
  C   C19       1.0  0.45236  0.15653  0.30503  1.0000
  C   C20       1.0  0.54764  0.84347  0.69496  1.0000
  C   C21       1.0  0.57324  0.16134  0.26422  1.0000
  C   C22       1.0  0.42676  0.83866  0.73578  1.0000
  C   C23       1.0  0.53945  0.11797  0.15441  1.0000
  C   C24       1.0  0.46055  0.88203  0.84559  1.0000
  C   C25       1.0  0.38574  0.07064  0.08821  1.0000
  C   C26       1.0  0.61426  0.92936  0.91179  1.0000
  C   C27       1.0  0.30135  0.10640  0.23242  1.0000
  C   C28       1.0  0.69865  0.89360  0.76758  1.0000
  C   C29       1.0  0.83504  0.37647  0.64793  1.0000
  C   C30       1.0  0.16494  0.62353  0.35206  1.0000
  C   C31       1.0  0.97513  0.45749  0.69256  1.0000
  C   C32       1.0  0.02486  0.54251  0.30743  1.0000
  C   C33       1.0  0.96620  0.53096  0.78212  1.0000
  C   C34       1.0  0.03379  0.46903  0.21788  1.0000
  C   C35       1.0  0.81922  0.49364  0.78925  1.0000
  C   C36       1.0  0.18078  0.50636  0.21074  1.0000
  C   C37       1.0  0.75444  0.54580  0.86214  1.0000
  C   C38       1.0  0.24556  0.45419  0.13786  1.0000
  C   C39       1.0  0.60055  0.51478  0.85486  1.0000
  C   C40       1.0  0.39945  0.48521  0.14514  1.0000
  C   C41       1.0  0.52078  0.57515  0.91484  1.0000
  C   C42       1.0  0.47923  0.42484  0.08517  1.0000
  C   C43       1.0  0.36734  0.51850  0.87303  1.0000
  C   C44       1.0  0.63266  0.48150  0.12698  1.0000
  C   C45       1.0  0.35634  0.42417  0.79008  1.0000
  C   C46       1.0  0.64366  0.57583  0.20992  1.0000
  C   C47       1.0  0.85201  0.64285  0.95386  1.0000
  C   C48       1.0  0.14798  0.35714  0.04613  1.0000
  C   C49       1.0  0.90725  0.63735  0.05658  1.0000
  C   C50       1.0  0.09274  0.36266  0.94343  1.0000
  C   C51       1.0  0.98524  0.73045  0.14340  1.0000
  C   C52       1.0  0.01475  0.26956  0.85660  1.0000
  C   C53       1.0  0.00446  0.82693  0.12522  1.0000
  C   C54       1.0  0.99554  0.17308  0.87477  1.0000
  C   C55       1.0  0.88439  0.74247  0.94268  1.0000
  C   C56       1.0  0.11561  0.25752  0.05731  1.0000
  C   C57       1.0  0.42417  0.16862  0.80914  1.0000
  C   C58       1.0  0.57583  0.83139  0.19087  1.0000
  C   C59       1.0  0.31938  0.16411  0.71138  1.0000
  C   C60       1.0  0.68062  0.83589  0.28862  1.0000
  C   C61       1.0  0.15692  0.09479  0.66865  1.0000
  C   C62       1.0  0.84308  0.90520  0.33135  1.0000
  C   C63       1.0  0.57978  0.22673  0.85383  1.0000
  C   C64       1.0  0.42022  0.77328  0.14617  1.0000
  C   C65       1.0  0.68102  0.22527  0.95955  1.0000
  C   C66       1.0  0.31899  0.77474  0.04046  1.0000
  N   N1        1.0  0.59739  0.18863  0.59823  1.0000
  N   N2        1.0  0.40261  0.81137  0.40177  1.0000
  N   N3        1.0  0.44509  0.34613  0.56221  1.0000
  N   N4        1.0  0.55491  0.65386  0.43779  1.0000
  N   N5        1.0  0.26893  0.06431  0.12669  1.0000
  N   N6        1.0  0.73108  0.93569  0.87331  1.0000
  N   N7        1.0  0.74177  0.39787  0.70527  1.0000
  N   N8        1.0  0.25822  0.60213  0.29472  1.0000
  N   N9        1.0  0.49465  0.42221  0.77855  1.0000
  N   N10       1.0  0.50535  0.57778  0.22144  1.0000
  N   N11       1.0  0.95753  0.83228  0.02663  1.0000
  N   N12       1.0  0.04248  0.16771  0.97336  1.0000
  Cl  Cl1       1.0  0.90878  0.08107  0.15766  1.0000
  Cl  Cl2       1.0  0.09122  0.91893  0.84233  1.0000
  O   O1        1.0  0.64911  0.28123  0.81094  1.0000
  O   O2        1.0  0.35089  0.71877  0.18906  1.0000
  O   O3        1.0  0.34825  0.21644  0.65226  1.0000
  O   O4        1.0  0.65174  0.78355  0.34774  1.0000
