data_image0
_chemical_formula_structural       Sm4H36C52N8O28
_chemical_formula_sum              "Sm4 H36 C52 N8 O28"
_cell_length_a       9.29571
_cell_length_b       10.5472
_cell_length_c       14.235
_cell_angle_alpha    90
_cell_angle_beta     90
_cell_angle_gamma    95.4451

_space_group_name_H-M_alt    "P 1"
_space_group_IT_number       1

loop_
  _space_group_symop_operation_xyz
  'x, y, z'

loop_
  _atom_site_type_symbol
  _atom_site_label
  _atom_site_symmetry_multiplicity
  _atom_site_fract_x
  _atom_site_fract_y
  _atom_site_fract_z
  _atom_site_occupancy
  Sm  Sm1       1.0  0.62453  0.96890  0.86562  1.0000
  Sm  Sm2       1.0  0.37547  0.53109  0.36563  1.0000
  Sm  Sm3       1.0  0.37547  0.03110  0.13437  1.0000
  Sm  Sm4       1.0  0.62453  0.46890  0.63437  1.0000
  H   H1        1.0  0.04549  0.27364  0.66384  1.0000
  H   H2        1.0  0.95450  0.22636  0.16384  1.0000
  H   H3        1.0  0.95450  0.72636  0.33616  1.0000
  H   H4        1.0  0.04550  0.77364  0.83616  1.0000
  H   H5        1.0  0.27085  0.20469  0.74063  1.0000
  H   H6        1.0  0.72915  0.29531  0.24063  1.0000
  H   H7        1.0  0.72915  0.79531  0.25937  1.0000
  H   H8        1.0  0.27085  0.70469  0.75937  1.0000
  H   H9        1.0  0.99060  0.96556  0.92296  1.0000
  H   H10       1.0  0.00940  0.53444  0.42297  1.0000
  H   H11       1.0  0.00940  0.03444  0.07704  1.0000
  H   H12       1.0  0.99060  0.46556  0.57704  1.0000
  H   H13       1.0  0.16523  0.62280  0.09468  1.0000
  H   H14       1.0  0.83477  0.87720  0.59468  1.0000
  H   H15       1.0  0.83477  0.37720  0.90532  1.0000
  H   H16       1.0  0.16523  0.12280  0.40532  1.0000
  H   H17       1.0  0.07417  0.39446  0.05638  1.0000
  H   H18       1.0  0.92583  0.10554  0.55638  1.0000
  H   H19       1.0  0.92583  0.60554  0.94362  1.0000
  H   H20       1.0  0.07417  0.89446  0.44362  1.0000
  H   H21       1.0  0.20176  0.28094  0.93393  1.0000
  H   H22       1.0  0.79824  0.21906  0.43393  1.0000
  H   H23       1.0  0.79824  0.71906  0.06607  1.0000
  H   H24       1.0  0.20175  0.78094  0.56607  1.0000
  H   H25       1.0  0.47986  0.60194  0.87463  1.0000
  H   H26       1.0  0.52014  0.89805  0.37463  1.0000
  H   H27       1.0  0.52014  0.39805  0.12537  1.0000
  H   H28       1.0  0.47986  0.10194  0.62537  1.0000
  H   H29       1.0  0.44271  0.87441  0.68481  1.0000
  H   H30       1.0  0.55729  0.62559  0.18481  1.0000
  H   H31       1.0  0.55729  0.12558  0.31519  1.0000
  H   H32       1.0  0.44271  0.37442  0.81519  1.0000
  H   H33       1.0  0.53311  0.76119  0.72702  1.0000
  H   H34       1.0  0.46689  0.73881  0.22702  1.0000
  H   H35       1.0  0.46689  0.23881  0.27298  1.0000
  H   H36       1.0  0.53311  0.26119  0.77298  1.0000
  C   C1        1.0  0.90426  0.15074  0.75108  1.0000
  C   C2        1.0  0.09574  0.34926  0.25108  1.0000
  C   C3        1.0  0.09574  0.84926  0.24892  1.0000
  C   C4        1.0  0.90426  0.65074  0.74892  1.0000
  C   C5        1.0  0.03952  0.20342  0.72008  1.0000
  C   C6        1.0  0.96048  0.29658  0.22008  1.0000
  C   C7        1.0  0.96048  0.79658  0.27992  1.0000
  C   C8        1.0  0.03952  0.70342  0.77992  1.0000
  C   C9        1.0  0.16330  0.16604  0.76301  1.0000
  C   C10       1.0  0.83670  0.33396  0.26301  1.0000
  C   C11       1.0  0.83670  0.83396  0.23699  1.0000
  C   C12       1.0  0.16330  0.66604  0.73699  1.0000
  C   C13       1.0  0.14737  0.08259  0.83959  1.0000
  C   C14       1.0  0.85263  0.41741  0.33959  1.0000
  C   C15       1.0  0.85263  0.91741  0.16041  1.0000
  C   C16       1.0  0.14737  0.58258  0.66041  1.0000
  C   C17       1.0  0.00783  0.03234  0.86465  1.0000
  C   C18       1.0  0.99217  0.46767  0.36465  1.0000
  C   C19       1.0  0.99217  0.96766  0.13535  1.0000
  C   C20       1.0  0.00783  0.53233  0.63535  1.0000
  C   C21       1.0  0.76460  0.19164  0.71241  1.0000
  C   C22       1.0  0.23540  0.30836  0.21241  1.0000
  C   C23       1.0  0.23540  0.80836  0.28759  1.0000
  C   C24       1.0  0.76460  0.69164  0.78759  1.0000
  C   C25       1.0  0.27502  0.05234  0.89771  1.0000
  C   C26       1.0  0.72498  0.44766  0.39771  1.0000
  C   C27       1.0  0.72497  0.94766  0.10229  1.0000
  C   C28       1.0  0.27503  0.55234  0.60229  1.0000
  C   C29       1.0  0.38522  0.76375  0.00728  1.0000
  C   C30       1.0  0.61478  0.73625  0.50728  1.0000
  C   C31       1.0  0.61477  0.23626  0.99272  1.0000
  C   C32       1.0  0.38523  0.26374  0.49272  1.0000
  C   C33       1.0  0.32851  0.62868  0.98717  1.0000
  C   C34       1.0  0.67149  0.87132  0.48717  1.0000
  C   C35       1.0  0.67149  0.37133  0.01283  1.0000
  C   C36       1.0  0.32851  0.12867  0.51283  1.0000
  C   C37       1.0  0.21338  0.56951  0.03917  1.0000
  C   C38       1.0  0.78661  0.93049  0.53916  1.0000
  C   C39       1.0  0.78661  0.43049  0.96084  1.0000
  C   C40       1.0  0.21338  0.06951  0.46083  1.0000
  C   C41       1.0  0.16457  0.44389  0.01871  1.0000
  C   C42       1.0  0.83543  0.05611  0.51871  1.0000
  C   C43       1.0  0.83543  0.55611  0.98129  1.0000
  C   C44       1.0  0.16457  0.94389  0.48129  1.0000
  C   C45       1.0  0.23488  0.38049  0.94917  1.0000
  C   C46       1.0  0.76512  0.11951  0.44917  1.0000
  C   C47       1.0  0.76512  0.61951  0.05083  1.0000
  C   C48       1.0  0.23488  0.88049  0.55083  1.0000
  C   C49       1.0  0.39033  0.55870  0.91696  1.0000
  C   C50       1.0  0.60967  0.94131  0.41696  1.0000
  C   C51       1.0  0.60967  0.44131  0.08304  1.0000
  C   C52       1.0  0.39033  0.05869  0.58304  1.0000
  N   N1        1.0  0.88934  0.06272  0.81994  1.0000
  N   N2        1.0  0.11066  0.43728  0.31994  1.0000
  N   N3        1.0  0.11066  0.93728  0.18006  1.0000
  N   N4        1.0  0.88934  0.56272  0.68006  1.0000
  N   N5        1.0  0.34552  0.43634  0.89876  1.0000
  N   N6        1.0  0.65448  0.06366  0.39876  1.0000
  N   N7        1.0  0.65448  0.56366  0.10124  1.0000
  N   N8        1.0  0.34552  0.93634  0.60124  1.0000
  O   O1        1.0  0.50566  0.84737  0.73865  1.0000
  O   O2        1.0  0.49435  0.65263  0.23865  1.0000
  O   O3        1.0  0.49435  0.15263  0.26135  1.0000
  O   O4        1.0  0.50565  0.34737  0.76135  1.0000
  O   O5        1.0  0.77175  0.29325  0.66450  1.0000
  O   O6        1.0  0.22825  0.20675  0.16450  1.0000
  O   O7        1.0  0.22825  0.70674  0.33550  1.0000
  O   O8        1.0  0.77175  0.79326  0.83550  1.0000
  O   O9        1.0  0.64944  0.12224  0.73329  1.0000
  O   O10       1.0  0.35056  0.37776  0.23330  1.0000
  O   O11       1.0  0.35056  0.87776  0.26671  1.0000
  O   O12       1.0  0.64944  0.62224  0.76671  1.0000
  O   O13       1.0  0.39442  0.05025  0.85524  1.0000
  O   O14       1.0  0.60558  0.44975  0.35524  1.0000
  O   O15       1.0  0.60558  0.94975  0.14476  1.0000
  O   O16       1.0  0.39442  0.55025  0.64476  1.0000
  O   O17       1.0  0.25126  0.03481  0.98485  1.0000
  O   O18       1.0  0.74874  0.46518  0.48485  1.0000
  O   O19       1.0  0.74874  0.96518  0.01514  1.0000
  O   O20       1.0  0.25125  0.53482  0.51515  1.0000
  O   O21       1.0  0.48037  0.81718  0.95259  1.0000
  O   O22       1.0  0.51963  0.68282  0.45259  1.0000
  O   O23       1.0  0.51963  0.18283  0.04741  1.0000
  O   O24       1.0  0.48037  0.31717  0.54741  1.0000
  O   O25       1.0  0.33315  0.81499  0.07853  1.0000
  O   O26       1.0  0.66686  0.68501  0.57853  1.0000
  O   O27       1.0  0.66686  0.18501  0.92147  1.0000
  O   O28       1.0  0.33314  0.31499  0.42147  1.0000
