data_image0
_chemical_formula_structural       Cu8H16C32I4N20
_chemical_formula_sum              "Cu8 H16 C32 I4 N20"
_cell_length_a       8.72758
_cell_length_b       11.2774
_cell_length_c       11.8059
_cell_angle_alpha    109.18
_cell_angle_beta     89.9998
_cell_angle_gamma    112.777

_space_group_name_H-M_alt    "P 1"
_space_group_IT_number       1

loop_
  _space_group_symop_operation_xyz
  'x, y, z'

loop_
  _atom_site_type_symbol
  _atom_site_label
  _atom_site_symmetry_multiplicity
  _atom_site_fract_x
  _atom_site_fract_y
  _atom_site_fract_z
  _atom_site_occupancy
  Cu  Cu1       1.0  0.34636  0.69053  0.26498  1.0000
  Cu  Cu2       1.0  0.65562  0.30919  0.23481  1.0000
  Cu  Cu3       1.0  0.65364  0.30947  0.73502  1.0000
  Cu  Cu4       1.0  0.34438  0.69081  0.76519  1.0000
  Cu  Cu5       1.0  0.08183  0.49585  0.90774  1.0000
  Cu  Cu6       1.0  0.58605  0.50415  0.59221  1.0000
  Cu  Cu7       1.0  0.91817  0.50415  0.09226  1.0000
  Cu  Cu8       1.0  0.41395  0.49584  0.40779  1.0000
  H   H1        1.0  0.80440  0.60064  0.93684  1.0000
  H   H2        1.0  0.20329  0.39937  0.56328  1.0000
  H   H3        1.0  0.19560  0.39936  0.06316  1.0000
  H   H4        1.0  0.79671  0.60063  0.43672  1.0000
  H   H5        1.0  0.89057  0.76705  0.82946  1.0000
  H   H6        1.0  0.12310  0.23286  0.67056  1.0000
  H   H7        1.0  0.10944  0.23296  0.17054  1.0000
  H   H8        1.0  0.87690  0.76715  0.32944  1.0000
  H   H9        1.0  0.82290  0.97269  0.89618  1.0000
  H   H10       1.0  0.84970  0.02719  0.60375  1.0000
  H   H11       1.0  0.17710  0.02732  0.10383  1.0000
  H   H12       1.0  0.15030  0.97282  0.39625  1.0000
  H   H13       1.0  0.57803  0.84269  0.17842  1.0000
  H   H14       1.0  0.73465  0.15741  0.32173  1.0000
  H   H15       1.0  0.42196  0.15731  0.82158  1.0000
  H   H16       1.0  0.26535  0.84259  0.67826  1.0000
  C   C1        1.0  0.68552  0.71037  0.06530  1.0000
  C   C2        1.0  0.97452  0.28977  0.43495  1.0000
  C   C3        1.0  0.31448  0.28963  0.93470  1.0000
  C   C4        1.0  0.02548  0.71023  0.56505  1.0000
  C   C5        1.0  0.77508  0.69067  0.96683  1.0000
  C   C6        1.0  0.08384  0.30938  0.53336  1.0000
  C   C7        1.0  0.22493  0.30933  0.03317  1.0000
  C   C8        1.0  0.91616  0.69063  0.46663  1.0000
  C   C9        1.0  0.82369  0.78450  0.90676  1.0000
  C   C10       1.0  0.03868  0.21546  0.59334  1.0000
  C   C11       1.0  0.17631  0.21550  0.09324  1.0000
  C   C12       1.0  0.96132  0.78454  0.40666  1.0000
  C   C13       1.0  0.78608  0.89944  0.94307  1.0000
  C   C14       1.0  0.88609  0.10050  0.55696  1.0000
  C   C15       1.0  0.21392  0.10056  0.05693  1.0000
  C   C16       1.0  0.11391  0.89950  0.44304  1.0000
  C   C17       1.0  0.69790  0.92009  0.04247  1.0000
  C   C18       1.0  0.77721  0.07993  0.45762  1.0000
  C   C19       1.0  0.30211  0.07992  0.95753  1.0000
  C   C20       1.0  0.22279  0.92007  0.54238  1.0000
  C   C21       1.0  0.64714  0.82554  0.10261  1.0000
  C   C22       1.0  0.82088  0.17458  0.39759  1.0000
  C   C23       1.0  0.35286  0.17446  0.89739  1.0000
  C   C24       1.0  0.17912  0.82542  0.60241  1.0000
  C   C25       1.0  0.63483  0.61539  0.13135  1.0000
  C   C26       1.0  0.01917  0.38467  0.36882  1.0000
  C   C27       1.0  0.36516  0.38461  0.86865  1.0000
  C   C28       1.0  0.98083  0.61533  0.63117  1.0000
  C   C29       1.0  0.65903  0.03641  0.08645  1.0000
  C   C30       1.0  0.62215  0.96346  0.41357  1.0000
  C   C31       1.0  0.34097  0.96359  0.91355  1.0000
  C   C32       1.0  0.37786  0.03654  0.58644  1.0000
  I   I1        1.0  0.17634  0.72653  0.09867  1.0000
  I   I2        1.0  0.44954  0.27343  0.40125  1.0000
  I   I3        1.0  0.82366  0.27347  0.90133  1.0000
  I   I4        1.0  0.55045  0.72657  0.59875  1.0000
  N   N1        1.0  0.51843  0.60861  0.20743  1.0000
  N   N2        1.0  0.90964  0.39135  0.29259  1.0000
  N   N3        1.0  0.48156  0.39139  0.79257  1.0000
  N   N4        1.0  0.09035  0.60865  0.70741  1.0000
  N   N5        1.0  0.51625  0.51490  0.25454  1.0000
  N   N6        1.0  0.00131  0.48489  0.24537  1.0000
  N   N7        1.0  0.48375  0.48510  0.74546  1.0000
  N   N8        1.0  0.99869  0.51511  0.75464  1.0000
  N   N9        1.0  0.62313  0.46249  0.20631  1.0000
  N   N10       1.0  0.16060  0.53729  0.29364  1.0000
  N   N11       1.0  0.37687  0.53751  0.79369  1.0000
  N   N12       1.0  0.83940  0.46271  0.70636  1.0000
  N   N13       1.0  0.70160  0.52510  0.13038  1.0000
  N   N14       1.0  0.17633  0.47483  0.36974  1.0000
  N   N15       1.0  0.29840  0.47490  0.86962  1.0000
  N   N16       1.0  0.82366  0.52517  0.63026  1.0000
  N   N17       1.0  0.62669  0.13188  0.12898  1.0000
  N   N18       1.0  0.49442  0.86785  0.37095  1.0000
  N   N19       1.0  0.37332  0.86812  0.87102  1.0000
  N   N20       1.0  0.50557  0.13214  0.62905  1.0000
