data_image0
_chemical_formula_structural       Cu2H24C28N20
_chemical_formula_sum              "Cu2 H24 C28 N20"
_cell_length_a       7.19974
_cell_length_b       7.5477
_cell_length_c       14.3342
_cell_angle_alpha    90.0001
_cell_angle_beta     90.0005
_cell_angle_gamma    99.5539

_space_group_name_H-M_alt    "P 1"
_space_group_IT_number       1

loop_
  _space_group_symop_operation_xyz
  'x, y, z'

loop_
  _atom_site_type_symbol
  _atom_site_label
  _atom_site_symmetry_multiplicity
  _atom_site_fract_x
  _atom_site_fract_y
  _atom_site_fract_z
  _atom_site_occupancy
  Cu  Cu1       1.0  1.00000  0.50000  0.50000  1.0000
  Cu  Cu2       1.0  0.50000  0.50000  0.00000  1.0000
  H   H1        1.0  0.98912  0.86634  0.43252  1.0000
  H   H2        1.0  0.51088  0.13366  0.93252  1.0000
  H   H3        1.0  0.01089  0.13366  0.56748  1.0000
  H   H4        1.0  0.48912  0.86634  0.06748  1.0000
  H   H5        1.0  0.07763  0.39467  0.30447  1.0000
  H   H6        1.0  0.42238  0.60533  0.80448  1.0000
  H   H7        1.0  0.92238  0.60533  0.69552  1.0000
  H   H8        1.0  0.57762  0.39467  0.19553  1.0000
  H   H9        1.0  0.08513  0.53779  0.14613  1.0000
  H   H10       1.0  0.41487  0.46221  0.64614  1.0000
  H   H11       1.0  0.91487  0.46221  0.85386  1.0000
  H   H12       1.0  0.58514  0.53779  0.35387  1.0000
  H   H13       1.0  0.03477  0.85592  0.13203  1.0000
  H   H14       1.0  0.46523  0.14408  0.63203  1.0000
  H   H15       1.0  0.96522  0.14408  0.86797  1.0000
  H   H16       1.0  0.53478  0.85592  0.36797  1.0000
  H   H17       1.0  0.92513  0.11494  0.33628  1.0000
  H   H18       1.0  0.57487  0.88506  0.83629  1.0000
  H   H19       1.0  0.07486  0.88506  0.66372  1.0000
  H   H20       1.0  0.42513  0.11494  0.16372  1.0000
  H   H21       1.0  0.93849  0.10910  0.21729  1.0000
  H   H22       1.0  0.56151  0.89090  0.71729  1.0000
  H   H23       1.0  0.06151  0.89089  0.78271  1.0000
  H   H24       1.0  0.43849  0.10910  0.28272  1.0000
  C   C1        1.0  0.33259  0.29671  0.45472  1.0000
  C   C2        1.0  0.16741  0.70329  0.95472  1.0000
  C   C3        1.0  0.66741  0.70329  0.54527  1.0000
  C   C4        1.0  0.83259  0.29671  0.04528  1.0000
  C   C5        1.0  0.62535  0.21154  0.43563  1.0000
  C   C6        1.0  0.87465  0.78845  0.93563  1.0000
  C   C7        1.0  0.37464  0.78847  0.56436  1.0000
  C   C8        1.0  0.12535  0.21155  0.06437  1.0000
  C   C9        1.0  0.00791  0.88931  0.28132  1.0000
  C   C10       1.0  0.49209  0.11068  0.78133  1.0000
  C   C11       1.0  0.99209  0.11068  0.71867  1.0000
  C   C12       1.0  0.50791  0.88932  0.21868  1.0000
  C   C13       1.0  0.00835  0.79827  0.36714  1.0000
  C   C14       1.0  0.49165  0.20173  0.86715  1.0000
  C   C15       1.0  0.99166  0.20172  0.63285  1.0000
  C   C16       1.0  0.50835  0.79827  0.13286  1.0000
  C   C17       1.0  0.05655  0.53285  0.29540  1.0000
  C   C18       1.0  0.44345  0.46714  0.79541  1.0000
  C   C19       1.0  0.94345  0.46714  0.70459  1.0000
  C   C20       1.0  0.55655  0.53285  0.20460  1.0000
  C   C21       1.0  0.05988  0.61396  0.20796  1.0000
  C   C22       1.0  0.44012  0.38604  0.70797  1.0000
  C   C23       1.0  0.94012  0.38604  0.79203  1.0000
  C   C24       1.0  0.55989  0.61396  0.29204  1.0000
  C   C25       1.0  0.03427  0.79145  0.20010  1.0000
  C   C26       1.0  0.46573  0.20855  0.70010  1.0000
  C   C27       1.0  0.96573  0.20855  0.79990  1.0000
  C   C28       1.0  0.53427  0.79145  0.29990  1.0000
  N   N1        1.0  0.21896  0.38647  0.47344  1.0000
  N   N2        1.0  0.28104  0.61354  0.97344  1.0000
  N   N3        1.0  0.78104  0.61354  0.52656  1.0000
  N   N4        1.0  0.71896  0.38647  0.02656  1.0000
  N   N5        1.0  0.44270  0.18590  0.43134  1.0000
  N   N6        1.0  0.05729  0.81410  0.93134  1.0000
  N   N7        1.0  0.55729  0.81411  0.56866  1.0000
  N   N8        1.0  0.94271  0.18590  0.06866  1.0000
  N   N9        1.0  0.02920  0.62570  0.37287  1.0000
  N   N10       1.0  0.47080  0.37430  0.87288  1.0000
  N   N11       1.0  0.97081  0.37430  0.62712  1.0000
  N   N12       1.0  0.52920  0.62570  0.12713  1.0000
  N   N13       1.0  0.79046  0.21860  0.43454  1.0000
  N   N14       1.0  0.70953  0.78139  0.93454  1.0000
  N   N15       1.0  0.20954  0.78140  0.56546  1.0000
  N   N16       1.0  0.29046  0.21861  0.06546  1.0000
  N   N17       1.0  0.98575  0.06637  0.27894  1.0000
  N   N18       1.0  0.51425  0.93362  0.77895  1.0000
  N   N19       1.0  0.01425  0.93362  0.72105  1.0000
  N   N20       1.0  0.48575  0.06637  0.22106  1.0000
