data_image0
_chemical_formula_structural       Co2H24C28N20
_chemical_formula_sum              "Co2 H24 C28 N20"
_cell_length_a       7.23013
_cell_length_b       7.52829
_cell_length_c       13.8076
_cell_angle_alpha    90.0007
_cell_angle_beta     90.0009
_cell_angle_gamma    99.9328

_space_group_name_H-M_alt    "P 1"
_space_group_IT_number       1

loop_
  _space_group_symop_operation_xyz
  'x, y, z'

loop_
  _atom_site_type_symbol
  _atom_site_label
  _atom_site_symmetry_multiplicity
  _atom_site_fract_x
  _atom_site_fract_y
  _atom_site_fract_z
  _atom_site_occupancy
  Co  Co1       1.0  1.00000  0.50000  0.50000  1.0000
  Co  Co2       1.0  0.50000  0.50000  0.00000  1.0000
  H   H1        1.0  0.99326  0.87061  0.44196  1.0000
  H   H2        1.0  0.50672  0.12937  0.94196  1.0000
  H   H3        1.0  0.00674  0.12939  0.55804  1.0000
  H   H4        1.0  0.49329  0.87062  0.05803  1.0000
  H   H5        1.0  0.07175  0.40447  0.29938  1.0000
  H   H6        1.0  0.42824  0.59552  0.79938  1.0000
  H   H7        1.0  0.92824  0.59553  0.70062  1.0000
  H   H8        1.0  0.57175  0.40448  0.20062  1.0000
  H   H9        1.0  0.08140  0.55885  0.13877  1.0000
  H   H10       1.0  0.41861  0.44113  0.63876  1.0000
  H   H11       1.0  0.91860  0.44115  0.86124  1.0000
  H   H12       1.0  0.58139  0.55887  0.36124  1.0000
  H   H13       1.0  0.02977  0.87820  0.12982  1.0000
  H   H14       1.0  0.47025  0.12178  0.62982  1.0000
  H   H15       1.0  0.97024  0.12180  0.87018  1.0000
  H   H16       1.0  0.52975  0.87823  0.37018  1.0000
  H   H17       1.0  0.92418  0.12693  0.34518  1.0000
  H   H18       1.0  0.57582  0.87305  0.84519  1.0000
  H   H19       1.0  0.07582  0.87307  0.65482  1.0000
  H   H20       1.0  0.42419  0.12694  0.15481  1.0000
  H   H21       1.0  0.93653  0.12322  0.22212  1.0000
  H   H22       1.0  0.56347  0.87677  0.72212  1.0000
  H   H23       1.0  0.06348  0.87679  0.77788  1.0000
  H   H24       1.0  0.43653  0.12323  0.27787  1.0000
  C   C1        1.0  0.31979  0.30180  0.45138  1.0000
  C   C2        1.0  0.18021  0.69821  0.95138  1.0000
  C   C3        1.0  0.68019  0.69820  0.54862  1.0000
  C   C4        1.0  0.81980  0.30180  0.04862  1.0000
  C   C5        1.0  0.62184  0.24426  0.43622  1.0000
  C   C6        1.0  0.87817  0.75574  0.93622  1.0000
  C   C7        1.0  0.37815  0.75574  0.56377  1.0000
  C   C8        1.0  0.12184  0.24426  0.06378  1.0000
  C   C9        1.0  0.00638  0.90143  0.28570  1.0000
  C   C10       1.0  0.49361  0.09856  0.78570  1.0000
  C   C11       1.0  0.99362  0.09857  0.71430  1.0000
  C   C12       1.0  0.50639  0.90144  0.21430  1.0000
  C   C13       1.0  0.00918  0.80543  0.37297  1.0000
  C   C14       1.0  0.49081  0.19456  0.87297  1.0000
  C   C15       1.0  0.99082  0.19457  0.62703  1.0000
  C   C16       1.0  0.50920  0.80544  0.12703  1.0000
  C   C17       1.0  0.05278  0.54385  0.29323  1.0000
  C   C18       1.0  0.44722  0.45613  0.79324  1.0000
  C   C19       1.0  0.94722  0.45615  0.70676  1.0000
  C   C20       1.0  0.55279  0.54387  0.20677  1.0000
  C   C21       1.0  0.05643  0.63135  0.20428  1.0000
  C   C22       1.0  0.44358  0.36863  0.70428  1.0000
  C   C23       1.0  0.94356  0.36865  0.79572  1.0000
  C   C24       1.0  0.55642  0.63136  0.29572  1.0000
  C   C25       1.0  0.03097  0.80939  0.19923  1.0000
  C   C26       1.0  0.46903  0.19060  0.69922  1.0000
  C   C27       1.0  0.96902  0.19062  0.80078  1.0000
  C   C28       1.0  0.53098  0.80940  0.30078  1.0000
  N   N1        1.0  0.19679  0.38145  0.46684  1.0000
  N   N2        1.0  0.30322  0.61855  0.96685  1.0000
  N   N3        1.0  0.80321  0.61855  0.53315  1.0000
  N   N4        1.0  0.69678  0.38144  0.03316  1.0000
  N   N5        1.0  0.44079  0.19831  0.43197  1.0000
  N   N6        1.0  0.05922  0.80169  0.93197  1.0000
  N   N7        1.0  0.55921  0.80169  0.56802  1.0000
  N   N8        1.0  0.94079  0.19832  0.06803  1.0000
  N   N9        1.0  0.02686  0.63066  0.37628  1.0000
  N   N10       1.0  0.47313  0.36933  0.87629  1.0000
  N   N11       1.0  0.97313  0.36933  0.62372  1.0000
  N   N12       1.0  0.52687  0.63067  0.12372  1.0000
  N   N13       1.0  0.78791  0.27180  0.43594  1.0000
  N   N14       1.0  0.71209  0.72818  0.93595  1.0000
  N   N15       1.0  0.21208  0.72819  0.56406  1.0000
  N   N16       1.0  0.28792  0.27182  0.06405  1.0000
  N   N17       1.0  0.98430  0.07920  0.28567  1.0000
  N   N18       1.0  0.51569  0.92079  0.78568  1.0000
  N   N19       1.0  0.01570  0.92081  0.71433  1.0000
  N   N20       1.0  0.48431  0.07921  0.21432  1.0000
