data_image0
_chemical_formula_structural       Zn2H24C28N20
_chemical_formula_sum              "Zn2 H24 C28 N20"
_cell_length_a       7.40392
_cell_length_b       7.54805
_cell_length_c       14.2963
_cell_angle_alpha    90
_cell_angle_beta     89.9997
_cell_angle_gamma    102.983

_space_group_name_H-M_alt    "P 1"
_space_group_IT_number       1

loop_
  _space_group_symop_operation_xyz
  'x, y, z'

loop_
  _atom_site_type_symbol
  _atom_site_label
  _atom_site_symmetry_multiplicity
  _atom_site_fract_x
  _atom_site_fract_y
  _atom_site_fract_z
  _atom_site_occupancy
  Zn  Zn1       1.0  0.00000  0.50000  0.50000  1.0000
  Zn  Zn2       1.0  0.50000  0.50000  1.00000  1.0000
  H   H1        1.0  0.92897  0.12414  0.33898  1.0000
  H   H2        1.0  0.57103  0.87587  0.83898  1.0000
  H   H3        1.0  0.07103  0.87586  0.66102  1.0000
  H   H4        1.0  0.42896  0.12413  0.16102  1.0000
  H   H5        1.0  0.93874  0.12088  0.21980  1.0000
  H   H6        1.0  0.56126  0.87912  0.71980  1.0000
  H   H7        1.0  0.06126  0.87912  0.78020  1.0000
  H   H8        1.0  0.43874  0.12088  0.28020  1.0000
  H   H9        1.0  0.08467  0.41468  0.29885  1.0000
  H   H10       1.0  0.41534  0.58532  0.79885  1.0000
  H   H11       1.0  0.91534  0.58532  0.70115  1.0000
  H   H12       1.0  0.58467  0.41468  0.20115  1.0000
  H   H13       1.0  0.08816  0.56427  0.14138  1.0000
  H   H14       1.0  0.41184  0.43573  0.64138  1.0000
  H   H15       1.0  0.91184  0.43572  0.85862  1.0000
  H   H16       1.0  0.58817  0.56427  0.35862  1.0000
  H   H17       1.0  0.03171  0.87699  0.13134  1.0000
  H   H18       1.0  0.46828  0.12300  0.63134  1.0000
  H   H19       1.0  0.96828  0.12300  0.86865  1.0000
  H   H20       1.0  0.53172  0.87700  0.36866  1.0000
  H   H21       1.0  0.99074  0.87217  0.43285  1.0000
  H   H22       1.0  0.50926  0.12784  0.93285  1.0000
  H   H23       1.0  0.00926  0.12783  0.56715  1.0000
  H   H24       1.0  0.49074  0.87217  0.06715  1.0000
  C   C1        1.0  0.33760  0.28803  0.45023  1.0000
  C   C2        1.0  0.16240  0.71199  0.95024  1.0000
  C   C3        1.0  0.66241  0.71198  0.54977  1.0000
  C   C4        1.0  0.83759  0.28802  0.04976  1.0000
  C   C5        1.0  0.63197  0.23622  0.43655  1.0000
  C   C6        1.0  0.86803  0.76378  0.93655  1.0000
  C   C7        1.0  0.36803  0.76378  0.56345  1.0000
  C   C8        1.0  0.13197  0.23622  0.06344  1.0000
  C   C9        1.0  0.06187  0.55140  0.29130  1.0000
  C   C10       1.0  0.43814  0.44861  0.79130  1.0000
  C   C11       1.0  0.93814  0.44860  0.70869  1.0000
  C   C12       1.0  0.56186  0.55140  0.20870  1.0000
  C   C13       1.0  0.06320  0.63559  0.20452  1.0000
  C   C14       1.0  0.43680  0.36441  0.70452  1.0000
  C   C15       1.0  0.93680  0.36441  0.79548  1.0000
  C   C16       1.0  0.56320  0.63559  0.29548  1.0000
  C   C17       1.0  0.03448  0.81068  0.19890  1.0000
  C   C18       1.0  0.46551  0.18932  0.69889  1.0000
  C   C19       1.0  0.96551  0.18931  0.80110  1.0000
  C   C20       1.0  0.53449  0.81068  0.30111  1.0000
  C   C21       1.0  0.00843  0.90315  0.28165  1.0000
  C   C22       1.0  0.49157  0.09685  0.78165  1.0000
  C   C23       1.0  0.99156  0.09685  0.71835  1.0000
  C   C24       1.0  0.50843  0.90315  0.21835  1.0000
  C   C25       1.0  0.01101  0.80863  0.36632  1.0000
  C   C26       1.0  0.48899  0.19137  0.86631  1.0000
  C   C27       1.0  0.98900  0.19136  0.63368  1.0000
  C   C28       1.0  0.51100  0.80863  0.13369  1.0000
  N   N1        1.0  0.22068  0.36709  0.46518  1.0000
  N   N2        1.0  0.27932  0.63292  0.96518  1.0000
  N   N3        1.0  0.77932  0.63292  0.53482  1.0000
  N   N4        1.0  0.72068  0.36709  0.03481  1.0000
  N   N5        1.0  0.45331  0.18718  0.43153  1.0000
  N   N6        1.0  0.04669  0.81283  0.93153  1.0000
  N   N7        1.0  0.54669  0.81282  0.56848  1.0000
  N   N8        1.0  0.95330  0.18718  0.06847  1.0000
  N   N9        1.0  0.79562  0.26455  0.43685  1.0000
  N   N10       1.0  0.70438  0.73546  0.93685  1.0000
  N   N11       1.0  0.20438  0.73544  0.56315  1.0000
  N   N12       1.0  0.29562  0.26455  0.06315  1.0000
  N   N13       1.0  0.03383  0.63782  0.37041  1.0000
  N   N14       1.0  0.46618  0.36219  0.87041  1.0000
  N   N15       1.0  0.96618  0.36218  0.62959  1.0000
  N   N16       1.0  0.53382  0.63782  0.12959  1.0000
  N   N17       1.0  0.98535  0.07877  0.28100  1.0000
  N   N18       1.0  0.51465  0.92123  0.78100  1.0000
  N   N19       1.0  0.01464  0.92122  0.71899  1.0000
  N   N20       1.0  0.48535  0.07877  0.21900  1.0000
