data_image0
_chemical_formula_structural       Cd2H24C28N20
_chemical_formula_sum              "Cd2 H24 C28 N20"
_cell_length_a       7.52429
_cell_length_b       7.57086
_cell_length_c       14.8672
_cell_angle_alpha    90
_cell_angle_beta     90.0006
_cell_angle_gamma    103.691

_space_group_name_H-M_alt    "P 1"
_space_group_IT_number       1

loop_
  _space_group_symop_operation_xyz
  'x, y, z'

loop_
  _atom_site_type_symbol
  _atom_site_label
  _atom_site_symmetry_multiplicity
  _atom_site_fract_x
  _atom_site_fract_y
  _atom_site_fract_z
  _atom_site_occupancy
  Cd  Cd1       1.0  0.99999  0.49999  0.50000  1.0000
  Cd  Cd2       1.0  0.50000  0.50000  1.00000  1.0000
  H   H1        1.0  0.99350  0.87703  0.42220  1.0000
  H   H2        1.0  0.50650  0.12297  0.92220  1.0000
  H   H3        1.0  0.00651  0.12297  0.57780  1.0000
  H   H4        1.0  0.49349  0.87704  0.07780  1.0000
  H   H5        1.0  0.09711  0.42366  0.29526  1.0000
  H   H6        1.0  0.40289  0.57634  0.79525  1.0000
  H   H7        1.0  0.90290  0.57634  0.70474  1.0000
  H   H8        1.0  0.59710  0.42366  0.20474  1.0000
  H   H9        1.0  0.09330  0.56873  0.14291  1.0000
  H   H10       1.0  0.40671  0.43127  0.64291  1.0000
  H   H11       1.0  0.90670  0.43128  0.85709  1.0000
  H   H12       1.0  0.59330  0.56872  0.35709  1.0000
  H   H13       1.0  0.03087  0.87607  0.13215  1.0000
  H   H14       1.0  0.46913  0.12393  0.63215  1.0000
  H   H15       1.0  0.96913  0.12394  0.86785  1.0000
  H   H16       1.0  0.53087  0.87606  0.36785  1.0000
  H   H17       1.0  0.92810  0.12259  0.33158  1.0000
  H   H18       1.0  0.57190  0.87741  0.83158  1.0000
  H   H19       1.0  0.07190  0.87741  0.66843  1.0000
  H   H20       1.0  0.42811  0.12259  0.16842  1.0000
  H   H21       1.0  0.93902  0.12059  0.21669  1.0000
  H   H22       1.0  0.56098  0.87941  0.71669  1.0000
  H   H23       1.0  0.06097  0.87941  0.78332  1.0000
  H   H24       1.0  0.43902  0.12060  0.28331  1.0000
  C   C1        1.0  0.35532  0.28321  0.45340  1.0000
  C   C2        1.0  0.14469  0.71677  0.95340  1.0000
  C   C3        1.0  0.64469  0.71678  0.54660  1.0000
  C   C4        1.0  0.85531  0.28324  0.04660  1.0000
  C   C5        1.0  0.63816  0.21732  0.43395  1.0000
  C   C6        1.0  0.86185  0.78267  0.93395  1.0000
  C   C7        1.0  0.36185  0.78269  0.56606  1.0000
  C   C8        1.0  0.13814  0.21733  0.06605  1.0000
  C   C9        1.0  0.01047  0.90582  0.27664  1.0000
  C   C10       1.0  0.48952  0.09417  0.77664  1.0000
  C   C11       1.0  0.98953  0.09418  0.72336  1.0000
  C   C12       1.0  0.51048  0.90583  0.22336  1.0000
  C   C13       1.0  0.01566  0.81371  0.35854  1.0000
  C   C14       1.0  0.48434  0.18630  0.85854  1.0000
  C   C15       1.0  0.98435  0.18629  0.64146  1.0000
  C   C16       1.0  0.51565  0.81371  0.14146  1.0000
  C   C17       1.0  0.07160  0.55859  0.28748  1.0000
  C   C18       1.0  0.42839  0.44141  0.78748  1.0000
  C   C19       1.0  0.92840  0.44141  0.71252  1.0000
  C   C20       1.0  0.57160  0.55859  0.21252  1.0000
  C   C21       1.0  0.06930  0.64004  0.20358  1.0000
  C   C22       1.0  0.43071  0.35996  0.70358  1.0000
  C   C23       1.0  0.93071  0.35996  0.79641  1.0000
  C   C24       1.0  0.56929  0.64004  0.29641  1.0000
  C   C25       1.0  0.03692  0.81271  0.19752  1.0000
  C   C26       1.0  0.46309  0.18729  0.69752  1.0000
  C   C27       1.0  0.96308  0.18729  0.80248  1.0000
  C   C28       1.0  0.53691  0.81271  0.30248  1.0000
  N   N1        1.0  0.24614  0.36480  0.47339  1.0000
  N   N2        1.0  0.25387  0.63518  0.97339  1.0000
  N   N3        1.0  0.75384  0.63520  0.52661  1.0000
  N   N4        1.0  0.74613  0.36482  0.02661  1.0000
  N   N5        1.0  0.46203  0.18107  0.42857  1.0000
  N   N6        1.0  0.03797  0.81892  0.92857  1.0000
  N   N7        1.0  0.53799  0.81893  0.57145  1.0000
  N   N8        1.0  0.96202  0.18110  0.07144  1.0000
  N   N9        1.0  0.04302  0.64555  0.36304  1.0000
  N   N10       1.0  0.45698  0.35445  0.86304  1.0000
  N   N11       1.0  0.95699  0.35444  0.63696  1.0000
  N   N12       1.0  0.54301  0.64555  0.13696  1.0000
  N   N13       1.0  0.79851  0.23292  0.43364  1.0000
  N   N14       1.0  0.70149  0.76707  0.93364  1.0000
  N   N15       1.0  0.20150  0.76705  0.56636  1.0000
  N   N16       1.0  0.29850  0.23294  0.06636  1.0000
  N   N17       1.0  0.98470  0.07945  0.27568  1.0000
  N   N18       1.0  0.51531  0.92055  0.77568  1.0000
  N   N19       1.0  0.01530  0.92055  0.72433  1.0000
  N   N20       1.0  0.48469  0.07945  0.22432  1.0000
