data_image0
_chemical_formula_structural       Ag4H18C22N4O8
_chemical_formula_sum              "Ag4 H18 C22 N4 O8"
_cell_length_a       6.37542
_cell_length_b       9.16946
_cell_length_c       10.6381
_cell_angle_alpha    64.3235
_cell_angle_beta     81.3186
_cell_angle_gamma    82.8127

_space_group_name_H-M_alt    "P 1"
_space_group_IT_number       1

loop_
  _space_group_symop_operation_xyz
  'x, y, z'

loop_
  _atom_site_type_symbol
  _atom_site_label
  _atom_site_symmetry_multiplicity
  _atom_site_fract_x
  _atom_site_fract_y
  _atom_site_fract_z
  _atom_site_occupancy
  Ag  Ag1       1.0  0.28058  0.01474  0.13057  1.0000
  Ag  Ag2       1.0  0.71942  0.98526  0.86943  1.0000
  Ag  Ag3       1.0  0.84948  0.85837  0.24087  1.0000
  Ag  Ag4       1.0  0.15052  0.14163  0.75913  1.0000
  H   H1        1.0  0.81980  0.59637  0.47652  1.0000
  H   H2        1.0  0.18021  0.40363  0.52348  1.0000
  H   H3        1.0  0.65757  0.53372  0.63997  1.0000
  H   H4        1.0  0.34244  0.46627  0.36003  1.0000
  H   H5        1.0  0.93557  0.53027  0.63813  1.0000
  H   H6        1.0  0.06444  0.46973  0.36187  1.0000
  H   H7        1.0  0.74003  0.69943  0.78995  1.0000
  H   H8        1.0  0.25997  0.30056  0.21005  1.0000
  H   H9        1.0  0.54063  0.25881  0.60078  1.0000
  H   H10       1.0  0.45938  0.74120  0.39922  1.0000
  H   H11       1.0  0.70211  0.33808  0.43625  1.0000
  H   H12       1.0  0.29789  0.66191  0.56374  1.0000
  H   H13       1.0  0.81599  0.25945  0.59893  1.0000
  H   H14       1.0  0.18401  0.74054  0.40107  1.0000
  H   H15       1.0  0.16829  0.57502  0.88690  1.0000
  H   H16       1.0  0.83171  0.42499  0.11310  1.0000
  H   H17       1.0  0.76613  0.14407  0.32482  1.0000
  H   H18       1.0  0.23387  0.85593  0.67518  1.0000
  C   C1        1.0  0.79976  0.59792  0.58019  1.0000
  C   C2        1.0  0.20024  0.40207  0.41981  1.0000
  C   C3        1.0  0.62189  0.66822  0.15401  1.0000
  C   C4        1.0  0.37811  0.33178  0.84599  1.0000
  C   C5        1.0  0.74436  0.79933  0.68541  1.0000
  C   C6        1.0  0.25564  0.20067  0.31459  1.0000
  C   C7        1.0  0.69437  0.24293  0.54371  1.0000
  C   C8        1.0  0.30564  0.75707  0.45629  1.0000
  C   C9        1.0  0.19366  0.75698  0.01942  1.0000
  C   C10       1.0  0.80634  0.24302  0.98058  1.0000
  C   C11       1.0  0.31541  0.54209  0.93633  1.0000
  C   C12       1.0  0.68458  0.45791  0.06367  1.0000
  C   C13       1.0  0.35881  0.62766  0.01007  1.0000
  C   C14       1.0  0.64118  0.37234  0.98993  1.0000
  C   C15       1.0  0.54861  0.58527  0.07461  1.0000
  C   C16       1.0  0.45138  0.41473  0.92539  1.0000
  C   C17       1.0  0.75771  0.04582  0.43029  1.0000
  C   C18       1.0  0.24229  0.95418  0.56972  1.0000
  C   C19       1.0  0.72375  0.07684  0.54954  1.0000
  C   C20       1.0  0.27624  0.92316  0.45046  1.0000
  C   C21       1.0  0.77607  0.76766  0.56620  1.0000
  C   C22       1.0  0.22393  0.23233  0.43380  1.0000
  N   N1        1.0  0.71986  0.94988  0.67771  1.0000
  N   N2        1.0  0.28014  0.05012  0.32229  1.0000
  N   N3        1.0  0.78481  0.89411  0.43797  1.0000
  N   N4        1.0  0.21519  0.10589  0.56203  1.0000
  O   O1        1.0  0.16302  0.76874  0.13650  1.0000
  O   O2        1.0  0.83698  0.23126  0.86350  1.0000
  O   O3        1.0  0.09716  0.83854  0.91186  1.0000
  O   O4        1.0  0.90285  0.16146  0.08814  1.0000
  O   O5        1.0  0.69499  0.58034  0.26847  1.0000
  O   O6        1.0  0.30502  0.41966  0.73153  1.0000
  O   O7        1.0  0.61805  0.82494  0.09888  1.0000
  O   O8        1.0  0.38196  0.17506  0.90112  1.0000
