data_image0
_chemical_formula_structural       Ag4H24C28N4O8
_chemical_formula_sum              "Ag4 H24 C28 N4 O8"
_cell_length_a       7.04523
_cell_length_b       9.26058
_cell_length_c       11.9378
_cell_angle_alpha    67.1415
_cell_angle_beta     83.5819
_cell_angle_gamma    73.3208

_space_group_name_H-M_alt    "P 1"
_space_group_IT_number       1

loop_
  _space_group_symop_operation_xyz
  'x, y, z'

loop_
  _atom_site_type_symbol
  _atom_site_label
  _atom_site_symmetry_multiplicity
  _atom_site_fract_x
  _atom_site_fract_y
  _atom_site_fract_z
  _atom_site_occupancy
  Ag  Ag1       1.0  0.80358  0.09484  0.45350  1.0000
  Ag  Ag2       1.0  0.69608  0.45157  0.45350  1.0000
  Ag  Ag3       1.0  0.19642  0.90516  0.54650  1.0000
  Ag  Ag4       1.0  0.30392  0.54843  0.54651  1.0000
  H   H1        1.0  0.98820  0.76459  0.95824  1.0000
  H   H2        1.0  0.51233  0.27634  0.95872  1.0000
  H   H3        1.0  0.01179  0.23541  0.04176  1.0000
  H   H4        1.0  0.48767  0.72366  0.04128  1.0000
  H   H5        1.0  0.86669  0.79328  0.15526  1.0000
  H   H6        1.0  0.63444  0.05020  0.15549  1.0000
  H   H7        1.0  0.13331  0.20672  0.84474  1.0000
  H   H8        1.0  0.36556  0.94980  0.84451  1.0000
  H   H9        1.0  0.43770  0.14072  0.61462  1.0000
  H   H10       1.0  0.06211  0.24509  0.61461  1.0000
  H   H11       1.0  0.56230  0.85929  0.38538  1.0000
  H   H12       1.0  0.93789  0.75491  0.38539  1.0000
  H   H13       1.0  0.40860  0.29208  0.14658  1.0000
  H   H14       1.0  0.09182  0.56108  0.14649  1.0000
  H   H15       1.0  0.59141  0.70791  0.85342  1.0000
  H   H16       1.0  0.90818  0.43891  0.85351  1.0000
  H   H17       1.0  0.62497  0.27724  0.22024  1.0000
  H   H18       1.0  0.87537  0.50219  0.22017  1.0000
  H   H19       1.0  0.37503  0.72276  0.77976  1.0000
  H   H20       1.0  0.12464  0.49780  0.77984  1.0000
  H   H21       1.0  0.44813  0.46892  0.15308  1.0000
  H   H22       1.0  0.05239  0.37766  0.15312  1.0000
  H   H23       1.0  0.55187  0.53108  0.84692  1.0000
  H   H24       1.0  0.94762  0.62234  0.84688  1.0000
  C   C1        1.0  0.88490  0.97799  0.73213  1.0000
  C   C2        1.0  0.61519  0.28968  0.73220  1.0000
  C   C3        1.0  0.11510  0.02201  0.26787  1.0000
  C   C4        1.0  0.38481  0.71032  0.26780  1.0000
  C   C5        1.0  0.88236  0.87594  0.95959  1.0000
  C   C6        1.0  0.61805  0.16369  0.95986  1.0000
  C   C7        1.0  0.11763  0.12406  0.04041  1.0000
  C   C8        1.0  0.38195  0.83631  0.04014  1.0000
  C   C9        1.0  0.81633  0.89247  0.06938  1.0000
  C   C10       1.0  0.68445  0.03712  0.06952  1.0000
  C   C11       1.0  0.18367  0.10753  0.93062  1.0000
  C   C12       1.0  0.31555  0.96288  0.93048  1.0000
  C   C13       1.0  0.81663  0.00240  0.84872  1.0000
  C   C14       1.0  0.68349  0.14858  0.84884  1.0000
  C   C15       1.0  0.18337  0.99760  0.15128  1.0000
  C   C16       1.0  0.31650  0.85142  0.15116  1.0000
  C   C17       1.0  0.35240  0.20623  0.53072  1.0000
  C   C18       1.0  0.14751  0.26325  0.53072  1.0000
  C   C19       1.0  0.64760  0.79377  0.46928  1.0000
  C   C20       1.0  0.85249  0.73675  0.46928  1.0000
  C   C21       1.0  0.35502  0.31032  0.32093  1.0000
  C   C22       1.0  0.14520  0.36850  0.32091  1.0000
  C   C23       1.0  0.64498  0.68968  0.67907  1.0000
  C   C24       1.0  0.85481  0.63150  0.67909  1.0000
  C   C25       1.0  0.46675  0.33801  0.20406  1.0000
  C   C26       1.0  0.03362  0.45763  0.20402  1.0000
  C   C27       1.0  0.53326  0.66199  0.79594  1.0000
  C   C28       1.0  0.96638  0.54237  0.79598  1.0000
  N   N1        1.0  0.45571  0.22992  0.42591  1.0000
  N   N2        1.0  0.04433  0.34421  0.42588  1.0000
  N   N3        1.0  0.54429  0.77008  0.57409  1.0000
  N   N4        1.0  0.95567  0.65578  0.57412  1.0000
  O   O1        1.0  0.75183  0.01609  0.65415  1.0000
  O   O2        1.0  0.74821  0.32962  0.65410  1.0000
  O   O3        1.0  0.24817  0.98390  0.34585  1.0000
  O   O4        1.0  0.25179  0.67038  0.34590  1.0000
  O   O5        1.0  0.07001  0.91799  0.72199  1.0000
  O   O6        1.0  0.42999  0.35958  0.72201  1.0000
  O   O7        1.0  0.92999  0.08201  0.27801  1.0000
  O   O8        1.0  0.57001  0.64042  0.27799  1.0000
