data_image0
_chemical_formula_structural       Ni2H28C42N4O14
_chemical_formula_sum              "Ni2 H28 C42 N4 O14"
_cell_length_a       8.97728
_cell_length_b       10.6677
_cell_length_c       11.1039
_cell_angle_alpha    94.2414
_cell_angle_beta     112.901
_cell_angle_gamma    102.826

_space_group_name_H-M_alt    "P 1"
_space_group_IT_number       1

loop_
  _space_group_symop_operation_xyz
  'x, y, z'

loop_
  _atom_site_type_symbol
  _atom_site_label
  _atom_site_symmetry_multiplicity
  _atom_site_fract_x
  _atom_site_fract_y
  _atom_site_fract_z
  _atom_site_occupancy
  Ni  Ni1       1.0  0.63957  0.98348  0.66115  1.0000
  Ni  Ni2       1.0  0.36043  0.01652  0.33886  1.0000
  H   H1        1.0  0.99820  0.27864  0.63412  1.0000
  H   H2        1.0  0.00180  0.72134  0.36591  1.0000
  H   H3        1.0  0.40598  0.63407  0.69340  1.0000
  H   H4        1.0  0.59402  0.36592  0.30659  1.0000
  H   H5        1.0  0.36900  0.22366  0.62437  1.0000
  H   H6        1.0  0.63100  0.77632  0.37564  1.0000
  H   H7        1.0  0.80547  0.50773  0.64430  1.0000
  H   H8        1.0  0.19453  0.49227  0.35571  1.0000
  H   H9        1.0  0.28653  0.83067  0.59173  1.0000
  H   H10       1.0  0.71348  0.16930  0.40828  1.0000
  H   H11       1.0  0.08156  0.83582  0.69154  1.0000
  H   H12       1.0  0.91845  0.16417  0.30846  1.0000
  H   H13       1.0  0.15822  0.01159  0.88486  1.0000
  H   H14       1.0  0.84177  0.98842  0.11512  1.0000
  H   H15       1.0  0.37927  0.20988  0.05230  1.0000
  H   H16       1.0  0.62071  0.79013  0.94770  1.0000
  H   H17       1.0  0.66853  0.35872  0.14187  1.0000
  H   H18       1.0  0.33144  0.64131  0.85811  1.0000
  H   H19       1.0  0.95375  0.41924  0.14062  1.0000
  H   H20       1.0  0.04624  0.58078  0.85938  1.0000
  H   H21       1.0  0.14758  0.36729  0.04195  1.0000
  H   H22       1.0  0.85242  0.63274  0.95805  1.0000
  H   H23       1.0  0.03778  0.17780  0.85613  1.0000
  H   H24       1.0  0.96223  0.82221  0.14389  1.0000
  H   H25       1.0  0.83945  0.89163  0.61676  1.0000
  H   H26       1.0  0.16056  0.10836  0.38325  1.0000
  H   H27       1.0  0.90322  0.04997  0.62059  1.0000
  H   H28       1.0  0.09679  0.95003  0.37943  1.0000
  C   C1        1.0  0.61805  0.58691  0.67481  1.0000
  C   C2        1.0  0.38194  0.41308  0.32518  1.0000
  C   C3        1.0  0.46156  0.55612  0.68069  1.0000
  C   C4        1.0  0.53843  0.44387  0.31928  1.0000
  C   C5        1.0  0.37128  0.42642  0.66392  1.0000
  C   C6        1.0  0.62872  0.57356  0.33608  1.0000
  C   C7        1.0  0.43875  0.32546  0.64090  1.0000
  C   C8        1.0  0.56125  0.67452  0.35910  1.0000
  C   C9        1.0  0.59590  0.35556  0.63540  1.0000
  C   C10       1.0  0.40410  0.64445  0.36460  1.0000
  C   C11       1.0  0.68538  0.48607  0.65217  1.0000
  C   C12       1.0  0.31462  0.51393  0.34783  1.0000
  C   C13       1.0  0.70261  0.72679  0.68084  1.0000
  C   C14       1.0  0.29739  0.27320  0.31916  1.0000
  C   C15       1.0  0.20228  0.40462  0.66582  1.0000
  C   C16       1.0  0.79773  0.59538  0.33419  1.0000
  C   C17       1.0  0.66993  0.24872  0.61053  1.0000
  C   C18       1.0  0.33007  0.75129  0.38947  1.0000
  C   C19       1.0  0.31887  0.90293  0.67879  1.0000
  C   C20       1.0  0.68114  0.09707  0.32121  1.0000
  C   C21       1.0  0.20295  0.90881  0.73344  1.0000
  C   C22       1.0  0.79705  0.09119  0.26655  1.0000
  C   C23       1.0  0.24613  0.00578  0.84037  1.0000
  C   C24       1.0  0.75387  0.99421  0.15963  1.0000
  C   C25       1.0  0.40750  0.09544  0.89553  1.0000
  C   C26       1.0  0.59249  0.90457  0.10446  1.0000
  C   C27       1.0  0.46440  0.19906  0.00628  1.0000
  C   C28       1.0  0.53560  0.80096  0.99371  1.0000
  C   C29       1.0  0.62381  0.28059  0.05671  1.0000
  C   C30       1.0  0.37617  0.71943  0.94327  1.0000
  C   C31       1.0  0.74178  0.26166  0.00444  1.0000
  C   C32       1.0  0.25820  0.73836  0.99554  1.0000
  C   C33       1.0  0.91041  0.33903  0.05751  1.0000
  C   C34       1.0  0.08957  0.66100  0.94248  1.0000
  C   C35       1.0  0.01686  0.30964  0.00377  1.0000
  C   C36       1.0  0.98314  0.69038  0.99624  1.0000
  C   C37       1.0  0.95547  0.20248  0.89948  1.0000
  C   C38       1.0  0.04452  0.79753  0.10054  1.0000
  C   C39       1.0  0.69095  0.15751  0.89739  1.0000
  C   C40       1.0  0.30905  0.84250  0.10260  1.0000
  C   C41       1.0  0.52003  0.07781  0.83883  1.0000
  C   C42       1.0  0.47996  0.92220  0.16117  1.0000
  N   N1        1.0  0.47249  0.98494  0.73056  1.0000
  N   N2        1.0  0.52751  0.01506  0.26945  1.0000
  N   N3        1.0  0.79767  0.12743  0.84774  1.0000
  N   N4        1.0  0.20234  0.87258  0.15226  1.0000
  O   O1        1.0  0.63262  0.81031  0.70994  1.0000
  O   O2        1.0  0.36738  0.18968  0.29006  1.0000
  O   O3        1.0  0.80539  0.97428  0.58649  1.0000
  O   O4        1.0  0.19463  0.02571  0.41352  1.0000
  O   O5        1.0  0.57139  0.13141  0.57572  1.0000
  O   O6        1.0  0.42860  0.86859  0.42429  1.0000
  O   O7        1.0  0.82925  0.75419  0.65367  1.0000
  O   O8        1.0  0.17076  0.24581  0.34633  1.0000
  O   O9        1.0  0.82058  0.27867  0.62594  1.0000
  O   O10       1.0  0.17943  0.72134  0.37409  1.0000
  O   O11       1.0  0.11313  0.27880  0.63799  1.0000
  O   O12       1.0  0.88689  0.72117  0.36204  1.0000
  O   O13       1.0  0.14899  0.49567  0.69071  1.0000
  O   O14       1.0  0.85101  0.50432  0.30928  1.0000
