data_image0
_chemical_formula_structural       Co2H20C26N4O14
_chemical_formula_sum              "Co2 H20 C26 N4 O14"
_cell_length_a       7.07707
_cell_length_b       8.89868
_cell_length_c       10.4007
_cell_angle_alpha    79.4811
_cell_angle_beta     87.8435
_cell_angle_gamma    80.7675

_space_group_name_H-M_alt    "P 1"
_space_group_IT_number       1

loop_
  _space_group_symop_operation_xyz
  'x, y, z'

loop_
  _atom_site_type_symbol
  _atom_site_label
  _atom_site_symmetry_multiplicity
  _atom_site_fract_x
  _atom_site_fract_y
  _atom_site_fract_z
  _atom_site_occupancy
  Co  Co1       1.0  0.22139  0.26808  0.43326  1.0000
  Co  Co2       1.0  0.77862  0.73192  0.56674  1.0000
  H   H1        1.0  0.23317  0.55662  0.28847  1.0000
  H   H2        1.0  0.76683  0.44338  0.71153  1.0000
  H   H3        1.0  0.03926  0.56209  0.36616  1.0000
  H   H4        1.0  0.96074  0.43791  0.63384  1.0000
  H   H5        1.0  0.31790  0.50853  0.11916  1.0000
  H   H6        1.0  0.68209  0.49146  0.88084  1.0000
  H   H7        1.0  0.26030  0.31678  0.90039  1.0000
  H   H8        1.0  0.73969  0.68322  0.09961  1.0000
  H   H9        1.0  0.20200  0.88553  0.78355  1.0000
  H   H10       1.0  0.79800  0.11446  0.21646  1.0000
  H   H11       1.0  0.27471  0.90256  0.18891  1.0000
  H   H12       1.0  0.72528  0.09743  0.81110  1.0000
  H   H13       1.0  0.88173  0.42054  0.26336  1.0000
  H   H14       1.0  0.11827  0.57946  0.73664  1.0000
  H   H15       1.0  0.53089  0.43464  0.26804  1.0000
  H   H16       1.0  0.46910  0.56537  0.73195  1.0000
  H   H17       1.0  0.57169  0.09564  0.60382  1.0000
  H   H18       1.0  0.42832  0.90437  0.39618  1.0000
  H   H19       1.0  0.92313  0.08926  0.60411  1.0000
  H   H20       1.0  0.07688  0.91075  0.39589  1.0000
  C   C1        1.0  0.26722  0.11911  0.05483  1.0000
  C   C2        1.0  0.73278  0.88088  0.94517  1.0000
  C   C3        1.0  0.25226  0.19354  0.92374  1.0000
  C   C4        1.0  0.74773  0.80646  0.07627  1.0000
  C   C5        1.0  0.22993  0.10952  0.82544  1.0000
  C   C6        1.0  0.77006  0.89048  0.17457  1.0000
  C   C7        1.0  0.22085  0.95143  0.85909  1.0000
  C   C8        1.0  0.77915  0.04856  0.14091  1.0000
  C   C9        1.0  0.23696  0.87606  0.98916  1.0000
  C   C10       1.0  0.76305  0.12393  0.01084  1.0000
  C   C11       1.0  0.26095  0.96019  0.08725  1.0000
  C   C12       1.0  0.73904  0.03980  0.91276  1.0000
  C   C13       1.0  0.29093  0.21519  0.15661  1.0000
  C   C14       1.0  0.70907  0.78481  0.84339  1.0000
  C   C15       1.0  0.22030  0.18167  0.68464  1.0000
  C   C16       1.0  0.77970  0.81833  0.31536  1.0000
  C   C17       1.0  0.22888  0.70690  0.01290  1.0000
  C   C18       1.0  0.77113  0.29309  0.98710  1.0000
  C   C19       1.0  0.81348  0.35182  0.34307  1.0000
  C   C20       1.0  0.18652  0.64818  0.65693  1.0000
  C   C21       1.0  0.61578  0.35881  0.34564  1.0000
  C   C22       1.0  0.38422  0.64120  0.65435  1.0000
  C   C23       1.0  0.63878  0.17419  0.53050  1.0000
  C   C24       1.0  0.36121  0.82582  0.46949  1.0000
  C   C25       1.0  0.83561  0.16965  0.52983  1.0000
  C   C26       1.0  0.16439  0.83036  0.47017  1.0000
  N   N1        1.0  0.92502  0.25924  0.43643  1.0000
  N   N2        1.0  0.07498  0.74076  0.56357  1.0000
  N   N3        1.0  0.52570  0.27015  0.43894  1.0000
  N   N4        1.0  0.47430  0.72986  0.56106  1.0000
  O   O1        1.0  0.24746  0.16216  0.27552  1.0000
  O   O2        1.0  0.75254  0.83784  0.72449  1.0000
  O   O3        1.0  0.17257  0.50393  0.36701  1.0000
  O   O4        1.0  0.82744  0.49608  0.63299  1.0000
  O   O5        1.0  0.26182  0.09384  0.59933  1.0000
  O   O6        1.0  0.73819  0.90615  0.40067  1.0000
  O   O7        1.0  0.17457  0.32748  0.64633  1.0000
  O   O8        1.0  0.82543  0.67252  0.35367  1.0000
  O   O9        1.0  0.35329  0.34085  0.11718  1.0000
  O   O10       1.0  0.64671  0.65915  0.88283  1.0000
  O   O11       1.0  0.31100  0.62505  0.12465  1.0000
  O   O12       1.0  0.68899  0.37495  0.87535  1.0000
  O   O13       1.0  0.15706  0.64527  0.93480  1.0000
  O   O14       1.0  0.84296  0.35472  0.06519  1.0000
