data_image0
_chemical_formula_structural       Ga2H16C8Cl6O4
_chemical_formula_sum              "Ga2 H16 C8 Cl6 O4"
_cell_length_a       6.33917
_cell_length_b       6.46337
_cell_length_c       12.4893
_cell_angle_alpha    103.155
_cell_angle_beta     90.0011
_cell_angle_gamma    119.368

_space_group_name_H-M_alt    "P 1"
_space_group_IT_number       1

loop_
  _space_group_symop_operation_xyz
  'x, y, z'

loop_
  _atom_site_type_symbol
  _atom_site_label
  _atom_site_symmetry_multiplicity
  _atom_site_fract_x
  _atom_site_fract_y
  _atom_site_fract_z
  _atom_site_occupancy
  Ga  Ga1       1.0  0.78468  0.00000  0.75000  1.0000
  Ga  Ga2       1.0  0.21533  0.00000  0.25000  1.0000
  H   H1        1.0  0.93191  0.78754  0.53261  1.0000
  H   H2        1.0  0.85565  0.78755  0.03259  1.0000
  H   H3        1.0  0.06807  0.21244  0.46739  1.0000
  H   H4        1.0  0.14434  0.21245  0.96741  1.0000
  H   H5        1.0  0.69938  0.81419  0.46461  1.0000
  H   H6        1.0  0.11480  0.81416  0.96461  1.0000
  H   H7        1.0  0.30061  0.18582  0.53539  1.0000
  H   H8        1.0  0.88519  0.18585  0.03540  1.0000
  H   H9        1.0  0.31142  0.66804  0.53484  1.0000
  H   H10       1.0  0.35663  0.66804  0.03486  1.0000
  H   H11       1.0  0.68857  0.33197  0.46515  1.0000
  H   H12       1.0  0.64336  0.33195  0.96514  1.0000
  H   H13       1.0  0.26897  0.53329  0.64974  1.0000
  H   H14       1.0  0.26430  0.53330  0.14976  1.0000
  H   H15       1.0  0.73101  0.46672  0.35026  1.0000
  H   H16       1.0  0.73572  0.46671  0.85024  1.0000
  C   C1        1.0  0.73607  0.69820  0.50491  1.0000
  C   C2        1.0  0.96217  0.69823  0.00492  1.0000
  C   C3        1.0  0.26394  0.30180  0.49507  1.0000
  C   C4        1.0  0.03784  0.30177  0.99509  1.0000
  C   C5        1.0  0.35245  0.55210  0.57316  1.0000
  C   C6        1.0  0.19968  0.55215  0.07318  1.0000
  C   C7        1.0  0.64751  0.44782  0.42682  1.0000
  C   C8        1.0  0.80035  0.44791  0.92684  1.0000
  Cl  Cl1       1.0  0.73053  0.21593  0.65280  1.0000
  Cl  Cl2       1.0  0.48544  0.21595  0.15281  1.0000
  Cl  Cl3       1.0  0.26949  0.78406  0.34719  1.0000
  Cl  Cl4       1.0  0.51458  0.78405  0.84719  1.0000
  Cl  Cl5       1.0  0.12790  0.00001  0.75000  1.0000
  Cl  Cl6       1.0  0.87211  0.99999  0.24999  1.0000
  O   O1        1.0  0.61527  0.67501  0.60418  1.0000
  O   O2        1.0  0.05971  0.67503  0.10414  1.0000
  O   O3        1.0  0.38474  0.32500  0.39585  1.0000
  O   O4        1.0  0.94029  0.32497  0.89584  1.0000
