data_image0
_chemical_formula_structural       K2H30C32S4O8
_chemical_formula_sum              "K2 H30 C32 S4 O8"
_cell_length_a       6.08078
_cell_length_b       7.09229
_cell_length_c       18.619
_cell_angle_alpha    98.0212
_cell_angle_beta     93.7711
_cell_angle_gamma    96.2972

_space_group_name_H-M_alt    "P 1"
_space_group_IT_number       1

loop_
  _space_group_symop_operation_xyz
  'x, y, z'

loop_
  _atom_site_type_symbol
  _atom_site_label
  _atom_site_symmetry_multiplicity
  _atom_site_fract_x
  _atom_site_fract_y
  _atom_site_fract_z
  _atom_site_occupancy
  K   K1        1.0  0.78479  0.70712  0.97687  1.0000
  K   K2        1.0  0.21523  0.29289  0.02313  1.0000
  H   H1        1.0  0.70763  0.16251  0.22945  1.0000
  H   H2        1.0  0.29237  0.83750  0.77055  1.0000
  H   H3        1.0  0.65172  0.23539  0.35917  1.0000
  H   H4        1.0  0.34827  0.76461  0.64082  1.0000
  H   H5        1.0  0.92993  0.16231  0.45349  1.0000
  H   H6        1.0  0.07005  0.83768  0.54651  1.0000
  H   H7        1.0  0.26364  0.01074  0.41355  1.0000
  H   H8        1.0  0.73634  0.98926  0.58645  1.0000
  H   H9        1.0  0.32425  0.94275  0.28473  1.0000
  H   H10       1.0  0.67574  0.05724  0.71527  1.0000
  H   H11       1.0  0.43440  0.98276  0.17047  1.0000
  H   H12       1.0  0.56561  0.01724  0.82953  1.0000
  H   H13       1.0  0.27249  0.76077  0.17809  1.0000
  H   H14       1.0  0.72751  0.23924  0.82191  1.0000
  H   H15       1.0  0.86983  0.56732  0.67655  1.0000
  H   H16       1.0  0.13016  0.43268  0.32345  1.0000
  H   H17       1.0  0.87623  0.44756  0.54639  1.0000
  H   H18       1.0  0.12378  0.55244  0.45361  1.0000
  H   H19       1.0  0.54005  0.25294  0.47684  1.0000
  H   H20       1.0  0.45996  0.74706  0.52316  1.0000
  H   H21       1.0  0.20587  0.17390  0.54241  1.0000
  H   H22       1.0  0.79413  0.82608  0.45759  1.0000
  H   H23       1.0  0.19868  0.28586  0.67216  1.0000
  H   H24       1.0  0.80133  0.71413  0.32784  1.0000
  H   H25       1.0  0.25966  0.30485  0.80638  1.0000
  H   H26       1.0  0.74034  0.69515  0.19363  1.0000
  H   H27       1.0  0.14949  0.48779  0.76360  1.0000
  H   H28       1.0  0.85050  0.51220  0.23640  1.0000
  H   H29       1.0  0.29984  0.79544  0.95219  1.0000
  H   H30       1.0  0.70017  0.20457  0.04781  1.0000
  C   C1        1.0  0.02044  0.04825  0.24699  1.0000
  C   C2        1.0  0.97956  0.95175  0.75301  1.0000
  C   C3        1.0  0.83082  0.12977  0.26972  1.0000
  C   C4        1.0  0.16918  0.87024  0.73028  1.0000
  C   C5        1.0  0.79942  0.17095  0.34338  1.0000
  C   C6        1.0  0.20057  0.82905  0.65662  1.0000
  C   C7        1.0  0.95532  0.13028  0.39589  1.0000
  C   C8        1.0  0.04466  0.86971  0.60411  1.0000
  C   C9        1.0  0.14174  0.04704  0.37368  1.0000
  C   C10       1.0  0.85825  0.95296  0.62631  1.0000
  C   C11       1.0  0.17604  0.00645  0.29989  1.0000
  C   C12       1.0  0.82395  0.99355  0.70011  1.0000
  C   C13       1.0  0.28732  0.88268  0.14756  1.0000
  C   C14       1.0  0.71269  0.11732  0.85244  1.0000
  C   C15       1.0  0.32771  0.80564  0.06991  1.0000
  C   C16       1.0  0.67231  0.19437  0.93009  1.0000
  C   C17       1.0  0.53392  0.43747  0.68408  1.0000
  C   C18       1.0  0.46608  0.56253  0.31592  1.0000
  C   C19       1.0  0.72479  0.47841  0.64743  1.0000
  C   C20       1.0  0.27521  0.52159  0.35257  1.0000
  C   C21       1.0  0.72762  0.41094  0.57372  1.0000
  C   C22       1.0  0.27238  0.58905  0.42628  1.0000
  C   C23       1.0  0.54087  0.30173  0.53497  1.0000
  C   C24       1.0  0.45914  0.69826  0.46502  1.0000
  C   C25       1.0  0.35289  0.25933  0.57144  1.0000
  C   C26       1.0  0.64712  0.74067  0.42855  1.0000
  C   C27       1.0  0.34789  0.32455  0.64562  1.0000
  C   C28       1.0  0.65211  0.67544  0.35438  1.0000
  C   C29       1.0  0.27926  0.45917  0.80349  1.0000
  C   C30       1.0  0.72074  0.54082  0.19651  1.0000
  C   C31       1.0  0.23077  0.56274  0.87657  1.0000
  C   C32       1.0  0.76924  0.43727  0.12343  1.0000
  S   S1        1.0  0.04322  0.00531  0.15255  1.0000
  S   S2        1.0  0.95679  0.99470  0.84745  1.0000
  S   S3        1.0  0.54885  0.54092  0.77623  1.0000
  S   S4        1.0  0.45114  0.45908  0.22376  1.0000
  O   O1        1.0  0.44609  0.67210  0.06106  1.0000
  O   O2        1.0  0.55393  0.32790  0.93894  1.0000
  O   O3        1.0  0.24216  0.88534  0.01776  1.0000
  O   O4        1.0  0.75787  0.11467  0.98225  1.0000
  O   O5        1.0  0.07757  0.49342  0.90913  1.0000
  O   O6        1.0  0.92242  0.50659  0.09087  1.0000
  O   O7        1.0  0.35229  0.72827  0.89955  1.0000
  O   O8        1.0  0.64772  0.27173  0.10045  1.0000
