data_image0
_chemical_formula_structural       Zn2H20C24Br4N4O4
_chemical_formula_sum              "Zn2 H20 C24 Br4 N4 O4"
_cell_length_a       8.10399
_cell_length_b       11.4528
_cell_length_c       10.6199
_cell_angle_alpha    122.638
_cell_angle_beta     88.3929
_cell_angle_gamma    89.9951

_space_group_name_H-M_alt    "P 1"
_space_group_IT_number       1

loop_
  _space_group_symop_operation_xyz
  'x, y, z'

loop_
  _atom_site_type_symbol
  _atom_site_label
  _atom_site_symmetry_multiplicity
  _atom_site_fract_x
  _atom_site_fract_y
  _atom_site_fract_z
  _atom_site_occupancy
  Zn  Zn1       1.0  0.98165  0.46795  0.52540  1.0000
  Zn  Zn2       1.0  0.48173  0.05685  0.52491  1.0000
  H   H1        1.0  0.82639  0.37762  0.22735  1.0000
  H   H2        1.0  0.32573  0.84968  0.22710  1.0000
  H   H3        1.0  0.70244  0.16619  0.01584  1.0000
  H   H4        1.0  0.20193  0.84996  0.01578  1.0000
  H   H5        1.0  0.97064  0.16921  0.42613  1.0000
  H   H6        1.0  0.47056  0.25674  0.42633  1.0000
  H   H7        1.0  0.85552  0.94869  0.22597  1.0000
  H   H8        1.0  0.35556  0.27754  0.22638  1.0000
  H   H9        1.0  0.68581  0.79434  0.09073  1.0000
  H   H10       1.0  0.18585  0.29657  0.09049  1.0000
  H   H11       1.0  0.56478  0.58371  0.87383  1.0000
  H   H12       1.0  0.06489  0.29006  0.87346  1.0000
  H   H13       1.0  0.67450  0.98170  0.82662  1.0000
  H   H14       1.0  0.17485  0.84508  0.82664  1.0000
  H   H15       1.0  0.54963  0.76827  0.62716  1.0000
  H   H16       1.0  0.05022  0.85879  0.62704  1.0000
  H   H17       1.0  0.52323  0.45640  0.62609  1.0000
  H   H18       1.0  0.02329  0.16949  0.62575  1.0000
  H   H19       1.0  0.53274  0.53232  0.51615  1.0000
  H   H20       1.0  0.03314  0.98362  0.51583  1.0000
  C   C1        1.0  0.83049  0.27892  0.22031  1.0000
  C   C2        1.0  0.33004  0.94138  0.22017  1.0000
  C   C3        1.0  0.76074  0.16033  0.10352  1.0000
  C   C4        1.0  0.26038  0.94340  0.10350  1.0000
  C   C5        1.0  0.91196  0.16283  0.33179  1.0000
  C   C6        1.0  0.41186  0.16889  0.33188  1.0000
  C   C7        1.0  0.84573  0.03965  0.21882  1.0000
  C   C8        1.0  0.34572  0.17934  0.21904  1.0000
  C   C9        1.0  0.76721  0.03627  0.10097  1.0000
  C   C10       1.0  0.26718  0.06495  0.10107  1.0000
  C   C11       1.0  0.69307  0.90839  0.97891  1.0000
  C   C12       1.0  0.19329  0.07073  0.97892  1.0000
  C   C13       1.0  0.66048  0.79365  0.99020  1.0000
  C   C14       1.0  0.16062  0.19667  0.99002  1.0000
  C   C15       1.0  0.59291  0.67561  0.87193  1.0000
  C   C16       1.0  0.09312  0.19631  0.87164  1.0000
  C   C17       1.0  0.65159  0.89888  0.84635  1.0000
  C   C18       1.0  0.15198  0.94761  0.84630  1.0000
  C   C19       1.0  0.58469  0.77895  0.73120  1.0000
  C   C20       1.0  0.08520  0.95224  0.73104  1.0000
  C   C21       1.0  0.48437  0.54557  0.62073  1.0000
  C   C22       1.0  0.98463  0.07493  0.62041  1.0000
  C   C23       1.0  0.29439  0.55577  0.62990  1.0000
  C   C24       1.0  0.79464  0.07368  0.62959  1.0000
  Br  Br1       1.0  0.88069  0.43554  0.71799  1.0000
  Br  Br2       1.0  0.38046  0.28187  0.71736  1.0000
  Br  Br3       1.0  0.87804  0.63345  0.47304  1.0000
  Br  Br4       1.0  0.37779  0.83878  0.47170  1.0000
  N   N1        1.0  0.90501  0.28085  0.33333  1.0000
  N   N2        1.0  0.40481  0.05231  0.33320  1.0000
  N   N3        1.0  0.55725  0.66984  0.74491  1.0000
  N   N4        1.0  0.05761  0.07500  0.74463  1.0000
  O   O1        1.0  0.22830  0.46088  0.50830  1.0000
  O   O2        1.0  0.72842  0.04706  0.50808  1.0000
  O   O3        1.0  0.22216  0.64776  0.74700  1.0000
  O   O4        1.0  0.72254  0.09859  0.74665  1.0000
