data_image0
_chemical_formula_structural       Cu2H20C30N12O2
_chemical_formula_sum              "Cu2 H20 C30 N12 O2"
_cell_length_a       7.70626
_cell_length_b       9.19899
_cell_length_c       10.0619
_cell_angle_alpha    88.1629
_cell_angle_beta     77.7709
_cell_angle_gamma    86.5881

_space_group_name_H-M_alt    "P 1"
_space_group_IT_number       1

loop_
  _space_group_symop_operation_xyz
  'x, y, z'

loop_
  _atom_site_type_symbol
  _atom_site_label
  _atom_site_symmetry_multiplicity
  _atom_site_fract_x
  _atom_site_fract_y
  _atom_site_fract_z
  _atom_site_occupancy
  Cu  Cu1       1.0  0.60822  0.70809  0.53792  1.0000
  Cu  Cu2       1.0  0.39178  0.29192  0.46208  1.0000
  H   H1        1.0  0.91119  0.20073  0.64674  1.0000
  H   H2        1.0  0.08879  0.79926  0.35326  1.0000
  H   H3        1.0  0.95741  0.03407  0.83612  1.0000
  H   H4        1.0  0.04258  0.96593  0.16388  1.0000
  H   H5        1.0  0.83557  0.10412  0.07659  1.0000
  H   H6        1.0  0.16444  0.89588  0.92341  1.0000
  H   H7        1.0  0.66302  0.34129  0.12692  1.0000
  H   H8        1.0  0.33698  0.65872  0.87309  1.0000
  H   H9        1.0  0.62268  0.50931  0.93422  1.0000
  H   H10       1.0  0.37732  0.49069  0.06579  1.0000
  H   H11       1.0  0.89341  0.45173  0.27320  1.0000
  H   H12       1.0  0.10658  0.54827  0.72680  1.0000
  H   H13       1.0  0.45360  0.94128  0.35714  1.0000
  H   H14       1.0  0.54640  0.05873  0.64286  1.0000
  H   H15       1.0  0.50675  0.99067  0.10721  1.0000
  H   H16       1.0  0.49325  0.00933  0.89278  1.0000
  H   H17       1.0  0.71368  0.81705  0.94918  1.0000
  H   H18       1.0  0.28632  0.18295  0.05081  1.0000
  H   H19       1.0  0.85947  0.60359  0.05091  1.0000
  H   H20       1.0  0.14054  0.39640  0.94909  1.0000
  C   C1        1.0  0.72611  0.46752  0.67091  1.0000
  C   C2        1.0  0.27389  0.53248  0.32910  1.0000
  C   C3        1.0  0.76211  0.36545  0.77969  1.0000
  C   C4        1.0  0.23788  0.63455  0.22031  1.0000
  C   C5        1.0  0.85723  0.23095  0.75177  1.0000
  C   C6        1.0  0.14275  0.76905  0.24823  1.0000
  C   C7        1.0  0.88300  0.13793  0.85875  1.0000
  C   C8        1.0  0.11699  0.86206  0.14125  1.0000
  C   C9        1.0  0.81477  0.17736  0.99355  1.0000
  C   C10       1.0  0.18523  0.82264  0.00646  1.0000
  C   C11       1.0  0.72022  0.31099  0.02214  1.0000
  C   C12       1.0  0.27979  0.68901  0.97786  1.0000
  C   C13       1.0  0.69528  0.40445  0.91523  1.0000
  C   C14       1.0  0.30472  0.59556  0.08477  1.0000
  C   C15       1.0  0.80535  0.53848  0.32627  1.0000
  C   C16       1.0  0.19464  0.46152  0.67374  1.0000
  C   C17       1.0  0.73127  0.65862  0.25611  1.0000
  C   C18       1.0  0.26873  0.34138  0.74390  1.0000
  C   C19       1.0  0.54197  0.86919  0.28579  1.0000
  C   C20       1.0  0.45802  0.13081  0.71421  1.0000
  C   C21       1.0  0.57255  0.89551  0.14558  1.0000
  C   C22       1.0  0.42744  0.10449  0.85441  1.0000
  C   C23       1.0  0.68655  0.79934  0.05921  1.0000
  C   C24       1.0  0.31346  0.20065  0.94079  1.0000
  C   C25       1.0  0.76758  0.67972  0.11499  1.0000
  C   C26       1.0  0.23242  0.32028  0.88501  1.0000
  C   C27       1.0  0.22705  0.82561  0.63650  1.0000
  C   C28       1.0  0.77296  0.17440  0.36350  1.0000
  C   C29       1.0  0.93016  0.84727  0.62001  1.0000
  C   C30       1.0  0.06985  0.15273  0.37998  1.0000
  N   N1        1.0  0.80514  0.43582  0.54161  1.0000
  N   N2        1.0  0.19486  0.56418  0.45839  1.0000
  N   N3        1.0  0.75690  0.53939  0.45847  1.0000
  N   N4        1.0  0.24310  0.46062  0.54153  1.0000
  N   N5        1.0  0.61930  0.75430  0.33884  1.0000
  N   N6        1.0  0.38069  0.24570  0.66116  1.0000
  N   N7        1.0  0.38374  0.81354  0.61041  1.0000
  N   N8        1.0  0.61627  0.18647  0.38959  1.0000
  N   N9        1.0  0.05875  0.84105  0.68477  1.0000
  N   N10       1.0  0.94126  0.15894  0.31522  1.0000
  N   N11       1.0  0.79976  0.85567  0.57539  1.0000
  N   N12       1.0  0.20024  0.14433  0.42461  1.0000
  O   O1        1.0  0.62099  0.58085  0.70500  1.0000
  O   O2        1.0  0.37901  0.41916  0.29500  1.0000
