data_image0
_chemical_formula_structural       CdH10C8O12
_chemical_formula_sum              "Cd1 H10 C8 O12"
_cell_length_a       5.14603
_cell_length_b       7.57442
_cell_length_c       9.02707
_cell_angle_alpha    66.0397
_cell_angle_beta     77.9892
_cell_angle_gamma    74.2935

_space_group_name_H-M_alt    "P 1"
_space_group_IT_number       1

loop_
  _space_group_symop_operation_xyz
  'x, y, z'

loop_
  _atom_site_type_symbol
  _atom_site_label
  _atom_site_symmetry_multiplicity
  _atom_site_fract_x
  _atom_site_fract_y
  _atom_site_fract_z
  _atom_site_occupancy
  Cd  Cd1       1.0  0.49999  0.50000  1.00000  1.0000
  H   H1        1.0  0.50023  0.49986  0.49997  1.0000
  H   H2        1.0  0.50020  0.99992  0.50001  1.0000
  H   H3        1.0  0.41508  0.10746  0.13512  1.0000
  H   H4        1.0  0.58492  0.89254  0.86488  1.0000
  H   H5        1.0  0.31145  0.19667  0.96125  1.0000
  H   H6        1.0  0.68854  0.80334  0.03876  1.0000
  H   H7        1.0  0.02080  0.73054  0.85150  1.0000
  H   H8        1.0  0.97920  0.26945  0.14850  1.0000
  H   H9        1.0  0.24595  0.67568  0.71409  1.0000
  H   H10       1.0  0.75403  0.32433  0.28590  1.0000
  C   C1        1.0  0.09016  0.67659  0.28994  1.0000
  C   C2        1.0  0.90982  0.32342  0.71007  1.0000
  C   C3        1.0  0.12859  0.69806  0.43784  1.0000
  C   C4        1.0  0.87138  0.30196  0.56220  1.0000
  C   C5        1.0  0.86532  0.83067  0.43740  1.0000
  C   C6        1.0  0.13463  0.16935  0.56256  1.0000
  C   C7        1.0  0.82254  0.81613  0.28580  1.0000
  C   C8        1.0  0.17745  0.18388  0.71420  1.0000
  O   O1        1.0  0.21605  0.57333  0.20963  1.0000
  O   O2        1.0  0.78395  0.42668  0.79039  1.0000
  O   O3        1.0  0.31397  0.62041  0.53550  1.0000
  O   O4        1.0  0.68592  0.37965  0.46452  1.0000
  O   O5        1.0  0.72816  0.91377  0.53483  1.0000
  O   O6        1.0  0.27170  0.08628  0.46514  1.0000
  O   O7        1.0  0.63858  0.88184  0.19393  1.0000
  O   O8        1.0  0.36141  0.11817  0.80606  1.0000
  O   O9        1.0  0.30218  0.22775  0.06087  1.0000
  O   O10       1.0  0.69781  0.77225  0.93914  1.0000
  O   O11       1.0  0.21888  0.70973  0.81191  1.0000
  O   O12       1.0  0.78111  0.29027  0.18809  1.0000
