data_image0
_chemical_formula_structural       Cu2H44C24O10
_chemical_formula_sum              "Cu2 H44 C24 O10"
_cell_length_a       8.90847
_cell_length_b       9.41627
_cell_length_c       10.4789
_cell_angle_alpha    84.1643
_cell_angle_beta     67.6542
_cell_angle_gamma    70.8844

_space_group_name_H-M_alt    "P 1"
_space_group_IT_number       1

loop_
  _space_group_symop_operation_xyz
  'x, y, z'

loop_
  _atom_site_type_symbol
  _atom_site_label
  _atom_site_symmetry_multiplicity
  _atom_site_fract_x
  _atom_site_fract_y
  _atom_site_fract_z
  _atom_site_occupancy
  Cu  Cu1       1.0  0.12297  0.03201  0.50743  1.0000
  Cu  Cu2       1.0  0.87702  0.96798  0.49257  1.0000
  H   H1        1.0  0.26945  0.67795  0.79353  1.0000
  H   H2        1.0  0.73056  0.32205  0.20647  1.0000
  H   H3        1.0  0.30428  0.48089  0.79252  1.0000
  H   H4        1.0  0.69574  0.51912  0.20747  1.0000
  H   H5        1.0  0.39582  0.56990  0.63761  1.0000
  H   H6        1.0  0.60420  0.43011  0.36239  1.0000
  H   H7        1.0  0.17423  0.36877  0.66837  1.0000
  H   H8        1.0  0.82579  0.63122  0.33162  1.0000
  H   H9        1.0  0.03026  0.48720  0.59367  1.0000
  H   H10       1.0  0.96976  0.51281  0.40632  1.0000
  H   H11       1.0  0.25257  0.46394  0.51455  1.0000
  H   H12       1.0  0.74745  0.53606  0.48544  1.0000
  H   H13       1.0  0.94654  0.71673  0.90232  1.0000
  H   H14       1.0  0.05348  0.28327  0.09766  1.0000
  H   H15       1.0  0.85016  0.64173  0.81577  1.0000
  H   H16       1.0  0.14986  0.35828  0.18421  1.0000
  H   H17       1.0  0.98708  0.51897  0.89543  1.0000
  H   H18       1.0  0.01293  0.48103  0.10456  1.0000
  H   H19       1.0  0.69133  0.15030  0.08772  1.0000
  H   H20       1.0  0.30867  0.84969  0.91228  1.0000
  H   H21       1.0  0.75969  0.98740  0.98226  1.0000
  H   H22       1.0  0.24029  0.01259  0.01775  1.0000
  H   H23       1.0  0.90037  0.09445  0.95724  1.0000
  H   H24       1.0  0.09962  0.90554  0.04276  1.0000
  H   H25       1.0  0.43123  0.26418  0.02251  1.0000
  H   H26       1.0  0.56875  0.73583  0.97750  1.0000
  H   H27       1.0  0.45401  0.27940  0.84597  1.0000
  H   H28       1.0  0.54597  0.72061  0.15404  1.0000
  H   H29       1.0  0.49344  0.09984  0.92015  1.0000
  H   H30       1.0  0.50653  0.90016  0.07986  1.0000
  H   H31       1.0  0.84589  0.35114  0.84992  1.0000
  H   H32       1.0  0.15409  0.64885  0.15009  1.0000
  H   H33       1.0  0.66099  0.43158  0.80745  1.0000
  H   H34       1.0  0.33900  0.56841  0.19257  1.0000
  H   H35       1.0  0.63961  0.41099  0.98373  1.0000
  H   H36       1.0  0.36039  0.58899  0.01627  1.0000
  H   H37       1.0  0.44450  0.12132  0.66332  1.0000
  H   H38       1.0  0.55550  0.87868  0.33667  1.0000
  H   H39       1.0  0.27850  0.03376  0.72619  1.0000
  H   H40       1.0  0.72150  0.96625  0.27381  1.0000
  H   H41       1.0  0.52826  0.19230  0.42064  1.0000
  H   H42       1.0  0.47175  0.80770  0.57937  1.0000
  H   H43       1.0  0.41786  0.15117  0.32324  1.0000
  H   H44       1.0  0.58214  0.84884  0.67676  1.0000
  C   C1        1.0  0.08084  0.75318  0.62271  1.0000
  C   C2        1.0  0.91917  0.24681  0.37728  1.0000
  C   C3        1.0  0.12171  0.60723  0.70164  1.0000
  C   C4        1.0  0.87830  0.39277  0.29835  1.0000
  C   C5        1.0  0.28253  0.58334  0.73283  1.0000
  C   C6        1.0  0.71748  0.41667  0.26717  1.0000
  C   C7        1.0  0.14570  0.47439  0.61417  1.0000
  C   C8        1.0  0.85432  0.52561  0.38582  1.0000
  C   C9        1.0  0.96642  0.62268  0.83718  1.0000
  C   C10       1.0  0.03359  0.37733  0.16281  1.0000
  C   C11       1.0  0.80548  0.12777  0.73597  1.0000
  C   C12       1.0  0.19449  0.87223  0.26404  1.0000
  C   C13       1.0  0.69436  0.20129  0.88032  1.0000
  C   C14       1.0  0.30563  0.79870  0.11968  1.0000
  C   C15       1.0  0.76658  0.10182  0.98282  1.0000
  C   C16       1.0  0.23341  0.89818  0.01718  1.0000
  C   C17       1.0  0.50732  0.21147  0.91928  1.0000
  C   C18       1.0  0.49265  0.78854  0.08073  1.0000
  C   C19       1.0  0.71152  0.35839  0.88020  1.0000
  C   C20       1.0  0.28847  0.64160  0.11981  1.0000
  C   C21       1.0  0.39169  0.04196  0.63804  1.0000
  C   C22       1.0  0.60831  0.95805  0.36196  1.0000
  C   C23       1.0  0.47301  0.11072  0.40279  1.0000
  C   C24       1.0  0.52700  0.88928  0.59721  1.0000
  O   O1        1.0  0.17589  0.83602  0.59992  1.0000
  O   O2        1.0  0.82410  0.16400  0.40010  1.0000
  O   O3        1.0  0.04812  0.21961  0.41192  1.0000
  O   O4        1.0  0.95192  0.78037  0.58806  1.0000
  O   O5        1.0  0.96023  0.12708  0.68917  1.0000
  O   O6        1.0  0.03974  0.87293  0.31081  1.0000
  O   O7        1.0  0.26349  0.92794  0.32407  1.0000
  O   O8        1.0  0.73650  0.07202  0.67595  1.0000
  O   O9        1.0  0.33282  0.10047  0.52691  1.0000
  O   O10       1.0  0.66718  0.89953  0.47309  1.0000
