data_image0
_chemical_formula_structural       CdH36C34S2N4O8
_chemical_formula_sum              "Cd1 H36 C34 S2 N4 O8"
_cell_length_a       7.63393
_cell_length_b       9.09226
_cell_length_c       12.6132
_cell_angle_alpha    92.8273
_cell_angle_beta     91.344
_cell_angle_gamma    111.636

_space_group_name_H-M_alt    "P 1"
_space_group_IT_number       1

loop_
  _space_group_symop_operation_xyz
  'x, y, z'

loop_
  _atom_site_type_symbol
  _atom_site_label
  _atom_site_symmetry_multiplicity
  _atom_site_fract_x
  _atom_site_fract_y
  _atom_site_fract_z
  _atom_site_occupancy
  Cd  Cd1       1.0  0.50000  0.50000  0.50000  1.0000
  H   H1        1.0  0.22447  0.70675  0.44057  1.0000
  H   H2        1.0  0.77553  0.29325  0.55943  1.0000
  H   H3        1.0  0.24830  0.90243  0.99466  1.0000
  H   H4        1.0  0.75169  0.09756  0.00534  1.0000
  H   H5        1.0  0.78817  0.80784  0.35900  1.0000
  H   H6        1.0  0.21183  0.19216  0.64100  1.0000
  H   H7        1.0  0.02441  0.10173  0.31553  1.0000
  H   H8        1.0  0.97560  0.89828  0.68447  1.0000
  H   H9        1.0  0.68832  0.06688  0.31665  1.0000
  H   H10       1.0  0.31168  0.93312  0.68335  1.0000
  H   H11       1.0  0.39526  0.90201  0.16728  1.0000
  H   H12       1.0  0.60473  0.09800  0.83272  1.0000
  H   H13       1.0  0.01954  0.31979  0.84227  1.0000
  H   H14       1.0  0.98047  0.68020  0.15773  1.0000
  H   H15       1.0  0.47264  0.77600  0.84382  1.0000
  H   H16       1.0  0.52736  0.22400  0.15618  1.0000
  H   H17       1.0  0.07468  0.31675  0.03697  1.0000
  H   H18       1.0  0.92532  0.68324  0.96304  1.0000
  H   H19       1.0  0.40395  0.13498  0.38460  1.0000
  H   H20       1.0  0.59606  0.86502  0.61541  1.0000
  H   H21       1.0  0.20327  0.97814  0.42407  1.0000
  H   H22       1.0  0.79673  0.02186  0.57593  1.0000
  H   H23       1.0  0.53043  0.76907  0.03666  1.0000
  H   H24       1.0  0.46958  0.23093  0.96334  1.0000
  H   H25       1.0  0.87290  0.10072  0.14381  1.0000
  H   H26       1.0  0.12710  0.89929  0.85619  1.0000
  H   H27       1.0  0.25994  0.42232  0.19733  1.0000
  H   H28       1.0  0.74007  0.57768  0.80267  1.0000
  H   H29       1.0  0.27091  0.61999  0.21181  1.0000
  H   H30       1.0  0.72910  0.38001  0.78818  1.0000
  H   H31       1.0  0.48063  0.58313  0.19360  1.0000
  H   H32       1.0  0.51937  0.41687  0.80640  1.0000
  H   H33       1.0  0.09027  0.35338  0.39945  1.0000
  H   H34       1.0  0.90973  0.64662  0.60055  1.0000
  H   H35       1.0  0.12005  0.35813  0.52465  1.0000
  H   H36       1.0  0.87995  0.64187  0.47535  1.0000
  C   C1        1.0  0.04596  0.00079  0.05260  1.0000
  C   C2        1.0  0.95403  0.99922  0.94740  1.0000
  C   C3        1.0  0.36566  0.76763  0.41431  1.0000
  C   C4        1.0  0.63434  0.23237  0.58569  1.0000
  C   C5        1.0  0.21954  0.00037  0.25507  1.0000
  C   C6        1.0  0.78046  0.99963  0.74493  1.0000
  C   C7        1.0  0.19605  0.94723  0.06375  1.0000
  C   C8        1.0  0.80395  0.05278  0.93625  1.0000
  C   C9        1.0  0.65703  0.82577  0.37017  1.0000
  C   C10       1.0  0.34296  0.17423  0.62983  1.0000
  C   C11       1.0  0.07187  0.05571  0.24498  1.0000
  C   C12       1.0  0.92814  0.94430  0.75502  1.0000
  C   C13       1.0  0.30204  0.54363  0.05163  1.0000
  C   C14       1.0  0.69797  0.45637  0.94837  1.0000
  C   C15       1.0  0.60866  0.95228  0.34653  1.0000
  C   C16       1.0  0.39134  0.04772  0.65347  1.0000
  C   C17       1.0  0.28063  0.94618  0.16277  1.0000
  C   C18       1.0  0.71936  0.05382  0.83723  1.0000
  C   C19       1.0  0.12890  0.41913  0.88548  1.0000
  C   C20       1.0  0.87111  0.58086  0.11452  1.0000
  C   C21       1.0  0.38271  0.67663  0.88663  1.0000
  C   C22       1.0  0.61730  0.32336  0.11336  1.0000
  C   C23       1.0  0.16128  0.41784  0.99463  1.0000
  C   C24       1.0  0.83873  0.58216  0.00538  1.0000
  C   C25       1.0  0.31084  0.01128  0.36421  1.0000
  C   C26       1.0  0.68916  0.98872  0.63579  1.0000
  C   C27       1.0  0.41421  0.67207  0.99529  1.0000
  C   C28       1.0  0.58579  0.32793  0.00471  1.0000
  C   C29       1.0  0.98665  0.05549  0.14636  1.0000
  C   C30       1.0  0.01335  0.94452  0.85365  1.0000
  C   C31       1.0  0.23847  0.55006  0.83215  1.0000
  C   C32       1.0  0.76154  0.44993  0.16785  1.0000
  C   C33       1.0  0.33040  0.54152  0.16952  1.0000
  C   C34       1.0  0.66960  0.45848  0.83048  1.0000
  S   S1        1.0  0.19556  0.56047  0.69466  1.0000
  S   S2        1.0  0.80444  0.43953  0.30535  1.0000
  N   N1        1.0  0.50453  0.71207  0.41296  1.0000
  N   N2        1.0  0.49546  0.28793  0.58704  1.0000
  N   N3        1.0  0.42355  0.91322  0.37499  1.0000
  N   N4        1.0  0.57645  0.08678  0.62501  1.0000
  O   O1        1.0  0.38286  0.61550  0.64735  1.0000
  O   O2        1.0  0.61714  0.38450  0.35264  1.0000
  O   O3        1.0  0.10507  0.67779  0.68574  1.0000
  O   O4        1.0  0.89492  0.32220  0.31426  1.0000
  O   O5        1.0  0.07176  0.39991  0.65308  1.0000
  O   O6        1.0  0.92824  0.60009  0.34692  1.0000
  O   O7        1.0  0.17692  0.34479  0.45661  1.0000
  O   O8        1.0  0.82308  0.65521  0.54339  1.0000
