data_image0
_chemical_formula_structural       Cu2H52C28O10
_chemical_formula_sum              "Cu2 H52 C28 O10"
_cell_length_a       8.85293
_cell_length_b       9.81988
_cell_length_c       10.9676
_cell_angle_alpha    84.8141
_cell_angle_beta     66.3563
_cell_angle_gamma    71.3681

_space_group_name_H-M_alt    "P 1"
_space_group_IT_number       1

loop_
  _space_group_symop_operation_xyz
  'x, y, z'

loop_
  _atom_site_type_symbol
  _atom_site_label
  _atom_site_symmetry_multiplicity
  _atom_site_fract_x
  _atom_site_fract_y
  _atom_site_fract_z
  _atom_site_occupancy
  Cu  Cu1       1.0  0.12593  0.52390  0.00974  1.0000
  Cu  Cu2       1.0  0.87410  0.47611  0.99026  1.0000
  H   H1        1.0  0.16677  0.48868  0.54823  1.0000
  H   H2        1.0  0.83322  0.51132  0.45178  1.0000
  H   H3        1.0  0.35223  0.51203  0.56076  1.0000
  H   H4        1.0  0.64776  0.48797  0.43924  1.0000
  H   H5        1.0  0.58508  0.29424  0.59161  1.0000
  H   H6        1.0  0.41491  0.70576  0.40840  1.0000
  H   H7        1.0  0.43046  0.24109  0.73239  1.0000
  H   H8        1.0  0.56954  0.75890  0.26761  1.0000
  H   H9        1.0  0.56532  0.11969  0.59228  1.0000
  H   H10       1.0  0.43467  0.88031  0.40771  1.0000
  H   H11       1.0  0.52416  0.16080  0.37589  1.0000
  H   H12       1.0  0.47582  0.83920  0.62411  1.0000
  H   H13       1.0  0.35378  0.30919  0.36251  1.0000
  H   H14       1.0  0.64620  0.69081  0.63750  1.0000
  H   H15       1.0  0.53872  0.33795  0.36997  1.0000
  H   H16       1.0  0.46127  0.66206  0.63002  1.0000
  H   H17       1.0  0.16523  0.20391  0.71673  1.0000
  H   H18       1.0  0.83475  0.79609  0.28327  1.0000
  H   H19       1.0  0.12929  0.24038  0.56782  1.0000
  H   H20       1.0  0.87070  0.75963  0.43218  1.0000
  H   H21       1.0  0.30095  0.08753  0.57305  1.0000
  H   H22       1.0  0.69903  0.91247  0.42695  1.0000
  H   H23       1.0  0.65195  0.96146  0.99705  1.0000
  H   H24       1.0  0.34807  0.03854  0.00295  1.0000
  H   H25       1.0  0.83715  0.99283  0.00324  1.0000
  H   H26       1.0  0.16288  0.00717  0.99675  1.0000
  H   H27       1.0  0.84218  0.75319  0.74094  1.0000
  H   H28       1.0  0.15781  0.24681  0.25907  1.0000
  H   H29       1.0  0.65211  0.90381  0.77687  1.0000
  H   H30       1.0  0.34788  0.09619  0.22314  1.0000
  H   H31       1.0  0.83698  0.89444  0.62736  1.0000
  H   H32       1.0  0.16300  0.10556  0.37264  1.0000
  H   H33       1.0  0.11682  0.78424  0.74879  1.0000
  H   H34       1.0  0.88318  0.21575  0.25120  1.0000
  H   H35       1.0  0.10841  0.92434  0.63468  1.0000
  H   H36       1.0  0.89158  0.07565  0.36530  1.0000
  H   H37       1.0  0.11420  0.95579  0.78961  1.0000
  H   H38       1.0  0.88582  0.04420  0.21037  1.0000
  H   H39       1.0  0.83944  0.13596  0.67995  1.0000
  H   H40       1.0  0.16056  0.86403  0.32004  1.0000
  H   H41       1.0  0.65308  0.15144  0.82976  1.0000
  H   H42       1.0  0.34692  0.84856  0.17024  1.0000
  H   H43       1.0  0.84225  0.17381  0.83467  1.0000
  H   H44       1.0  0.15776  0.82618  0.16532  1.0000
  H   H45       1.0  0.39345  0.68127  0.86519  1.0000
  H   H46       1.0  0.60654  0.31873  0.13482  1.0000
  H   H47       1.0  0.50783  0.69769  0.96411  1.0000
  H   H48       1.0  0.49217  0.30231  0.03589  1.0000
  H   H49       1.0  0.28812  0.48459  0.21897  1.0000
  H   H50       1.0  0.71187  0.51541  0.78103  1.0000
  H   H51       1.0  0.44461  0.57959  0.17635  1.0000
  H   H52       1.0  0.55538  0.42041  0.82367  1.0000
  C   C1        1.0  0.15885  0.48139  0.74583  1.0000
  C   C2        1.0  0.84115  0.51861  0.25417  1.0000
  C   C3        1.0  0.25864  0.45146  0.59722  1.0000
  C   C4        1.0  0.74136  0.54854  0.40278  1.0000
  C   C5        1.0  0.35731  0.28872  0.56074  1.0000
  C   C6        1.0  0.64268  0.71128  0.43927  1.0000
  C   C7        1.0  0.49184  0.23323  0.62304  1.0000
  C   C8        1.0  0.50815  0.76677  0.37697  1.0000
  C   C9        1.0  0.44904  0.27372  0.40842  1.0000
  C   C10       1.0  0.55094  0.72629  0.59158  1.0000
  C   C11       1.0  0.23059  0.20052  0.60776  1.0000
  C   C12       1.0  0.76940  0.79949  0.39224  1.0000
  C   C13       1.0  0.86088  0.77088  0.98621  1.0000
  C   C14       1.0  0.13916  0.22912  0.01379  1.0000
  C   C15       1.0  0.79457  0.92683  0.95578  1.0000
  C   C16       1.0  0.20546  0.07316  0.04421  1.0000
  C   C17       1.0  0.86302  0.95048  0.80321  1.0000
  C   C18       1.0  0.13698  0.04952  0.19679  1.0000
  C   C19       1.0  0.79476  0.87025  0.73354  1.0000
  C   C20       1.0  0.20523  0.12975  0.26646  1.0000
  C   C21       1.0  0.06207  0.90026  0.74083  1.0000
  C   C22       1.0  0.93794  0.09974  0.25915  1.0000
  C   C23       1.0  0.79574  0.11249  0.78635  1.0000
  C   C24       1.0  0.20426  0.88751  0.21365  1.0000
  C   C25       1.0  0.45779  0.62529  0.93076  1.0000
  C   C26       1.0  0.54221  0.37472  0.06924  1.0000
  C   C27       1.0  0.39658  0.50972  0.13766  1.0000
  C   C28       1.0  0.60341  0.49028  0.86235  1.0000
  O   O1        1.0  0.23724  0.50942  0.81131  1.0000
  O   O2        1.0  0.76277  0.49058  0.18869  1.0000
  O   O3        1.0  0.99406  0.52884  0.20563  1.0000
  O   O4        1.0  0.00594  0.47116  0.79438  1.0000
  O   O5        1.0  0.00292  0.73189  0.00292  1.0000
  O   O6        1.0  0.99711  0.26812  0.99708  1.0000
  O   O7        1.0  0.22662  0.31091  0.01272  1.0000
  O   O8        1.0  0.77342  0.68909  0.98728  1.0000
  O   O9        1.0  0.32595  0.58780  0.04476  1.0000
  O   O10       1.0  0.67405  0.41221  0.95525  1.0000
