data_image0
_chemical_formula_structural       Ca4H40C20O24
_chemical_formula_sum              "Ca4 H40 C20 O24"
_cell_length_a       6.84664
_cell_length_b       12.3109
_cell_length_c       11.6537
_cell_angle_alpha    96.3448
_cell_angle_beta     88.849
_cell_angle_gamma    93.3017

_space_group_name_H-M_alt    "P 1"
_space_group_IT_number       1

loop_
  _space_group_symop_operation_xyz
  'x, y, z'

loop_
  _atom_site_type_symbol
  _atom_site_label
  _atom_site_symmetry_multiplicity
  _atom_site_fract_x
  _atom_site_fract_y
  _atom_site_fract_z
  _atom_site_occupancy
  Ca  Ca1       1.0  0.53067  0.56105  0.35445  1.0000
  Ca  Ca2       1.0  0.46933  0.43896  0.64554  1.0000
  Ca  Ca3       1.0  0.05371  0.71900  0.32286  1.0000
  Ca  Ca4       1.0  0.94628  0.28099  0.67713  1.0000
  H   H1        1.0  0.61022  0.93726  0.24434  1.0000
  H   H2        1.0  0.38977  0.06275  0.75566  1.0000
  H   H3        1.0  0.70070  0.95260  0.38723  1.0000
  H   H4        1.0  0.29929  0.04741  0.61277  1.0000
  H   H5        1.0  0.44251  0.95444  0.36227  1.0000
  H   H6        1.0  0.55747  0.04556  0.63774  1.0000
  H   H7        1.0  0.62691  0.82580  0.61339  1.0000
  H   H8        1.0  0.37308  0.17420  0.38660  1.0000
  H   H9        1.0  0.47330  0.83719  0.73906  1.0000
  H   H10       1.0  0.52669  0.16281  0.26093  1.0000
  H   H11       1.0  0.37040  0.81716  0.59671  1.0000
  H   H12       1.0  0.62960  0.18282  0.40328  1.0000
  H   H13       1.0  0.97229  0.31844  0.30201  1.0000
  H   H14       1.0  0.02768  0.68156  0.69800  1.0000
  H   H15       1.0  0.87797  0.35779  0.44075  1.0000
  H   H16       1.0  0.12202  0.64222  0.55926  1.0000
  H   H17       1.0  0.13854  0.34569  0.41868  1.0000
  H   H18       1.0  0.86145  0.65430  0.58132  1.0000
  H   H19       1.0  0.85941  0.65585  0.87094  1.0000
  H   H20       1.0  0.14060  0.34416  0.12907  1.0000
  H   H21       1.0  0.94728  0.53884  0.92937  1.0000
  H   H22       1.0  0.05272  0.46117  0.07065  1.0000
  H   H23       1.0  0.11519  0.63297  0.87068  1.0000
  H   H24       1.0  0.88482  0.36703  0.12932  1.0000
  H   H25       1.0  0.96012  0.03156  0.10013  1.0000
  H   H26       1.0  0.03989  0.96844  0.89988  1.0000
  H   H27       1.0  0.12356  0.13166  0.17565  1.0000
  H   H28       1.0  0.87645  0.86834  0.82437  1.0000
  H   H29       1.0  0.87967  0.11430  0.22595  1.0000
  H   H30       1.0  0.12033  0.88569  0.77406  1.0000
  H   H31       1.0  0.98194  0.83766  0.11842  1.0000
  H   H32       1.0  0.01807  0.16235  0.88158  1.0000
  H   H33       1.0  0.47071  0.47651  0.12805  1.0000
  H   H34       1.0  0.52925  0.52348  0.87196  1.0000
  H   H35       1.0  0.35884  0.58285  0.12187  1.0000
  H   H36       1.0  0.64114  0.41714  0.87813  1.0000
  H   H37       1.0  0.12223  0.91689  0.44537  1.0000
  H   H38       1.0  0.87777  0.08310  0.55463  1.0000
  H   H39       1.0  0.99746  0.87846  0.54758  1.0000
  H   H40       1.0  0.00254  0.12153  0.45243  1.0000
  C   C1        1.0  0.56170  0.79510  0.33139  1.0000
  C   C2        1.0  0.43830  0.20491  0.66860  1.0000
  C   C3        1.0  0.57891  0.91770  0.33293  1.0000
  C   C4        1.0  0.42107  0.08231  0.66707  1.0000
  C   C5        1.0  0.48542  0.67350  0.65227  1.0000
  C   C6        1.0  0.51457  0.32652  0.34773  1.0000
  C   C7        1.0  0.48861  0.79589  0.65139  1.0000
  C   C8        1.0  0.51139  0.20411  0.34861  1.0000
  C   C9        1.0  0.02198  0.48832  0.35964  1.0000
  C   C10       1.0  0.97803  0.51167  0.64035  1.0000
  C   C11       1.0  0.00339  0.37031  0.38304  1.0000
  C   C12       1.0  0.99661  0.62969  0.61696  1.0000
  C   C13       1.0  0.00203  0.69246  0.03413  1.0000
  C   C14       1.0  0.99800  0.30755  0.96589  1.0000
  C   C15       1.0  0.97641  0.62574  0.91963  1.0000
  C   C16       1.0  0.02361  0.37426  0.08036  1.0000
  C   C17       1.0  0.06437  0.98935  0.26423  1.0000
  C   C18       1.0  0.93566  0.01065  0.73579  1.0000
  C   C19       1.0  0.00322  0.07042  0.18558  1.0000
  C   C20       1.0  0.99678  0.92958  0.81443  1.0000
  O   O1        1.0  0.71608  0.74224  0.33561  1.0000
  O   O2        1.0  0.28393  0.25777  0.66436  1.0000
  O   O3        1.0  0.39414  0.74440  0.32538  1.0000
  O   O4        1.0  0.60586  0.25560  0.67461  1.0000
  O   O5        1.0  0.49900  0.61390  0.55453  1.0000
  O   O6        1.0  0.50099  0.38609  0.44547  1.0000
  O   O7        1.0  0.46880  0.63103  0.74659  1.0000
  O   O8        1.0  0.53119  0.36897  0.25341  1.0000
  O   O9        1.0  0.18950  0.53655  0.34716  1.0000
  O   O10       1.0  0.81051  0.46344  0.65284  1.0000
  O   O11       1.0  0.86856  0.54107  0.35245  1.0000
  O   O12       1.0  0.13144  0.45892  0.64753  1.0000
  O   O13       1.0  0.08166  0.65679  0.11733  1.0000
  O   O14       1.0  0.91837  0.34322  0.88267  1.0000
  O   O15       1.0  0.93955  0.79195  0.03940  1.0000
  O   O16       1.0  0.06046  0.20805  0.96060  1.0000
  O   O17       1.0  0.05264  0.88659  0.22881  1.0000
  O   O18       1.0  0.94738  0.11341  0.77120  1.0000
  O   O19       1.0  0.12547  0.02491  0.36406  1.0000
  O   O20       1.0  0.87454  0.97509  0.63596  1.0000
  O   O21       1.0  0.48548  0.55640  0.14023  1.0000
  O   O22       1.0  0.51450  0.44360  0.85974  1.0000
  O   O23       1.0  0.09125  0.85071  0.48675  1.0000
  O   O24       1.0  0.90875  0.14928  0.51326  1.0000
