data_image0
_chemical_formula_structural       Cd2H28C28Br2N4O10
_chemical_formula_sum              "Cd2 H28 C28 Br2 N4 O10"
_cell_length_a       8.36122
_cell_length_b       10.1675
_cell_length_c       11.1597
_cell_angle_alpha    73.3022
_cell_angle_beta     74.9745
_cell_angle_gamma    66.4236

_space_group_name_H-M_alt    "P 1"
_space_group_IT_number       1

loop_
  _space_group_symop_operation_xyz
  'x, y, z'

loop_
  _atom_site_type_symbol
  _atom_site_label
  _atom_site_symmetry_multiplicity
  _atom_site_fract_x
  _atom_site_fract_y
  _atom_site_fract_z
  _atom_site_occupancy
  Cd  Cd1       1.0  0.34550  0.92566  0.44142  1.0000
  Cd  Cd2       1.0  0.65450  0.07434  0.55858  1.0000
  H   H1        1.0  0.99996  0.10319  0.35289  1.0000
  H   H2        1.0  0.00004  0.89681  0.64711  1.0000
  H   H3        1.0  0.03753  0.93960  0.36872  1.0000
  H   H4        1.0  0.96247  0.06040  0.63128  1.0000
  H   H5        1.0  0.96734  0.24967  0.72894  1.0000
  H   H6        1.0  0.03266  0.75032  0.27106  1.0000
  H   H7        1.0  0.99031  0.65872  0.75264  1.0000
  H   H8        1.0  0.00968  0.34128  0.24735  1.0000
  H   H9        1.0  0.33860  0.43076  0.46057  1.0000
  H   H10       1.0  0.66140  0.56924  0.53943  1.0000
  H   H11       1.0  0.44450  0.20101  0.24766  1.0000
  H   H12       1.0  0.55550  0.79900  0.75234  1.0000
  H   H13       1.0  0.56102  0.24000  0.09146  1.0000
  H   H14       1.0  0.43898  0.76000  0.90854  1.0000
  H   H15       1.0  0.67461  0.15778  0.22356  1.0000
  H   H16       1.0  0.32539  0.84222  0.77645  1.0000
  H   H17       1.0  0.53773  0.70140  0.24589  1.0000
  H   H18       1.0  0.46227  0.29860  0.75411  1.0000
  H   H19       1.0  0.74688  0.75064  0.00981  1.0000
  H   H20       1.0  0.25312  0.24936  0.99019  1.0000
  H   H21       1.0  0.71963  0.14481  0.93955  1.0000
  H   H22       1.0  0.28037  0.85519  0.06046  1.0000
  H   H23       1.0  0.76062  0.99983  0.86582  1.0000
  H   H24       1.0  0.23938  0.00016  0.13419  1.0000
  H   H25       1.0  0.03651  0.85507  0.96219  1.0000
  H   H26       1.0  0.96349  0.14492  0.03781  1.0000
  H   H27       1.0  0.03912  0.01933  0.85450  1.0000
  H   H28       1.0  0.96088  0.98066  0.14550  1.0000
  C   C1        1.0  0.24409  0.67877  0.54450  1.0000
  C   C2        1.0  0.75591  0.32123  0.45550  1.0000
  C   C3        1.0  0.23899  0.19276  0.53276  1.0000
  C   C4        1.0  0.76102  0.80723  0.46724  1.0000
  C   C5        1.0  0.16213  0.32585  0.58941  1.0000
  C   C6        1.0  0.83787  0.67415  0.41059  1.0000
  C   C7        1.0  0.02416  0.33570  0.69337  1.0000
  C   C8        1.0  0.97584  0.66431  0.30662  1.0000
  C   C9        1.0  0.96562  0.45488  0.75113  1.0000
  C   C10       1.0  0.03438  0.54512  0.24886  1.0000
  C   C11       1.0  0.03641  0.56631  0.70628  1.0000
  C   C12       1.0  0.96359  0.43369  0.29372  1.0000
  C   C13       1.0  0.16935  0.55830  0.59913  1.0000
  C   C14       1.0  0.83065  0.44170  0.40086  1.0000
  C   C15       1.0  0.23279  0.43755  0.54190  1.0000
  C   C16       1.0  0.76720  0.56246  0.45810  1.0000
  C   C17       1.0  0.56685  0.16071  0.18228  1.0000
  C   C18       1.0  0.43315  0.83929  0.81772  1.0000
  C   C19       1.0  0.59100  0.01378  0.16583  1.0000
  C   C20       1.0  0.40900  0.98622  0.83418  1.0000
  C   C21       1.0  0.57737  0.79482  0.19607  1.0000
  C   C22       1.0  0.42263  0.20518  0.80393  1.0000
  C   C23       1.0  0.67954  0.81818  0.08009  1.0000
  C   C24       1.0  0.32046  0.18182  0.91991  1.0000
  C   C25       1.0  0.78120  0.02552  0.94816  1.0000
  C   C26       1.0  0.21881  0.97447  0.05184  1.0000
  C   C27       1.0  0.97866  0.97545  0.94952  1.0000
  C   C28       1.0  0.02134  0.02455  0.05049  1.0000
  Br  Br1       1.0  0.78743  0.46295  0.89952  1.0000
  Br  Br2       1.0  0.21257  0.53706  0.10047  1.0000
  N   N1        1.0  0.52300  0.91676  0.24853  1.0000
  N   N2        1.0  0.47700  0.08324  0.75147  1.0000
  N   N3        1.0  0.68695  0.95639  0.06183  1.0000
  N   N4        1.0  0.31305  0.04361  0.93817  1.0000
  O   O1        1.0  0.20622  0.77637  0.60985  1.0000
  O   O2        1.0  0.79378  0.22364  0.39015  1.0000
  O   O3        1.0  0.33952  0.68202  0.43623  1.0000
  O   O4        1.0  0.66048  0.31798  0.56376  1.0000
  O   O5        1.0  0.15060  0.10848  0.55571  1.0000
  O   O6        1.0  0.84940  0.89152  0.44429  1.0000
  O   O7        1.0  0.39152  0.16509  0.46350  1.0000
  O   O8        1.0  0.60849  0.83491  0.53650  1.0000
  O   O9        1.0  0.09888  0.01138  0.33562  1.0000
  O   O10       1.0  0.90112  0.98862  0.66438  1.0000
