data_image0
_chemical_formula_structural       Mn6H6C30O30
_chemical_formula_sum              "Mn6 H6 C30 O30"
_cell_length_a       7.03512
_cell_length_b       15.3587
_cell_length_c       15.3614
_cell_angle_alpha    117.698
_cell_angle_beta     98.7924
_cell_angle_gamma    98.7752

_space_group_name_H-M_alt    "P 1"
_space_group_IT_number       1

loop_
  _space_group_symop_operation_xyz
  'x, y, z'

loop_
  _atom_site_type_symbol
  _atom_site_label
  _atom_site_symmetry_multiplicity
  _atom_site_fract_x
  _atom_site_fract_y
  _atom_site_fract_z
  _atom_site_occupancy
  Mn  Mn1       1.0  0.47223  0.26078  0.58776  1.0000
  Mn  Mn2       1.0  0.21154  0.32698  0.73921  1.0000
  Mn  Mn3       1.0  0.88451  0.41229  0.67312  1.0000
  Mn  Mn4       1.0  0.52778  0.73922  0.41224  1.0000
  Mn  Mn5       1.0  0.78846  0.67302  0.26080  1.0000
  Mn  Mn6       1.0  0.11549  0.58771  0.32688  1.0000
  H   H1        1.0  0.80306  0.44223  0.46554  1.0000
  H   H2        1.0  0.36080  0.02318  0.55767  1.0000
  H   H3        1.0  0.33753  0.53437  0.97674  1.0000
  H   H4        1.0  0.19694  0.55777  0.53446  1.0000
  H   H5        1.0  0.63920  0.97682  0.44233  1.0000
  H   H6        1.0  0.66247  0.46563  0.02326  1.0000
  C   C1        1.0  0.25869  0.43689  0.60752  1.0000
  C   C2        1.0  0.82175  0.17065  0.56313  1.0000
  C   C3        1.0  0.65107  0.39253  0.82939  1.0000
  C   C4        1.0  0.74130  0.56311  0.39248  1.0000
  C   C5        1.0  0.17825  0.82935  0.43687  1.0000
  C   C6        1.0  0.34893  0.60747  0.17061  1.0000
  C   C7        1.0  0.38528  0.46614  0.55178  1.0000
  C   C8        1.0  0.91919  0.08566  0.53389  1.0000
  C   C9        1.0  0.83347  0.44824  0.91434  1.0000
  C   C10       1.0  0.61472  0.53386  0.44822  1.0000
  C   C11       1.0  0.08081  0.91434  0.46611  1.0000
  C   C12       1.0  0.16653  0.55177  0.08565  1.0000
  C   C13       1.0  0.56032  0.43198  0.53186  1.0000
  C   C14       1.0  0.12835  0.09986  0.56801  1.0000
  C   C15       1.0  0.02845  0.46808  0.90015  1.0000
  C   C16       1.0  0.43968  0.56801  0.46814  1.0000
  C   C17       1.0  0.87165  0.90014  0.43199  1.0000
  C   C18       1.0  0.97155  0.53192  0.09985  1.0000
  C   C19       1.0  0.66929  0.46755  0.48063  1.0000
  C   C20       1.0  0.20172  0.01303  0.53239  1.0000
  C   C21       1.0  0.18865  0.51928  0.98696  1.0000
  C   C22       1.0  0.33071  0.53245  0.51937  1.0000
  C   C23       1.0  0.79828  0.98697  0.46762  1.0000
  C   C24       1.0  0.81135  0.48072  0.01304  1.0000
  C   C25       1.0  0.28045  0.06652  0.35283  1.0000
  C   C26       1.0  0.21438  0.28620  0.93342  1.0000
  C   C27       1.0  0.92815  0.64716  0.71373  1.0000
  C   C28       1.0  0.71955  0.93348  0.64717  1.0000
  C   C29       1.0  0.78562  0.71380  0.06658  1.0000
  C   C30       1.0  0.07184  0.35284  0.28627  1.0000
  O   O1        1.0  0.30816  0.37778  0.64021  1.0000
  O   O2        1.0  0.93020  0.26243  0.62220  1.0000
  O   O3        1.0  0.66780  0.35971  0.73760  1.0000
  O   O4        1.0  0.69184  0.62222  0.35979  1.0000
  O   O5        1.0  0.06981  0.73757  0.37779  1.0000
  O   O6        1.0  0.33220  0.64029  0.26240  1.0000
  O   O7        1.0  0.10490  0.47063  0.62261  1.0000
  O   O8        1.0  0.63422  0.15198  0.52936  1.0000
  O   O9        1.0  0.48223  0.37758  0.84809  1.0000
  O   O10       1.0  0.89510  0.52937  0.37739  1.0000
  O   O11       1.0  0.36578  0.84802  0.47064  1.0000
  O   O12       1.0  0.51777  0.62242  0.15191  1.0000
  O   O13       1.0  0.62786  0.36898  0.55996  1.0000
  O   O14       1.0  0.25887  0.19092  0.63107  1.0000
  O   O15       1.0  0.06788  0.44003  0.80908  1.0000
  O   O16       1.0  0.37214  0.63102  0.44004  1.0000
  O   O17       1.0  0.74113  0.80908  0.36893  1.0000
  O   O18       1.0  0.93212  0.55997  0.19092  1.0000
  O   O19       1.0  0.29286  0.98341  0.30222  1.0000
  O   O20       1.0  0.30975  0.31872  0.01656  1.0000
  O   O21       1.0  0.99108  0.69770  0.68113  1.0000
  O   O22       1.0  0.70714  0.01659  0.69778  1.0000
  O   O23       1.0  0.69025  0.68129  0.98344  1.0000
  O   O24       1.0  0.00892  0.30230  0.31887  1.0000
  O   O25       1.0  0.26608  0.15028  0.40203  1.0000
  O   O26       1.0  0.11632  0.25163  0.84965  1.0000
  O   O27       1.0  0.86467  0.59802  0.74839  1.0000
  O   O28       1.0  0.73391  0.84971  0.59797  1.0000
  O   O29       1.0  0.88369  0.74838  0.15036  1.0000
  O   O30       1.0  0.13532  0.40197  0.25161  1.0000
