data_image0
_chemical_formula_structural       Mn6H6C24O18
_chemical_formula_sum              "Mn6 H6 C24 O18"
_cell_length_a       7.05374
_cell_length_b       15.3636
_cell_length_c       15.3637
_cell_angle_alpha    117.702
_cell_angle_beta     98.8065
_cell_angle_gamma    98.8038

_space_group_name_H-M_alt    "P 1"
_space_group_IT_number       1

loop_
  _space_group_symop_operation_xyz
  'x, y, z'

loop_
  _atom_site_type_symbol
  _atom_site_label
  _atom_site_symmetry_multiplicity
  _atom_site_fract_x
  _atom_site_fract_y
  _atom_site_fract_z
  _atom_site_occupancy
  Mn  Mn1       1.0  0.02056  0.41091  0.73860  1.0000
  Mn  Mn2       1.0  0.60971  0.32770  0.58910  1.0000
  Mn  Mn3       1.0  0.28197  0.26140  0.67229  1.0000
  Mn  Mn4       1.0  0.97944  0.58909  0.26140  1.0000
  Mn  Mn5       1.0  0.39029  0.67231  0.41090  1.0000
  Mn  Mn6       1.0  0.71802  0.73860  0.32771  1.0000
  H   H1        1.0  0.69193  0.53055  0.55301  1.0000
  H   H2        1.0  0.16137  0.02245  0.46945  1.0000
  H   H3        1.0  0.13888  0.44701  0.97756  1.0000
  H   H4        1.0  0.30807  0.46945  0.44699  1.0000
  H   H5        1.0  0.83863  0.97755  0.53055  1.0000
  H   H6        1.0  0.86112  0.55299  0.02244  1.0000
  C   C1        1.0  0.23931  0.39263  0.56363  1.0000
  C   C2        1.0  0.84665  0.17100  0.60739  1.0000
  C   C3        1.0  0.67564  0.43639  0.82900  1.0000
  C   C4        1.0  0.76069  0.60737  0.43637  1.0000
  C   C5        1.0  0.15335  0.82900  0.39261  1.0000
  C   C6        1.0  0.32436  0.56361  0.17100  1.0000
  C   C7        1.0  0.11406  0.44859  0.53439  1.0000
  C   C8        1.0  0.66546  0.08580  0.55142  1.0000
  C   C9        1.0  0.57967  0.46563  0.91420  1.0000
  C   C10       1.0  0.88594  0.55141  0.46561  1.0000
  C   C11       1.0  0.33454  0.91420  0.44858  1.0000
  C   C12       1.0  0.42033  0.53437  0.08580  1.0000
  C   C13       1.0  0.93635  0.46623  0.56595  1.0000
  C   C14       1.0  0.47010  0.09972  0.53377  1.0000
  C   C15       1.0  0.37038  0.43407  0.90027  1.0000
  C   C16       1.0  0.06365  0.53377  0.43405  1.0000
  C   C17       1.0  0.52990  0.90028  0.46623  1.0000
  C   C18       1.0  0.62962  0.56593  0.09973  1.0000
  C   C19       1.0  0.82783  0.51699  0.52983  1.0000
  C   C20       1.0  0.31083  0.01284  0.48300  1.0000
  C   C21       1.0  0.29798  0.47018  0.98716  1.0000
  C   C22       1.0  0.17217  0.48301  0.47017  1.0000
  C   C23       1.0  0.68917  0.98716  0.51700  1.0000
  C   C24       1.0  0.70202  0.52982  0.01284  1.0000
  O   O1        1.0  0.39204  0.37652  0.52975  1.0000
  O   O2        1.0  0.01547  0.15325  0.62352  1.0000
  O   O3        1.0  0.86222  0.47031  0.84678  1.0000
  O   O4        1.0  0.60797  0.62348  0.47025  1.0000
  O   O5        1.0  0.98453  0.84675  0.37648  1.0000
  O   O6        1.0  0.13778  0.52969  0.15322  1.0000
  O   O7        1.0  0.18936  0.36072  0.62338  1.0000
  O   O8        1.0  0.82861  0.26267  0.63929  1.0000
  O   O9        1.0  0.56593  0.37660  0.73734  1.0000
  O   O10       1.0  0.81064  0.63928  0.37662  1.0000
  O   O11       1.0  0.17139  0.73733  0.36071  1.0000
  O   O12       1.0  0.43407  0.62340  0.26266  1.0000
  O   O13       1.0  0.86760  0.43721  0.62838  1.0000
  O   O14       1.0  0.43035  0.19116  0.56277  1.0000
  O   O15       1.0  0.23917  0.37163  0.80883  1.0000
  O   O16       1.0  0.13240  0.56279  0.37162  1.0000
  O   O17       1.0  0.56965  0.80884  0.43723  1.0000
  O   O18       1.0  0.76083  0.62837  0.19117  1.0000
