data_image0
_chemical_formula_structural       Cu6H6C24O18
_chemical_formula_sum              "Cu6 H6 C24 O18"
_cell_length_a       6.25667
_cell_length_b       15.209
_cell_length_c       15.2213
_cell_angle_alpha    118.02
_cell_angle_beta     97.7919
_cell_angle_gamma    97.8514

_space_group_name_H-M_alt    "P 1"
_space_group_IT_number       1

loop_
  _space_group_symop_operation_xyz
  'x, y, z'

loop_
  _atom_site_type_symbol
  _atom_site_label
  _atom_site_symmetry_multiplicity
  _atom_site_fract_x
  _atom_site_fract_y
  _atom_site_fract_z
  _atom_site_occupancy
  Cu  Cu1       1.0  0.06909  0.42913  0.73717  1.0000
  Cu  Cu2       1.0  0.64087  0.30821  0.57196  1.0000
  Cu  Cu3       1.0  0.33143  0.26294  0.69182  1.0000
  Cu  Cu4       1.0  0.93091  0.57088  0.26284  1.0000
  Cu  Cu5       1.0  0.35919  0.69180  0.42803  1.0000
  Cu  Cu6       1.0  0.66855  0.73703  0.30815  1.0000
  H   H1        1.0  0.66977  0.54473  0.56887  1.0000
  H   H2        1.0  0.12483  0.02414  0.45627  1.0000
  H   H3        1.0  0.10087  0.43226  0.97680  1.0000
  H   H4        1.0  0.33024  0.45528  0.43113  1.0000
  H   H5        1.0  0.87514  0.97586  0.54376  1.0000
  H   H6        1.0  0.89917  0.56776  0.02321  1.0000
  C   C1        1.0  0.29000  0.40320  0.57283  1.0000
  C   C2        1.0  0.88669  0.16923  0.59668  1.0000
  C   C3        1.0  0.71651  0.42725  0.83007  1.0000
  C   C4        1.0  0.71000  0.59679  0.42717  1.0000
  C   C5        1.0  0.11326  0.83073  0.40330  1.0000
  C   C6        1.0  0.28350  0.57278  0.16997  1.0000
  C   C7        1.0  0.13329  0.44873  0.53381  1.0000
  C   C8        1.0  0.68457  0.08487  0.55064  1.0000
  C   C9        1.0  0.59914  0.46622  0.91480  1.0000
  C   C10       1.0  0.86672  0.55128  0.46620  1.0000
  C   C11       1.0  0.31536  0.91511  0.44934  1.0000
  C   C12       1.0  0.40081  0.53377  0.08519  1.0000
  C   C13       1.0  0.94101  0.47294  0.57259  1.0000
  C   C14       1.0  0.46804  0.09955  0.52649  1.0000
  C   C15       1.0  0.36790  0.42818  0.90072  1.0000
  C   C16       1.0  0.05900  0.52707  0.42742  1.0000
  C   C17       1.0  0.53194  0.90041  0.47346  1.0000
  C   C18       1.0  0.63214  0.57187  0.09933  1.0000
  C   C19       1.0  0.81544  0.52594  0.53887  1.0000
  C   C20       1.0  0.28945  0.01288  0.47452  1.0000
  C   C21       1.0  0.27646  0.46176  0.98767  1.0000
  C   C22       1.0  0.18457  0.47407  0.46114  1.0000
  C   C23       1.0  0.71051  0.98711  0.52548  1.0000
  C   C24       1.0  0.72351  0.53824  0.01231  1.0000
  O   O1        1.0  0.42020  0.35907  0.51735  1.0000
  O   O2        1.0  0.05983  0.15739  0.64069  1.0000
  O   O3        1.0  0.90145  0.48344  0.84157  1.0000
  O   O4        1.0  0.57981  0.64094  0.48265  1.0000
  O   O5        1.0  0.94013  0.84257  0.35931  1.0000
  O   O6        1.0  0.09856  0.51660  0.15845  1.0000
  O   O7        1.0  0.30247  0.41328  0.66202  1.0000
  O   O8        1.0  0.88944  0.24891  0.58711  1.0000
  O   O9        1.0  0.64070  0.33822  0.75124  1.0000
  O   O10       1.0  0.69752  0.58670  0.33797  1.0000
  O   O11       1.0  0.11057  0.75106  0.41289  1.0000
  O   O12       1.0  0.35938  0.66179  0.24880  1.0000
  O   O13       1.0  0.86696  0.44323  0.63513  1.0000
  O   O14       1.0  0.42276  0.19114  0.55558  1.0000
  O   O15       1.0  0.23193  0.36659  0.80912  1.0000
  O   O16       1.0  0.13307  0.55678  0.36488  1.0000
  O   O17       1.0  0.57725  0.80883  0.44433  1.0000
  O   O18       1.0  0.76810  0.63346  0.19091  1.0000
