data_image0
_chemical_formula_structural       Cu4H28C24N28
_chemical_formula_sum              "Cu4 H28 C24 N28"
_cell_length_a       6.59963
_cell_length_b       13.356
_cell_length_c       13.3558
_cell_angle_alpha    61.2161
_cell_angle_beta     81.0048
_cell_angle_gamma    81.0046

_space_group_name_H-M_alt    "P 1"
_space_group_IT_number       1

loop_
  _space_group_symop_operation_xyz
  'x, y, z'

loop_
  _atom_site_type_symbol
  _atom_site_label
  _atom_site_symmetry_multiplicity
  _atom_site_fract_x
  _atom_site_fract_y
  _atom_site_fract_z
  _atom_site_occupancy
  Cu  Cu1       1.0  0.34711  0.99562  0.86752  1.0000
  Cu  Cu2       1.0  0.15289  0.13247  0.00437  1.0000
  Cu  Cu3       1.0  0.65315  0.00468  0.13238  1.0000
  Cu  Cu4       1.0  0.84688  0.86760  0.99535  1.0000
  H   H1        1.0  0.12875  0.12946  0.66259  1.0000
  H   H2        1.0  0.37124  0.33741  0.87053  1.0000
  H   H3        1.0  0.87177  0.87060  0.33778  1.0000
  H   H4        1.0  0.62822  0.66221  0.12941  1.0000
  H   H5        1.0  0.57606  0.18060  0.37357  1.0000
  H   H6        1.0  0.92392  0.62643  0.81941  1.0000
  H   H7        1.0  0.42394  0.81930  0.62662  1.0000
  H   H8        1.0  0.07606  0.37337  0.18069  1.0000
  H   H9        1.0  0.83233  0.05558  0.51288  1.0000
  H   H10       1.0  0.66766  0.48712  0.94442  1.0000
  H   H11       1.0  0.16783  0.94412  0.48726  1.0000
  H   H12       1.0  0.33218  0.51273  0.05590  1.0000
  H   H13       1.0  0.72330  0.97602  0.72381  1.0000
  H   H14       1.0  0.77669  0.27619  0.02397  1.0000
  H   H15       1.0  0.27700  0.02384  0.27636  1.0000
  H   H16       1.0  0.22302  0.72363  0.97620  1.0000
  H   H17       1.0  0.24107  0.31603  0.35284  1.0000
  H   H18       1.0  0.25893  0.64717  0.68399  1.0000
  H   H19       1.0  0.75895  0.68387  0.64746  1.0000
  H   H20       1.0  0.74102  0.35253  0.31614  1.0000
  H   H21       1.0  0.04849  0.27921  0.47123  1.0000
  H   H22       1.0  0.45152  0.52877  0.72082  1.0000
  H   H23       1.0  0.95183  0.72076  0.52921  1.0000
  H   H24       1.0  0.54814  0.47079  0.27922  1.0000
  H   H25       1.0  0.09961  0.19812  0.39453  1.0000
  H   H26       1.0  0.40036  0.60547  0.80191  1.0000
  H   H27       1.0  0.90034  0.80176  0.60600  1.0000
  H   H28       1.0  0.59968  0.39398  0.19823  1.0000
  C   C1        1.0  0.28329  0.11590  0.62521  1.0000
  C   C2        1.0  0.21670  0.37479  0.88410  1.0000
  C   C3        1.0  0.71710  0.88415  0.37504  1.0000
  C   C4        1.0  0.78290  0.62494  0.11587  1.0000
  C   C5        1.0  0.33029  0.16731  0.50642  1.0000
  C   C6        1.0  0.16970  0.49358  0.83270  1.0000
  C   C7        1.0  0.66995  0.83267  0.49386  1.0000
  C   C8        1.0  0.83006  0.50613  0.16733  1.0000
  C   C9        1.0  0.53144  0.14427  0.46556  1.0000
  C   C10       1.0  0.96854  0.53444  0.85574  1.0000
  C   C11       1.0  0.46873  0.85564  0.53467  1.0000
  C   C12       1.0  0.03127  0.46532  0.14436  1.0000
  C   C13       1.0  0.67527  0.07465  0.54289  1.0000
  C   C14       1.0  0.82471  0.45710  0.92536  1.0000
  C   C15       1.0  0.32495  0.92518  0.45731  1.0000
  C   C16       1.0  0.17504  0.54269  0.07484  1.0000
  C   C17       1.0  0.61658  0.02935  0.65982  1.0000
  C   C18       1.0  0.88341  0.34017  0.97065  1.0000
  C   C19       1.0  0.38372  0.97054  0.34038  1.0000
  C   C20       1.0  0.11630  0.65961  0.02948  1.0000
  C   C21       1.0  0.17059  0.24432  0.42752  1.0000
  C   C22       1.0  0.32940  0.57248  0.75570  1.0000
  C   C23       1.0  0.82952  0.75563  0.57287  1.0000
  C   C24       1.0  0.67046  0.42712  0.24437  1.0000
  N   N1        1.0  0.25002  0.97180  0.02819  1.0000
  N   N2        1.0  0.75001  0.02858  0.97140  1.0000
  N   N3        1.0  0.25000  0.88226  0.11773  1.0000
  N   N4        1.0  0.75003  0.11807  0.88190  1.0000
  N   N5        1.0  0.24998  0.79702  0.20297  1.0000
  N   N6        1.0  0.75004  0.20328  0.79666  1.0000
  N   N7        1.0  0.25003  0.15686  0.84314  1.0000
  N   N8        1.0  0.75000  0.84348  0.15652  1.0000
  N   N9        1.0  0.25001  0.24650  0.75350  1.0000
  N   N10       1.0  0.75001  0.75387  0.24614  1.0000
  N   N11       1.0  0.25000  0.33169  0.66830  1.0000
  N   N12       1.0  0.75001  0.66871  0.33131  1.0000
  N   N13       1.0  0.54801  0.85693  0.92132  1.0000
  N   N14       1.0  0.95201  0.07867  0.14308  1.0000
  N   N15       1.0  0.45280  0.14362  0.07839  1.0000
  N   N16       1.0  0.04721  0.92160  0.85640  1.0000
  N   N17       1.0  0.55860  0.78711  0.88710  1.0000
  N   N18       1.0  0.94141  0.11291  0.21289  1.0000
  N   N19       1.0  0.44093  0.21343  0.11268  1.0000
  N   N20       1.0  0.05906  0.88731  0.78658  1.0000
  N   N21       1.0  0.57416  0.71667  0.85763  1.0000
  N   N22       1.0  0.92584  0.14237  0.28332  1.0000
  N   N23       1.0  0.42393  0.28403  0.14204  1.0000
  N   N24       1.0  0.07607  0.85797  0.71597  1.0000
  N   N25       1.0  0.42286  0.04933  0.70010  1.0000
  N   N26       1.0  0.07713  0.29990  0.95066  1.0000
  N   N27       1.0  0.57755  0.95069  0.30010  1.0000
  N   N28       1.0  0.92246  0.69989  0.04933  1.0000
