data_image0
_chemical_formula_structural       Fe6H6C24O18
_chemical_formula_sum              "Fe6 H6 C24 O18"
_cell_length_a       6.74269
_cell_length_b       15.2324
_cell_length_c       15.2766
_cell_angle_alpha    117.95
_cell_angle_beta     98.4233
_cell_angle_gamma    97.8211

_space_group_name_H-M_alt    "P 1"
_space_group_IT_number       1

loop_
  _space_group_symop_operation_xyz
  'x, y, z'

loop_
  _atom_site_type_symbol
  _atom_site_label
  _atom_site_symmetry_multiplicity
  _atom_site_fract_x
  _atom_site_fract_y
  _atom_site_fract_z
  _atom_site_occupancy
  Fe  Fe1       1.0  0.48730  0.27712  0.60684  1.0000
  Fe  Fe2       1.0  0.21260  0.33025  0.72603  1.0000
  Fe  Fe3       1.0  0.88040  0.39713  0.67174  1.0000
  Fe  Fe4       1.0  0.52648  0.72595  0.39416  1.0000
  Fe  Fe5       1.0  0.78172  0.67633  0.26896  1.0000
  Fe  Fe6       1.0  0.11558  0.58820  0.32285  1.0000
  H   H1        1.0  0.81915  0.44079  0.46629  1.0000
  H   H2        1.0  0.38166  0.02144  0.55599  1.0000
  H   H3        1.0  0.35072  0.53594  0.97550  1.0000
  H   H4        1.0  0.17596  0.55381  0.52895  1.0000
  H   H5        1.0  0.63016  0.98052  0.45232  1.0000
  H   H6        1.0  0.64860  0.47015  0.02426  1.0000
  C   C1        1.0  0.22599  0.42111  0.58838  1.0000
  C   C2        1.0  0.81233  0.17030  0.58323  1.0000
  C   C3        1.0  0.63900  0.41334  0.83332  1.0000
  C   C4        1.0  0.76444  0.56829  0.40147  1.0000
  C   C5        1.0  0.19172  0.82817  0.42563  1.0000
  C   C6        1.0  0.35857  0.59667  0.16697  1.0000
  C   C7        1.0  0.37015  0.45834  0.54320  1.0000
  C   C8        1.0  0.91918  0.08714  0.54512  1.0000
  C   C9        1.0  0.82711  0.45793  0.91526  1.0000
  C   C10       1.0  0.62232  0.53421  0.44982  1.0000
  C   C11       1.0  0.09200  0.91509  0.46385  1.0000
  C   C12       1.0  0.17188  0.54926  0.08432  1.0000
  C   C13       1.0  0.55738  0.42541  0.52621  1.0000
  C   C14       1.0  0.13786  0.10065  0.57562  1.0000
  C   C15       1.0  0.03061  0.47593  0.89984  1.0000
  C   C16       1.0  0.43616  0.56790  0.46734  1.0000
  C   C17       1.0  0.87472  0.90277  0.43369  1.0000
  C   C18       1.0  0.96871  0.53033  0.09972  1.0000
  C   C19       1.0  0.67681  0.46506  0.47961  1.0000
  C   C20       1.0  0.21641  0.01280  0.53326  1.0000
  C   C21       1.0  0.19586  0.52161  0.98585  1.0000
  C   C22       1.0  0.31766  0.52911  0.51480  1.0000
  C   C23       1.0  0.79540  0.98945  0.47498  1.0000
  C   C24       1.0  0.80355  0.48460  0.01397  1.0000
  O   O1        1.0  0.24764  0.34181  0.59811  1.0000
  O   O2        1.0  0.91087  0.25902  0.66166  1.0000
  O   O3        1.0  0.64963  0.40392  0.74447  1.0000
  O   O4        1.0  0.74148  0.64430  0.38741  1.0000
  O   O5        1.0  0.08441  0.73901  0.35338  1.0000
  O   O6        1.0  0.34484  0.61391  0.25729  1.0000
  O   O7        1.0  0.07801  0.46222  0.61658  1.0000
  O   O8        1.0  0.62444  0.15797  0.54292  1.0000
  O   O9        1.0  0.46374  0.38469  0.84556  1.0000
  O   O10       1.0  0.91220  0.52582  0.37545  1.0000
  O   O11       1.0  0.38200  0.84073  0.46271  1.0000
  O   O12       1.0  0.53649  0.62112  0.15326  1.0000
  O   O13       1.0  0.62685  0.36005  0.55206  1.0000
  O   O14       1.0  0.27038  0.19104  0.64135  1.0000
  O   O15       1.0  0.07408  0.45152  0.80910  1.0000
  O   O16       1.0  0.36747  0.63266  0.43962  1.0000
  O   O17       1.0  0.74101  0.81219  0.36800  1.0000
  O   O18       1.0  0.92831  0.55492  0.19174  1.0000
