data_image0
_chemical_formula_structural       Zn6H6C30O30
_chemical_formula_sum              "Zn6 H6 C30 O30"
_cell_length_a       6.79198
_cell_length_b       15.235
_cell_length_c       15.2305
_cell_angle_alpha    117.844
_cell_angle_beta     98.5545
_cell_angle_gamma    98.5438

_space_group_name_H-M_alt    "P 1"
_space_group_IT_number       1

loop_
  _space_group_symop_operation_xyz
  'x, y, z'

loop_
  _atom_site_type_symbol
  _atom_site_label
  _atom_site_symmetry_multiplicity
  _atom_site_fract_x
  _atom_site_fract_y
  _atom_site_fract_z
  _atom_site_occupancy
  Zn  Zn1       1.0  0.47013  0.26375  0.58807  1.0000
  Zn  Zn2       1.0  0.20642  0.32445  0.73621  1.0000
  Zn  Zn3       1.0  0.88206  0.41179  0.67554  1.0000
  Zn  Zn4       1.0  0.52986  0.73625  0.41193  1.0000
  Zn  Zn5       1.0  0.79358  0.67555  0.26379  1.0000
  Zn  Zn6       1.0  0.11794  0.58821  0.32446  1.0000
  H   H1        1.0  0.81041  0.43867  0.46293  1.0000
  H   H2        1.0  0.37177  0.02431  0.56136  1.0000
  H   H3        1.0  0.34747  0.53709  0.97576  1.0000
  H   H4        1.0  0.18959  0.56133  0.53707  1.0000
  H   H5        1.0  0.62823  0.97569  0.43864  1.0000
  H   H6        1.0  0.65254  0.46292  0.02424  1.0000
  C   C1        1.0  0.24741  0.43742  0.60824  1.0000
  C   C2        1.0  0.80991  0.17082  0.56246  1.0000
  C   C3        1.0  0.63911  0.39168  0.82908  1.0000
  C   C4        1.0  0.75259  0.56258  0.39176  1.0000
  C   C5        1.0  0.19009  0.82918  0.43754  1.0000
  C   C6        1.0  0.36089  0.60832  0.17092  1.0000
  C   C7        1.0  0.38126  0.46696  0.55281  1.0000
  C   C8        1.0  0.91429  0.08587  0.53301  1.0000
  C   C9        1.0  0.82843  0.44717  0.91409  1.0000
  C   C10       1.0  0.61873  0.53304  0.44719  1.0000
  C   C11       1.0  0.08571  0.91413  0.46699  1.0000
  C   C12       1.0  0.17158  0.55283  0.08591  1.0000
  C   C13       1.0  0.56094  0.43083  0.53183  1.0000
  C   C14       1.0  0.13014  0.10104  0.56913  1.0000
  C   C15       1.0  0.02908  0.46818  0.89898  1.0000
  C   C16       1.0  0.43906  0.56917  0.46817  1.0000
  C   C17       1.0  0.86986  0.89896  0.43087  1.0000
  C   C18       1.0  0.97092  0.53182  0.10102  1.0000
  C   C19       1.0  0.67323  0.46550  0.47924  1.0000
  C   C20       1.0  0.20773  0.01377  0.53450  1.0000
  C   C21       1.0  0.19397  0.52077  0.98628  1.0000
  C   C22       1.0  0.32677  0.53450  0.52076  1.0000
  C   C23       1.0  0.79227  0.98623  0.46550  1.0000
  C   C24       1.0  0.80603  0.47923  0.01372  1.0000
  C   C25       1.0  0.23282  0.07929  0.34739  1.0000
  C   C26       1.0  0.15361  0.26853  0.92072  1.0000
  C   C27       1.0  0.88540  0.65208  0.73171  1.0000
  C   C28       1.0  0.76717  0.92069  0.65259  1.0000
  C   C29       1.0  0.84640  0.73148  0.07928  1.0000
  C   C30       1.0  0.11461  0.34793  0.26830  1.0000
  O   O1        1.0  0.28995  0.37282  0.63519  1.0000
  O   O2        1.0  0.91704  0.26236  0.62718  1.0000
  O   O3        1.0  0.65478  0.36472  0.73751  1.0000
  O   O4        1.0  0.71005  0.62718  0.36481  1.0000
  O   O5        1.0  0.08296  0.73764  0.37282  1.0000
  O   O6        1.0  0.34522  0.63528  0.26249  1.0000
  O   O7        1.0  0.09386  0.47613  0.62744  1.0000
  O   O8        1.0  0.61774  0.15133  0.52357  1.0000
  O   O9        1.0  0.46641  0.37244  0.84861  1.0000
  O   O10       1.0  0.90614  0.52387  0.37256  1.0000
  O   O11       1.0  0.38226  0.84867  0.47643  1.0000
  O   O12       1.0  0.53359  0.62756  0.15139  1.0000
  O   O13       1.0  0.63153  0.36680  0.55957  1.0000
  O   O14       1.0  0.26482  0.19284  0.63309  1.0000
  O   O15       1.0  0.07201  0.44047  0.80720  1.0000
  O   O16       1.0  0.36847  0.63320  0.44043  1.0000
  O   O17       1.0  0.73518  0.80716  0.36691  1.0000
  O   O18       1.0  0.92799  0.55953  0.19280  1.0000
  O   O19       1.0  0.22991  0.99482  0.28796  1.0000
  O   O20       1.0  0.23439  0.29334  0.00526  1.0000
  O   O21       1.0  0.94129  0.71163  0.70674  1.0000
  O   O22       1.0  0.77007  0.00518  0.71204  1.0000
  O   O23       1.0  0.76562  0.70667  0.99474  1.0000
  O   O24       1.0  0.05872  0.28838  0.29327  1.0000
  O   O25       1.0  0.23326  0.16446  0.40543  1.0000
  O   O26       1.0  0.06956  0.24150  0.83548  1.0000
  O   O27       1.0  0.82843  0.59399  0.75886  1.0000
  O   O28       1.0  0.76673  0.83554  0.59457  1.0000
  O   O29       1.0  0.93044  0.75850  0.16452  1.0000
  O   O30       1.0  0.17157  0.40601  0.24115  1.0000
