data_image0
_chemical_formula_structural       Zn6H6C36O42
_chemical_formula_sum              "Zn6 H6 C36 O42"
_cell_length_a       6.89885
_cell_length_b       15.1592
_cell_length_c       15.1608
_cell_angle_alpha    117.726
_cell_angle_beta     98.7185
_cell_angle_gamma    98.7276

_space_group_name_H-M_alt    "P 1"
_space_group_IT_number       1

loop_
  _space_group_symop_operation_xyz
  'x, y, z'

loop_
  _atom_site_type_symbol
  _atom_site_label
  _atom_site_symmetry_multiplicity
  _atom_site_fract_x
  _atom_site_fract_y
  _atom_site_fract_z
  _atom_site_occupancy
  Zn  Zn1       1.0  0.47280  0.26209  0.58945  1.0000
  Zn  Zn2       1.0  0.21065  0.32724  0.73795  1.0000
  Zn  Zn3       1.0  0.88347  0.41061  0.67278  1.0000
  Zn  Zn4       1.0  0.52720  0.73791  0.41055  1.0000
  Zn  Zn5       1.0  0.78935  0.67276  0.26205  1.0000
  Zn  Zn6       1.0  0.11653  0.58939  0.32722  1.0000
  H   H1        1.0  0.81379  0.44546  0.46971  1.0000
  H   H2        1.0  0.36821  0.02415  0.55474  1.0000
  H   H3        1.0  0.34400  0.53047  0.97571  1.0000
  H   H4        1.0  0.18620  0.55454  0.53029  1.0000
  H   H5        1.0  0.63179  0.97584  0.44527  1.0000
  H   H6        1.0  0.65600  0.46952  0.02429  1.0000
  C   C1        1.0  0.24696  0.43340  0.60480  1.0000
  C   C2        1.0  0.81349  0.17137  0.56656  1.0000
  C   C3        1.0  0.64208  0.39508  0.82866  1.0000
  C   C4        1.0  0.75304  0.56660  0.39520  1.0000
  C   C5        1.0  0.18651  0.82863  0.43344  1.0000
  C   C6        1.0  0.35791  0.60492  0.17134  1.0000
  C   C7        1.0  0.56038  0.43029  0.53178  1.0000
  C   C8        1.0  0.13001  0.10144  0.56980  1.0000
  C   C9        1.0  0.02852  0.46827  0.89856  1.0000
  C   C10       1.0  0.43961  0.56970  0.46822  1.0000
  C   C11       1.0  0.86998  0.89856  0.43020  1.0000
  C   C12       1.0  0.97147  0.53174  0.10144  1.0000
  C   C13       1.0  0.18786  0.09241  0.33589  1.0000
  C   C14       1.0  0.09592  0.24341  0.90756  1.0000
  C   C15       1.0  0.85295  0.66404  0.75676  1.0000
  C   C16       1.0  0.81213  0.90759  0.66411  1.0000
  C   C17       1.0  0.90408  0.75659  0.09243  1.0000
  C   C18       1.0  0.14706  0.33596  0.24326  1.0000
  C   C19       1.0  0.37983  0.46354  0.54985  1.0000
  C   C20       1.0  0.91631  0.08632  0.53640  1.0000
  C   C21       1.0  0.82994  0.45007  0.91372  1.0000
  C   C22       1.0  0.62016  0.53646  0.45015  1.0000
  C   C23       1.0  0.08369  0.91369  0.46360  1.0000
  C   C24       1.0  0.17006  0.54993  0.08627  1.0000
  C   C25       1.0  0.67445  0.46899  0.48274  1.0000
  C   C26       1.0  0.20538  0.01372  0.53119  1.0000
  C   C27       1.0  0.19166  0.51739  0.98623  1.0000
  C   C28       1.0  0.32554  0.53101  0.51726  1.0000
  C   C29       1.0  0.79461  0.98628  0.46881  1.0000
  C   C30       1.0  0.80834  0.48261  0.01377  1.0000
  C   C31       1.0  0.29472  0.79019  0.66377  1.0000
  C   C32       1.0  0.50483  0.87418  0.21038  1.0000
  C   C33       1.0  0.63062  0.33608  0.12575  1.0000
  C   C34       1.0  0.70528  0.20981  0.33624  1.0000
  C   C35       1.0  0.49517  0.12583  0.78962  1.0000
  C   C36       1.0  0.36939  0.66392  0.87424  1.0000
  O   O1        1.0  0.28949  0.36920  0.63255  1.0000
  O   O2        1.0  0.92019  0.26323  0.63091  1.0000
  O   O3        1.0  0.65701  0.36739  0.73678  1.0000
  O   O4        1.0  0.71050  0.63080  0.36745  1.0000
  O   O5        1.0  0.07981  0.73677  0.36909  1.0000
  O   O6        1.0  0.34299  0.63261  0.26322  1.0000
  O   O7        1.0  0.63047  0.36530  0.55842  1.0000
  O   O8        1.0  0.26512  0.19304  0.63485  1.0000
  O   O9        1.0  0.07208  0.44169  0.80695  1.0000
  O   O10       1.0  0.36953  0.63469  0.44158  1.0000
  O   O11       1.0  0.73488  0.80697  0.36515  1.0000
  O   O12       1.0  0.92792  0.55831  0.19305  1.0000
  O   O13       1.0  0.24810  0.17350  0.41138  1.0000
  O   O14       1.0  0.07332  0.23800  0.82651  1.0000
  O   O15       1.0  0.83738  0.58863  0.76255  1.0000
  O   O16       1.0  0.75190  0.82649  0.58862  1.0000
  O   O17       1.0  0.92668  0.76200  0.17348  1.0000
  O   O18       1.0  0.16263  0.41138  0.23745  1.0000
  O   O19       1.0  0.62378  0.15153  0.52739  1.0000
  O   O20       1.0  0.47218  0.37581  0.84853  1.0000
  O   O21       1.0  0.09630  0.47251  0.62402  1.0000
  O   O22       1.0  0.37622  0.84847  0.47261  1.0000
  O   O23       1.0  0.52782  0.62419  0.15148  1.0000
  O   O24       1.0  0.90369  0.52749  0.37598  1.0000
  O   O25       1.0  0.12703  0.01205  0.26020  1.0000
  O   O26       1.0  0.11729  0.24788  0.98789  1.0000
  O   O27       1.0  0.86815  0.73965  0.75187  1.0000
  O   O28       1.0  0.87297  0.98795  0.73979  1.0000
  O   O29       1.0  0.88271  0.75213  0.01210  1.0000
  O   O30       1.0  0.13186  0.26036  0.24815  1.0000
  O   O31       1.0  0.13434  0.76579  0.60783  1.0000
  O   O32       1.0  0.36848  0.84274  0.23467  1.0000
  O   O33       1.0  0.52608  0.39186  0.15773  1.0000
  O   O34       1.0  0.86566  0.23421  0.39217  1.0000
  O   O35       1.0  0.63152  0.15726  0.76533  1.0000
  O   O36       1.0  0.47393  0.60814  0.84226  1.0000
  O   O37       1.0  0.45429  0.81528  0.72099  1.0000
  O   O38       1.0  0.63964  0.90623  0.18539  1.0000
  O   O39       1.0  0.73298  0.27898  0.09316  1.0000
  O   O40       1.0  0.54572  0.18472  0.27901  1.0000
  O   O41       1.0  0.36036  0.09378  0.81461  1.0000
  O   O42       1.0  0.26703  0.72102  0.90684  1.0000
