data_image0
_chemical_formula_structural       Er4Ag12H24C56N8O44
_chemical_formula_sum              "Er4 Ag12 H24 C56 N8 O44"
_cell_length_a       8.17819
_cell_length_b       13.8054
_cell_length_c       14.494
_cell_angle_alpha    90
_cell_angle_beta     90
_cell_angle_gamma    90

_space_group_name_H-M_alt    "P 1"
_space_group_IT_number       1

loop_
  _space_group_symop_operation_xyz
  'x, y, z'

loop_
  _atom_site_type_symbol
  _atom_site_label
  _atom_site_symmetry_multiplicity
  _atom_site_fract_x
  _atom_site_fract_y
  _atom_site_fract_z
  _atom_site_occupancy
  Er  Er1       1.0  0.97576  0.75000  0.25000  1.0000
  Er  Er2       1.0  0.52425  0.75000  0.75000  1.0000
  Er  Er3       1.0  0.02424  0.25000  0.75000  1.0000
  Er  Er4       1.0  0.47575  0.25000  0.25000  1.0000
  Ag  Ag1       1.0  0.54946  0.82498  0.48444  1.0000
  Ag  Ag2       1.0  0.95053  0.82498  0.51556  1.0000
  Ag  Ag3       1.0  0.95054  0.67502  0.98443  1.0000
  Ag  Ag4       1.0  0.54946  0.67501  0.01557  1.0000
  Ag  Ag5       1.0  0.45054  0.17502  0.51557  1.0000
  Ag  Ag6       1.0  0.04946  0.17502  0.48444  1.0000
  Ag  Ag7       1.0  0.04947  0.32498  0.01556  1.0000
  Ag  Ag8       1.0  0.45053  0.32498  0.98443  1.0000
  Ag  Ag9       1.0  0.25000  0.55733  0.00000  1.0000
  Ag  Ag10      1.0  0.25000  0.94267  0.50000  1.0000
  Ag  Ag11      1.0  0.75000  0.44267  0.00000  1.0000
  Ag  Ag12      1.0  0.75000  0.05733  0.50000  1.0000
  H   H1        1.0  0.22537  0.73030  0.44408  1.0000
  H   H2        1.0  0.27463  0.73030  0.55592  1.0000
  H   H3        1.0  0.27463  0.76970  0.94408  1.0000
  H   H4        1.0  0.22537  0.76970  0.05591  1.0000
  H   H5        1.0  0.77463  0.26970  0.55592  1.0000
  H   H6        1.0  0.72537  0.26970  0.44408  1.0000
  H   H7        1.0  0.72537  0.23030  0.05592  1.0000
  H   H8        1.0  0.77463  0.23030  0.94408  1.0000
  H   H9        1.0  0.61500  0.47630  0.43194  1.0000
  H   H10       1.0  0.88501  0.47630  0.56806  1.0000
  H   H11       1.0  0.88500  0.02370  0.93194  1.0000
  H   H12       1.0  0.61499  0.02370  0.06806  1.0000
  H   H13       1.0  0.38501  0.52370  0.56806  1.0000
  H   H14       1.0  0.11500  0.52370  0.43194  1.0000
  H   H15       1.0  0.11499  0.97630  0.06806  1.0000
  H   H16       1.0  0.38500  0.97630  0.93194  1.0000
  H   H17       1.0  0.90007  0.35363  0.20845  1.0000
  H   H18       1.0  0.59993  0.35363  0.79155  1.0000
  H   H19       1.0  0.59993  0.14637  0.70845  1.0000
  H   H20       1.0  0.90007  0.14637  0.29155  1.0000
  H   H21       1.0  0.09993  0.64637  0.79155  1.0000
  H   H22       1.0  0.40007  0.64637  0.20845  1.0000
  H   H23       1.0  0.40006  0.85363  0.29155  1.0000
  H   H24       1.0  0.09993  0.85363  0.70845  1.0000
  C   C1        1.0  0.70282  0.66586  0.39196  1.0000
  C   C2        1.0  0.79720  0.66586  0.60804  1.0000
  C   C3        1.0  0.79719  0.83414  0.89196  1.0000
  C   C4        1.0  0.70281  0.83414  0.10804  1.0000
  C   C5        1.0  0.29719  0.33414  0.60804  1.0000
  C   C6        1.0  0.20281  0.33414  0.39196  1.0000
  C   C7        1.0  0.20281  0.16586  0.10804  1.0000
  C   C8        1.0  0.29719  0.16586  0.89196  1.0000
  C   C9        1.0  0.76019  0.57321  0.34909  1.0000
  C   C10       1.0  0.73982  0.57321  0.65090  1.0000
  C   C11       1.0  0.73981  0.92679  0.84910  1.0000
  C   C12       1.0  0.76019  0.92679  0.15090  1.0000
  C   C13       1.0  0.23982  0.42679  0.65091  1.0000
  C   C14       1.0  0.26019  0.42679  0.34910  1.0000
  C   C15       1.0  0.26018  0.07321  0.15090  1.0000
  C   C16       1.0  0.23981  0.07320  0.84910  1.0000
  C   C17       1.0  0.70246  0.48276  0.37552  1.0000
  C   C18       1.0  0.79755  0.48276  0.62447  1.0000
  C   C19       1.0  0.79754  0.01724  0.87553  1.0000
  C   C20       1.0  0.70246  0.01724  0.12448  1.0000
  C   C21       1.0  0.29754  0.51724  0.62447  1.0000
  C   C22       1.0  0.20246  0.51724  0.37553  1.0000
  C   C23       1.0  0.20245  0.98276  0.12447  1.0000
  C   C24       1.0  0.29754  0.98276  0.87553  1.0000
  C   C25       1.0  0.74808  0.39995  0.32380  1.0000
  C   C26       1.0  0.75192  0.39995  0.67620  1.0000
  C   C27       1.0  0.75192  0.10005  0.82380  1.0000
  C   C28       1.0  0.74808  0.10005  0.17620  1.0000
  C   C29       1.0  0.25192  0.60005  0.67620  1.0000
  C   C30       1.0  0.24808  0.60005  0.32380  1.0000
  C   C31       1.0  0.24808  0.89995  0.17620  1.0000
  C   C32       1.0  0.25192  0.89995  0.82380  1.0000
  C   C33       1.0  0.86077  0.41486  0.25040  1.0000
  C   C34       1.0  0.63923  0.41486  0.74960  1.0000
  C   C35       1.0  0.63923  0.08514  0.75040  1.0000
  C   C36       1.0  0.86077  0.08514  0.24960  1.0000
  C   C37       1.0  0.13923  0.58514  0.74960  1.0000
  C   C38       1.0  0.36077  0.58514  0.25040  1.0000
  C   C39       1.0  0.36076  0.91486  0.24960  1.0000
  C   C40       1.0  0.13923  0.91486  0.75040  1.0000
  C   C41       1.0  0.91272  0.50818  0.23040  1.0000
  C   C42       1.0  0.58728  0.50818  0.76960  1.0000
  C   C43       1.0  0.58728  0.99182  0.73040  1.0000
  C   C44       1.0  0.91272  0.99182  0.26960  1.0000
  C   C45       1.0  0.08728  0.49182  0.76960  1.0000
  C   C46       1.0  0.41272  0.49182  0.23040  1.0000
  C   C47       1.0  0.41272  0.00818  0.26960  1.0000
  C   C48       1.0  0.08728  0.00818  0.73040  1.0000
  C   C49       1.0  0.02235  0.53393  0.15192  1.0000
  C   C50       1.0  0.47765  0.53393  0.84808  1.0000
  C   C51       1.0  0.47765  0.96607  0.65192  1.0000
  C   C52       1.0  0.02235  0.96607  0.34808  1.0000
  C   C53       1.0  0.97765  0.46607  0.84808  1.0000
  C   C54       1.0  0.52235  0.46607  0.15192  1.0000
  C   C55       1.0  0.52235  0.03393  0.34808  1.0000
  C   C56       1.0  0.97765  0.03393  0.65192  1.0000
  N   N1        1.0  0.86366  0.58676  0.27829  1.0000
  N   N2        1.0  0.63635  0.58676  0.72171  1.0000
  N   N3        1.0  0.63635  0.91324  0.77829  1.0000
  N   N4        1.0  0.86366  0.91324  0.22171  1.0000
  N   N5        1.0  0.13635  0.41324  0.72171  1.0000
  N   N6        1.0  0.36366  0.41325  0.27829  1.0000
  N   N7        1.0  0.36365  0.08676  0.22171  1.0000
  N   N8        1.0  0.13634  0.08675  0.77829  1.0000
  O   O1        1.0  0.77721  0.74375  0.36577  1.0000
  O   O2        1.0  0.72280  0.74375  0.63423  1.0000
  O   O3        1.0  0.72280  0.75625  0.86577  1.0000
  O   O4        1.0  0.77720  0.75625  0.13423  1.0000
  O   O5        1.0  0.22280  0.25624  0.63423  1.0000
  O   O6        1.0  0.27720  0.25625  0.36577  1.0000
  O   O7        1.0  0.27720  0.24375  0.13423  1.0000
  O   O8        1.0  0.22280  0.24375  0.86577  1.0000
  O   O9        1.0  0.58501  0.66401  0.44764  1.0000
  O   O10       1.0  0.91501  0.66401  0.55236  1.0000
  O   O11       1.0  0.91500  0.83599  0.94764  1.0000
  O   O12       1.0  0.58500  0.83599  0.05236  1.0000
  O   O13       1.0  0.41500  0.33599  0.55236  1.0000
  O   O14       1.0  0.08500  0.33599  0.44764  1.0000
  O   O15       1.0  0.08500  0.16401  0.05236  1.0000
  O   O16       1.0  0.41500  0.16401  0.94764  1.0000
  O   O17       1.0  0.68183  0.31466  0.33941  1.0000
  O   O18       1.0  0.81817  0.31466  0.66059  1.0000
  O   O19       1.0  0.81817  0.18534  0.83941  1.0000
  O   O20       1.0  0.68183  0.18534  0.16059  1.0000
  O   O21       1.0  0.31817  0.68534  0.66059  1.0000
  O   O22       1.0  0.18183  0.68534  0.33941  1.0000
  O   O23       1.0  0.18183  0.81466  0.16059  1.0000
  O   O24       1.0  0.31817  0.81466  0.83941  1.0000
  O   O25       1.0  0.08362  0.46918  0.09972  1.0000
  O   O26       1.0  0.41638  0.46918  0.90028  1.0000
  O   O27       1.0  0.41637  0.03082  0.59973  1.0000
  O   O28       1.0  0.08362  0.03082  0.40028  1.0000
  O   O29       1.0  0.91637  0.53082  0.90027  1.0000
  O   O30       1.0  0.58363  0.53082  0.09972  1.0000
  O   O31       1.0  0.58363  0.96918  0.40027  1.0000
  O   O32       1.0  0.91637  0.96918  0.59973  1.0000
  O   O33       1.0  0.05141  0.62435  0.14052  1.0000
  O   O34       1.0  0.44859  0.62435  0.85948  1.0000
  O   O35       1.0  0.44859  0.87565  0.64052  1.0000
  O   O36       1.0  0.05141  0.87565  0.35948  1.0000
  O   O37       1.0  0.94859  0.37565  0.85948  1.0000
  O   O38       1.0  0.55141  0.37565  0.14052  1.0000
  O   O39       1.0  0.55141  0.12435  0.35948  1.0000
  O   O40       1.0  0.94859  0.12435  0.64052  1.0000
  O   O41       1.0  0.25000  0.77052  0.50000  1.0000
  O   O42       1.0  0.25000  0.72948  1.00000  1.0000
  O   O43       1.0  0.75000  0.22948  0.50000  1.0000
  O   O44       1.0  0.75000  0.27052  1.00000  1.0000
