data_image0
_chemical_formula_structural       Mg6H6C30O30
_chemical_formula_sum              "Mg6 H6 C30 O30"
_cell_length_a       6.88778
_cell_length_b       15.1946
_cell_length_c       15.1912
_cell_angle_alpha    117.754
_cell_angle_beta     98.694
_cell_angle_gamma    98.6912

_space_group_name_H-M_alt    "P 1"
_space_group_IT_number       1

loop_
  _space_group_symop_operation_xyz
  'x, y, z'

loop_
  _atom_site_type_symbol
  _atom_site_label
  _atom_site_symmetry_multiplicity
  _atom_site_fract_x
  _atom_site_fract_y
  _atom_site_fract_z
  _atom_site_occupancy
  Mg  Mg1       1.0  0.47394  0.26653  0.58952  1.0000
  Mg  Mg2       1.0  0.20740  0.32297  0.73344  1.0000
  Mg  Mg3       1.0  0.88438  0.41041  0.67696  1.0000
  Mg  Mg4       1.0  0.52606  0.73347  0.41048  1.0000
  Mg  Mg5       1.0  0.79260  0.67703  0.26656  1.0000
  Mg  Mg6       1.0  0.11562  0.58959  0.32304  1.0000
  H   H1        1.0  0.81250  0.44411  0.46612  1.0000
  H   H2        1.0  0.36836  0.02196  0.55597  1.0000
  H   H3        1.0  0.34636  0.53393  0.97798  1.0000
  H   H4        1.0  0.18750  0.55589  0.53388  1.0000
  H   H5        1.0  0.63164  0.97805  0.44404  1.0000
  H   H6        1.0  0.65364  0.46607  0.02202  1.0000
  C   C1        1.0  0.25626  0.43629  0.61004  1.0000
  C   C2        1.0  0.82002  0.17374  0.56362  1.0000
  C   C3        1.0  0.64621  0.38988  0.82624  1.0000
  C   C4        1.0  0.74374  0.56371  0.38996  1.0000
  C   C5        1.0  0.17998  0.82626  0.43639  1.0000
  C   C6        1.0  0.35379  0.61012  0.17376  1.0000
  C   C7        1.0  0.38480  0.46600  0.55306  1.0000
  C   C8        1.0  0.91887  0.08705  0.53392  1.0000
  C   C9        1.0  0.83179  0.44688  0.91294  1.0000
  C   C10       1.0  0.61520  0.53400  0.44694  1.0000
  C   C11       1.0  0.08113  0.91295  0.46608  1.0000
  C   C12       1.0  0.16821  0.55312  0.08706  1.0000
  C   C13       1.0  0.56546  0.43239  0.53365  1.0000
  C   C14       1.0  0.13311  0.10125  0.56759  1.0000
  C   C15       1.0  0.03180  0.46632  0.89873  1.0000
  C   C16       1.0  0.43454  0.56761  0.46635  1.0000
  C   C17       1.0  0.86690  0.89875  0.43241  1.0000
  C   C18       1.0  0.96820  0.53368  0.10127  1.0000
  C   C19       1.0  0.67459  0.46860  0.48117  1.0000
  C   C20       1.0  0.20597  0.01255  0.53145  1.0000
  C   C21       1.0  0.19340  0.51888  0.98743  1.0000
  C   C22       1.0  0.32541  0.53140  0.51883  1.0000
  C   C23       1.0  0.79403  0.98745  0.46855  1.0000
  C   C24       1.0  0.80660  0.48112  0.01257  1.0000
  C   C25       1.0  0.21362  0.09429  0.35952  1.0000
  C   C26       1.0  0.11919  0.26531  0.90568  1.0000
  C   C27       1.0  0.85403  0.64024  0.73471  1.0000
  C   C28       1.0  0.78638  0.90571  0.64048  1.0000
  C   C29       1.0  0.88081  0.73469  0.09432  1.0000
  C   C30       1.0  0.14597  0.35976  0.26530  1.0000
  O   O1        1.0  0.30874  0.37621  0.64206  1.0000
  O   O2        1.0  0.93256  0.26582  0.62368  1.0000
  O   O3        1.0  0.66663  0.35788  0.73413  1.0000
  O   O4        1.0  0.69126  0.62379  0.35794  1.0000
  O   O5        1.0  0.06744  0.73418  0.37632  1.0000
  O   O6        1.0  0.33337  0.64213  0.26587  1.0000
  O   O7        1.0  0.09931  0.46973  0.62636  1.0000
  O   O8        1.0  0.62964  0.15663  0.53017  1.0000
  O   O9        1.0  0.47293  0.37353  0.84335  1.0000
  O   O10       1.0  0.90069  0.53027  0.37364  1.0000
  O   O11       1.0  0.37036  0.84337  0.46983  1.0000
  O   O12       1.0  0.52707  0.62647  0.15665  1.0000
  O   O13       1.0  0.63605  0.36999  0.56293  1.0000
  O   O14       1.0  0.26614  0.19291  0.62997  1.0000
  O   O15       1.0  0.07312  0.43699  0.80703  1.0000
  O   O16       1.0  0.36395  0.63001  0.43707  1.0000
  O   O17       1.0  0.73386  0.80709  0.37003  1.0000
  O   O18       1.0  0.92688  0.56302  0.19297  1.0000
  O   O19       1.0  0.16158  0.00876  0.29255  1.0000
  O   O20       1.0  0.15282  0.28393  0.99125  1.0000
  O   O21       1.0  0.86916  0.70722  0.71616  1.0000
  O   O22       1.0  0.83841  0.99123  0.70744  1.0000
  O   O23       1.0  0.84718  0.71606  0.00874  1.0000
  O   O24       1.0  0.13084  0.29278  0.28384  1.0000
  O   O25       1.0  0.26457  0.18168  0.42444  1.0000
  O   O26       1.0  0.08260  0.24278  0.81825  1.0000
  O   O27       1.0  0.83985  0.57530  0.75716  1.0000
  O   O28       1.0  0.73542  0.81831  0.57555  1.0000
  O   O29       1.0  0.91739  0.75722  0.18174  1.0000
  O   O30       1.0  0.16015  0.42469  0.24284  1.0000
