data_image0
_chemical_formula_structural       K2MnH32C28S4O26
_chemical_formula_sum              "K2 Mn1 H32 C28 S4 O26"
_cell_length_a       7.99696
_cell_length_b       9.91244
_cell_length_c       12.5088
_cell_angle_alpha    98.5129
_cell_angle_beta     95.3949
_cell_angle_gamma    105.62

_space_group_name_H-M_alt    "P 1"
_space_group_IT_number       1

loop_
  _space_group_symop_operation_xyz
  'x, y, z'

loop_
  _atom_site_type_symbol
  _atom_site_label
  _atom_site_symmetry_multiplicity
  _atom_site_fract_x
  _atom_site_fract_y
  _atom_site_fract_z
  _atom_site_occupancy
  K   K1        1.0  0.36897  0.07728  0.09640  1.0000
  K   K2        1.0  0.63104  0.92271  0.90360  1.0000
  Mn  Mn1       1.0  0.00001  0.50000  0.00000  1.0000
  H   H1        1.0  0.23840  0.36497  0.90851  1.0000
  H   H2        1.0  0.76162  0.63504  0.09149  1.0000
  H   H3        1.0  0.10814  0.38662  0.81233  1.0000
  H   H4        1.0  0.89187  0.61338  0.18767  1.0000
  H   H5        1.0  0.99925  0.81252  0.13630  1.0000
  H   H6        1.0  0.00076  0.18748  0.86371  1.0000
  H   H7        1.0  0.96858  0.96416  0.13536  1.0000
  H   H8        1.0  0.03141  0.03584  0.86464  1.0000
  H   H9        1.0  0.54427  0.43267  0.11576  1.0000
  H   H10       1.0  0.45573  0.56733  0.88425  1.0000
  H   H11       1.0  0.68964  0.35156  0.12737  1.0000
  H   H12       1.0  0.31034  0.64843  0.87263  1.0000
  H   H13       1.0  0.63489  0.24217  0.47861  1.0000
  H   H14       1.0  0.36513  0.75784  0.52140  1.0000
  H   H15       1.0  0.75578  0.33195  0.67726  1.0000
  H   H16       1.0  0.24423  0.66804  0.32275  1.0000
  H   H17       1.0  0.24963  0.12584  0.76080  1.0000
  H   H18       1.0  0.75036  0.87418  0.23919  1.0000
  H   H19       1.0  0.13599  0.03346  0.56526  1.0000
  H   H20       1.0  0.86401  0.96657  0.43474  1.0000
  H   H21       1.0  0.38023  0.49333  0.45415  1.0000
  H   H22       1.0  0.61977  0.50664  0.54584  1.0000
  H   H23       1.0  0.29152  0.40660  0.25487  1.0000
  H   H24       1.0  0.70848  0.59338  0.74512  1.0000
  H   H25       1.0  0.78843  0.15700  0.31423  1.0000
  H   H26       1.0  0.21156  0.84300  0.68576  1.0000
  H   H27       1.0  0.88605  0.23671  0.51576  1.0000
  H   H28       1.0  0.11394  0.76328  0.48423  1.0000
  H   H29       1.0  0.11829  0.96128  0.28601  1.0000
  H   H30       1.0  0.88170  0.03874  0.71399  1.0000
  H   H31       1.0  0.36622  0.56243  0.72758  1.0000
  H   H32       1.0  0.63376  0.43756  0.27242  1.0000
  C   C1        1.0  0.32078  0.07619  0.39112  1.0000
  C   C2        1.0  0.67922  0.92383  0.60888  1.0000
  C   C3        1.0  0.38170  0.13036  0.51012  1.0000
  C   C4        1.0  0.61831  0.86966  0.48988  1.0000
  C   C5        1.0  0.55445  0.21579  0.54221  1.0000
  C   C6        1.0  0.44557  0.78422  0.45780  1.0000
  C   C7        1.0  0.62026  0.26741  0.65224  1.0000
  C   C8        1.0  0.37976  0.73258  0.34777  1.0000
  C   C9        1.0  0.50867  0.23523  0.72998  1.0000
  C   C10       1.0  0.49133  0.76478  0.27002  1.0000
  C   C11       1.0  0.33484  0.15071  0.69914  1.0000
  C   C12       1.0  0.66517  0.84930  0.30086  1.0000
  C   C13       1.0  0.27147  0.09807  0.58929  1.0000
  C   C14       1.0  0.72853  0.90195  0.41071  1.0000
  C   C15       1.0  0.18281  0.42707  0.61642  1.0000
  C   C16       1.0  0.81718  0.57293  0.38358  1.0000
  C   C17       1.0  0.13498  0.37353  0.49680  1.0000
  C   C18       1.0  0.86502  0.62647  0.50320  1.0000
  C   C19       1.0  0.25123  0.41988  0.42389  1.0000
  C   C20       1.0  0.74877  0.58010  0.57610  1.0000
  C   C21       1.0  0.20195  0.37206  0.31224  1.0000
  C   C22       1.0  0.79805  0.62793  0.68775  1.0000
  C   C23       1.0  0.03466  0.27959  0.27372  1.0000
  C   C24       1.0  0.96534  0.72041  0.72628  1.0000
  C   C25       1.0  0.91762  0.23077  0.34537  1.0000
  C   C26       1.0  0.08237  0.76923  0.65463  1.0000
  C   C27       1.0  0.97013  0.27674  0.45716  1.0000
  C   C28       1.0  0.02987  0.72325  0.54283  1.0000
  S   S1        1.0  0.57991  0.30252  0.87166  1.0000
  S   S2        1.0  0.42010  0.69747  0.12835  1.0000
  S   S3        1.0  0.97323  0.22607  0.13021  1.0000
  S   S4        1.0  0.02676  0.77393  0.86979  1.0000
  O   O1        1.0  0.41613  0.10550  0.32058  1.0000
  O   O2        1.0  0.58388  0.89450  0.67942  1.0000
  O   O3        1.0  0.15537  0.99352  0.36924  1.0000
  O   O4        1.0  0.84464  0.00651  0.63077  1.0000
  O   O5        1.0  0.56305  0.17900  0.92515  1.0000
  O   O6        1.0  0.43694  0.82099  0.07485  1.0000
  O   O7        1.0  0.46127  0.38663  0.90740  1.0000
  O   O8        1.0  0.53876  0.61337  0.09260  1.0000
  O   O9        1.0  0.76148  0.39546  0.88044  1.0000
  O   O10       1.0  0.23853  0.60453  0.11957  1.0000
  O   O11       1.0  0.07890  0.38928  0.68183  1.0000
  O   O12       1.0  0.92108  0.61072  0.31817  1.0000
  O   O13       1.0  0.34081  0.51818  0.64440  1.0000
  O   O14       1.0  0.65918  0.48182  0.35560  1.0000
  O   O15       1.0  0.89683  0.33829  0.09614  1.0000
  O   O16       1.0  0.10315  0.66171  0.90385  1.0000
  O   O17       1.0  0.13269  0.22579  0.08289  1.0000
  O   O18       1.0  0.86730  0.77419  0.91710  1.0000
  O   O19       1.0  0.83900  0.08715  0.11187  1.0000
  O   O20       1.0  0.16098  0.91285  0.88812  1.0000
  O   O21       1.0  0.11585  0.36725  0.88943  1.0000
  O   O22       1.0  0.88417  0.63276  0.11057  1.0000
  O   O23       1.0  0.05447  0.91669  0.16140  1.0000
  O   O24       1.0  0.94553  0.08332  0.83860  1.0000
  O   O25       1.0  0.58213  0.36467  0.15577  1.0000
  O   O26       1.0  0.41785  0.63531  0.84424  1.0000
