data_image0
_chemical_formula_structural       Cu4H20C20N4Cl4
_chemical_formula_sum              "Cu4 H20 C20 N4 Cl4"
_cell_length_a       6.61065
_cell_length_b       7.36492
_cell_length_c       12.7808
_cell_angle_alpha    89.9999
_cell_angle_beta     98.8206
_cell_angle_gamma    90.0004

_space_group_name_H-M_alt    "P 1"
_space_group_IT_number       1

loop_
  _space_group_symop_operation_xyz
  'x, y, z'

loop_
  _atom_site_type_symbol
  _atom_site_label
  _atom_site_symmetry_multiplicity
  _atom_site_fract_x
  _atom_site_fract_y
  _atom_site_fract_z
  _atom_site_occupancy
  Cu  Cu1       1.0  0.04581  0.13993  0.59500  1.0000
  Cu  Cu2       1.0  0.45420  0.63993  0.90500  1.0000
  Cu  Cu3       1.0  0.95420  0.86007  0.40500  1.0000
  Cu  Cu4       1.0  0.54579  0.36005  0.09499  1.0000
  H   H1        1.0  0.70158  0.93376  0.90295  1.0000
  H   H2        1.0  0.79841  0.43377  0.59704  1.0000
  H   H3        1.0  0.29840  0.06623  0.09705  1.0000
  H   H4        1.0  0.20159  0.56622  0.40296  1.0000
  H   H5        1.0  0.89580  0.31122  0.96222  1.0000
  H   H6        1.0  0.60421  0.81121  0.53778  1.0000
  H   H7        1.0  0.10421  0.68879  0.03779  1.0000
  H   H8        1.0  0.39580  0.18880  0.46221  1.0000
  H   H9        1.0  0.68182  0.02244  0.08669  1.0000
  H   H10       1.0  0.81817  0.52245  0.41331  1.0000
  H   H11       1.0  0.31817  0.97756  0.91331  1.0000
  H   H12       1.0  0.18185  0.47755  0.58669  1.0000
  H   H13       1.0  0.81190  0.21260  0.24377  1.0000
  H   H14       1.0  0.68808  0.71262  0.25624  1.0000
  H   H15       1.0  0.18806  0.78737  0.75624  1.0000
  H   H16       1.0  0.31195  0.28737  0.74376  1.0000
  H   H17       1.0  0.93064  0.37117  0.15764  1.0000
  H   H18       1.0  0.56934  0.87119  0.34237  1.0000
  H   H19       1.0  0.06934  0.62882  0.84238  1.0000
  H   H20       1.0  0.43068  0.12882  0.65762  1.0000
  C   C1        1.0  0.84235  0.09028  0.79458  1.0000
  C   C2        1.0  0.65766  0.59027  0.70542  1.0000
  C   C3        1.0  0.15767  0.90974  0.20542  1.0000
  C   C4        1.0  0.34234  0.40974  0.29458  1.0000
  C   C5        1.0  0.77616  0.06375  0.89233  1.0000
  C   C6        1.0  0.72383  0.56375  0.60766  1.0000
  C   C7        1.0  0.22384  0.93627  0.10767  1.0000
  C   C8        1.0  0.27617  0.43626  0.39233  1.0000
  C   C9        1.0  0.81442  0.18533  0.97334  1.0000
  C   C10       1.0  0.68557  0.68533  0.52666  1.0000
  C   C11       1.0  0.18558  0.81468  0.02667  1.0000
  C   C12       1.0  0.31445  0.31467  0.47333  1.0000
  C   C13       1.0  0.75858  0.15138  0.07614  1.0000
  C   C14       1.0  0.74141  0.65139  0.42386  1.0000
  C   C15       1.0  0.24141  0.84861  0.92385  1.0000
  C   C16       1.0  0.25860  0.34862  0.57616  1.0000
  C   C17       1.0  0.82563  0.25871  0.16405  1.0000
  C   C18       1.0  0.67436  0.75871  0.33594  1.0000
  C   C19       1.0  0.17432  0.74128  0.83595  1.0000
  C   C20       1.0  0.32567  0.24126  0.66405  1.0000
  N   N1        1.0  0.89964  0.10497  0.71268  1.0000
  N   N2        1.0  0.60037  0.60497  0.78733  1.0000
  N   N3        1.0  0.10038  0.89505  0.28733  1.0000
  N   N4        1.0  0.39961  0.39505  0.21267  1.0000
  Cl  Cl1       1.0  0.19239  0.84164  0.55445  1.0000
  Cl  Cl2       1.0  0.30760  0.34164  0.94555  1.0000
  Cl  Cl3       1.0  0.80762  0.15836  0.44556  1.0000
  Cl  Cl4       1.0  0.69239  0.65835  0.05444  1.0000
