data_image0
_chemical_formula_structural       Hg4H56C56I8N16
_chemical_formula_sum              "Hg4 H56 C56 I8 N16"
_cell_length_a       11.8268
_cell_length_b       11.8268
_cell_length_c       13.1334
_cell_angle_alpha    90
_cell_angle_beta     90
_cell_angle_gamma    90

_space_group_name_H-M_alt    "P 1"
_space_group_IT_number       1

loop_
  _space_group_symop_operation_xyz
  'x, y, z'

loop_
  _atom_site_type_symbol
  _atom_site_label
  _atom_site_symmetry_multiplicity
  _atom_site_fract_x
  _atom_site_fract_y
  _atom_site_fract_z
  _atom_site_occupancy
  Hg  Hg1       1.0  0.75000  0.75000  0.10384  1.0000
  Hg  Hg2       1.0  0.25000  0.25000  0.60384  1.0000
  Hg  Hg3       1.0  0.25000  0.25000  0.89616  1.0000
  Hg  Hg4       1.0  0.75000  0.75000  0.39616  1.0000
  H   H1        1.0  0.61934  0.96331  0.98195  1.0000
  H   H2        1.0  0.03669  0.11934  0.48195  1.0000
  H   H3        1.0  0.46331  0.38066  0.48195  1.0000
  H   H4        1.0  0.88066  0.53669  0.98195  1.0000
  H   H5        1.0  0.38066  0.03669  0.01805  1.0000
  H   H6        1.0  0.96330  0.88066  0.51805  1.0000
  H   H7        1.0  0.53670  0.61934  0.51805  1.0000
  H   H8        1.0  0.11934  0.46330  0.01805  1.0000
  H   H9        1.0  0.48787  0.00207  0.83614  1.0000
  H   H10       1.0  0.99793  0.98787  0.33614  1.0000
  H   H11       1.0  0.50207  0.51213  0.33614  1.0000
  H   H12       1.0  0.01213  0.49793  0.83614  1.0000
  H   H13       1.0  0.51213  0.99793  0.16386  1.0000
  H   H14       1.0  0.00207  0.01213  0.66386  1.0000
  H   H15       1.0  0.49793  0.48787  0.66386  1.0000
  H   H16       1.0  0.98787  0.50207  0.16386  1.0000
  H   H17       1.0  0.47670  0.64254  0.78175  1.0000
  H   H18       1.0  0.35746  0.97670  0.28175  1.0000
  H   H19       1.0  0.14254  0.52330  0.28175  1.0000
  H   H20       1.0  0.02330  0.85746  0.78175  1.0000
  H   H21       1.0  0.52330  0.35746  0.21825  1.0000
  H   H22       1.0  0.64254  0.02330  0.71825  1.0000
  H   H23       1.0  0.85746  0.47670  0.71825  1.0000
  H   H24       1.0  0.97670  0.14254  0.21825  1.0000
  H   H25       1.0  0.60200  0.61738  0.93459  1.0000
  H   H26       1.0  0.38262  0.10200  0.43459  1.0000
  H   H27       1.0  0.11738  0.39800  0.43459  1.0000
  H   H28       1.0  0.89800  0.88262  0.93459  1.0000
  H   H29       1.0  0.39800  0.38262  0.06541  1.0000
  H   H30       1.0  0.61738  0.89800  0.56541  1.0000
  H   H31       1.0  0.88262  0.60200  0.56541  1.0000
  H   H32       1.0  0.10200  0.11738  0.06541  1.0000
  H   H33       1.0  0.36884  0.93148  0.69706  1.0000
  H   H34       1.0  0.06852  0.86884  0.19706  1.0000
  H   H35       1.0  0.43148  0.63116  0.19706  1.0000
  H   H36       1.0  0.13116  0.56852  0.69706  1.0000
  H   H37       1.0  0.63116  0.06852  0.30294  1.0000
  H   H38       1.0  0.93148  0.13116  0.80294  1.0000
  H   H39       1.0  0.56852  0.36884  0.80294  1.0000
  H   H40       1.0  0.86884  0.43148  0.30294  1.0000
  H   H41       1.0  0.34899  0.77511  0.49079  1.0000
  H   H42       1.0  0.22489  0.84899  0.99079  1.0000
  H   H43       1.0  0.27511  0.65101  0.99079  1.0000
  H   H44       1.0  0.15101  0.72489  0.49079  1.0000
  H   H45       1.0  0.65101  0.22489  0.50921  1.0000
  H   H46       1.0  0.77511  0.15101  0.00921  1.0000
  H   H47       1.0  0.72489  0.34899  0.00921  1.0000
  H   H48       1.0  0.84899  0.27511  0.50921  1.0000
  H   H49       1.0  0.27153  0.87868  0.56191  1.0000
  H   H50       1.0  0.12132  0.77153  0.06191  1.0000
  H   H51       1.0  0.37868  0.72847  0.06191  1.0000
  H   H52       1.0  0.22847  0.62132  0.56191  1.0000
  H   H53       1.0  0.72847  0.12132  0.43809  1.0000
  H   H54       1.0  0.87868  0.22847  0.93809  1.0000
  H   H55       1.0  0.62132  0.27153  0.93809  1.0000
  H   H56       1.0  0.77153  0.37868  0.43809  1.0000
  C   C1        1.0  0.58400  0.89447  0.93662  1.0000
  C   C2        1.0  0.10552  0.08400  0.43662  1.0000
  C   C3        1.0  0.39447  0.41600  0.43662  1.0000
  C   C4        1.0  0.91600  0.60553  0.93662  1.0000
  C   C5        1.0  0.41600  0.10552  0.06338  1.0000
  C   C6        1.0  0.89447  0.91600  0.56338  1.0000
  C   C7        1.0  0.60553  0.58400  0.56338  1.0000
  C   C8        1.0  0.08400  0.39447  0.06338  1.0000
  C   C9        1.0  0.51197  0.91555  0.85491  1.0000
  C   C10       1.0  0.08445  0.01197  0.35491  1.0000
  C   C11       1.0  0.41555  0.48803  0.35491  1.0000
  C   C12       1.0  0.98803  0.58445  0.85491  1.0000
  C   C13       1.0  0.48803  0.08445  0.14509  1.0000
  C   C14       1.0  0.91555  0.98803  0.64509  1.0000
  C   C15       1.0  0.58445  0.51197  0.64509  1.0000
  C   C16       1.0  0.01197  0.41555  0.14509  1.0000
  C   C17       1.0  0.47276  0.82444  0.79646  1.0000
  C   C18       1.0  0.17556  0.97276  0.29646  1.0000
  C   C19       1.0  0.32444  0.52724  0.29646  1.0000
  C   C20       1.0  0.02724  0.67556  0.79646  1.0000
  C   C21       1.0  0.52724  0.17556  0.20354  1.0000
  C   C22       1.0  0.82444  0.02724  0.70354  1.0000
  C   C23       1.0  0.67556  0.47276  0.70354  1.0000
  C   C24       1.0  0.97276  0.32444  0.20354  1.0000
  C   C25       1.0  0.50619  0.71515  0.82497  1.0000
  C   C26       1.0  0.28485  0.00620  0.32497  1.0000
  C   C27       1.0  0.21515  0.49381  0.32497  1.0000
  C   C28       1.0  0.99381  0.78485  0.82497  1.0000
  C   C29       1.0  0.49380  0.28485  0.17503  1.0000
  C   C30       1.0  0.71515  0.99380  0.67503  1.0000
  C   C31       1.0  0.78485  0.50619  0.67503  1.0000
  C   C32       1.0  0.00620  0.21515  0.17503  1.0000
  C   C33       1.0  0.57592  0.70130  0.90887  1.0000
  C   C34       1.0  0.29870  0.07592  0.40887  1.0000
  C   C35       1.0  0.20130  0.42408  0.40887  1.0000
  C   C36       1.0  0.92408  0.79870  0.90887  1.0000
  C   C37       1.0  0.42408  0.29870  0.09113  1.0000
  C   C38       1.0  0.70130  0.92408  0.59113  1.0000
  C   C39       1.0  0.79870  0.57592  0.59113  1.0000
  C   C40       1.0  0.07592  0.20130  0.09113  1.0000
  C   C41       1.0  0.39962  0.84407  0.70760  1.0000
  C   C42       1.0  0.15593  0.89962  0.20760  1.0000
  C   C43       1.0  0.34407  0.60038  0.20760  1.0000
  C   C44       1.0  0.10038  0.65593  0.70760  1.0000
  C   C45       1.0  0.60038  0.15593  0.29240  1.0000
  C   C46       1.0  0.84407  0.10038  0.79240  1.0000
  C   C47       1.0  0.65593  0.39962  0.79240  1.0000
  C   C48       1.0  0.89962  0.34407  0.29240  1.0000
  C   C49       1.0  0.30096  0.78987  0.56153  1.0000
  C   C50       1.0  0.21013  0.80095  0.06153  1.0000
  C   C51       1.0  0.28987  0.69904  0.06153  1.0000
  C   C52       1.0  0.19905  0.71013  0.56153  1.0000
  C   C53       1.0  0.69904  0.21013  0.43847  1.0000
  C   C54       1.0  0.78987  0.19905  0.93847  1.0000
  C   C55       1.0  0.71013  0.30095  0.93847  1.0000
  C   C56       1.0  0.80095  0.28987  0.43847  1.0000
  I   I1        1.0  0.68710  0.53791  0.15519  1.0000
  I   I2        1.0  0.46208  0.18710  0.65519  1.0000
  I   I3        1.0  0.03791  0.31290  0.65518  1.0000
  I   I4        1.0  0.81290  0.96209  0.15519  1.0000
  I   I5        1.0  0.31290  0.46209  0.84481  1.0000
  I   I6        1.0  0.53791  0.81290  0.34481  1.0000
  I   I7        1.0  0.96209  0.68710  0.34481  1.0000
  I   I8        1.0  0.18710  0.03791  0.84481  1.0000
  N   N1        1.0  0.61469  0.78942  0.96355  1.0000
  N   N2        1.0  0.21058  0.11469  0.46355  1.0000
  N   N3        1.0  0.28942  0.38531  0.46355  1.0000
  N   N4        1.0  0.88531  0.71058  0.96355  1.0000
  N   N5        1.0  0.38531  0.21058  0.03645  1.0000
  N   N6        1.0  0.78942  0.88531  0.53645  1.0000
  N   N7        1.0  0.71058  0.61469  0.53645  1.0000
  N   N8        1.0  0.11469  0.28942  0.03645  1.0000
  N   N9        1.0  0.37445  0.76381  0.64643  1.0000
  N   N10       1.0  0.23619  0.87445  0.14643  1.0000
  N   N11       1.0  0.26381  0.62555  0.14643  1.0000
  N   N12       1.0  0.12555  0.73619  0.64643  1.0000
  N   N13       1.0  0.62555  0.23619  0.35357  1.0000
  N   N14       1.0  0.76381  0.12555  0.85357  1.0000
  N   N15       1.0  0.73619  0.37445  0.85357  1.0000
  N   N16       1.0  0.87445  0.26381  0.35357  1.0000
