data_image0
_chemical_formula_structural       Hg4H56C56Br8N16
_chemical_formula_sum              "Hg4 H56 C56 Br8 N16"
_cell_length_a       11.4901
_cell_length_b       11.4901
_cell_length_c       12.99
_cell_angle_alpha    90
_cell_angle_beta     90
_cell_angle_gamma    90

_space_group_name_H-M_alt    "P 1"
_space_group_IT_number       1

loop_
  _space_group_symop_operation_xyz
  'x, y, z'

loop_
  _atom_site_type_symbol
  _atom_site_label
  _atom_site_symmetry_multiplicity
  _atom_site_fract_x
  _atom_site_fract_y
  _atom_site_fract_z
  _atom_site_occupancy
  Hg  Hg1       1.0  0.25000  0.25000  0.11396  1.0000
  Hg  Hg2       1.0  0.75000  0.75000  0.61396  1.0000
  Hg  Hg3       1.0  0.75000  0.75000  0.88604  1.0000
  Hg  Hg4       1.0  0.25000  0.25000  0.38604  1.0000
  H   H1        1.0  0.46768  0.37278  0.98478  1.0000
  H   H2        1.0  0.62722  0.96768  0.48478  1.0000
  H   H3        1.0  0.87278  0.53232  0.48478  1.0000
  H   H4        1.0  0.03232  0.12722  0.98478  1.0000
  H   H5        1.0  0.53232  0.62722  0.01522  1.0000
  H   H6        1.0  0.37278  0.03232  0.51522  1.0000
  H   H7        1.0  0.12722  0.46768  0.51522  1.0000
  H   H8        1.0  0.96768  0.87278  0.01522  1.0000
  H   H9        1.0  0.50851  0.50315  0.83420  1.0000
  H   H10       1.0  0.49685  0.00852  0.33420  1.0000
  H   H11       1.0  0.00315  0.49149  0.33420  1.0000
  H   H12       1.0  0.99149  0.99685  0.83420  1.0000
  H   H13       1.0  0.49149  0.49685  0.16580  1.0000
  H   H14       1.0  0.50315  0.99149  0.66580  1.0000
  H   H15       1.0  0.99685  0.50851  0.66580  1.0000
  H   H16       1.0  0.00851  0.00315  0.16580  1.0000
  H   H17       1.0  0.13715  0.53515  0.79228  1.0000
  H   H18       1.0  0.46485  0.63715  0.29228  1.0000
  H   H19       1.0  0.03515  0.86285  0.29228  1.0000
  H   H20       1.0  0.36285  0.96485  0.79228  1.0000
  H   H21       1.0  0.86285  0.46485  0.20772  1.0000
  H   H22       1.0  0.53515  0.36285  0.70772  1.0000
  H   H23       1.0  0.96485  0.13715  0.70772  1.0000
  H   H24       1.0  0.63715  0.03515  0.20772  1.0000
  H   H25       1.0  0.11134  0.40872  0.94869  1.0000
  H   H26       1.0  0.59128  0.61134  0.44869  1.0000
  H   H27       1.0  0.90872  0.88866  0.44869  1.0000
  H   H28       1.0  0.38866  0.09128  0.94869  1.0000
  H   H29       1.0  0.88866  0.59128  0.05131  1.0000
  H   H30       1.0  0.40872  0.38866  0.55131  1.0000
  H   H31       1.0  0.09128  0.11134  0.55131  1.0000
  H   H32       1.0  0.61134  0.90872  0.05131  1.0000
  H   H33       1.0  0.43557  0.63214  0.69790  1.0000
  H   H34       1.0  0.36786  0.93557  0.19790  1.0000
  H   H35       1.0  0.13214  0.56443  0.19790  1.0000
  H   H36       1.0  0.06443  0.86786  0.69790  1.0000
  H   H37       1.0  0.56443  0.36786  0.30210  1.0000
  H   H38       1.0  0.63214  0.06443  0.80210  1.0000
  H   H39       1.0  0.86786  0.43557  0.80210  1.0000
  H   H40       1.0  0.93557  0.13214  0.30210  1.0000
  H   H41       1.0  0.27549  0.64738  0.48688  1.0000
  H   H42       1.0  0.35262  0.77549  0.98688  1.0000
  H   H43       1.0  0.14738  0.72451  0.98688  1.0000
  H   H44       1.0  0.22451  0.85262  0.48688  1.0000
  H   H45       1.0  0.72451  0.35262  0.51312  1.0000
  H   H46       1.0  0.64738  0.22451  0.01312  1.0000
  H   H47       1.0  0.85262  0.27549  0.01312  1.0000
  H   H48       1.0  0.77549  0.14738  0.51312  1.0000
  H   H49       1.0  0.38219  0.72730  0.55850  1.0000
  H   H50       1.0  0.27270  0.88220  0.05850  1.0000
  H   H51       1.0  0.22730  0.61781  0.05850  1.0000
  H   H52       1.0  0.11780  0.77270  0.55850  1.0000
  H   H53       1.0  0.61780  0.27270  0.44150  1.0000
  H   H54       1.0  0.72730  0.11780  0.94150  1.0000
  H   H55       1.0  0.77270  0.38220  0.94150  1.0000
  H   H56       1.0  0.88219  0.22730  0.44150  1.0000
  C   C1        1.0  0.39702  0.41197  0.94074  1.0000
  C   C2        1.0  0.58803  0.89702  0.44074  1.0000
  C   C3        1.0  0.91197  0.60298  0.44074  1.0000
  C   C4        1.0  0.10298  0.08803  0.94074  1.0000
  C   C5        1.0  0.60298  0.58803  0.05926  1.0000
  C   C6        1.0  0.41197  0.10298  0.55926  1.0000
  C   C7        1.0  0.08803  0.39702  0.55926  1.0000
  C   C8        1.0  0.89702  0.91197  0.05926  1.0000
  C   C9        1.0  0.41910  0.48342  0.85640  1.0000
  C   C10       1.0  0.51658  0.91910  0.35640  1.0000
  C   C11       1.0  0.98342  0.58090  0.35640  1.0000
  C   C12       1.0  0.08090  0.01658  0.85641  1.0000
  C   C13       1.0  0.58090  0.51658  0.14359  1.0000
  C   C14       1.0  0.48342  0.08090  0.64360  1.0000
  C   C15       1.0  0.01658  0.41910  0.64360  1.0000
  C   C16       1.0  0.91910  0.98342  0.14360  1.0000
  C   C17       1.0  0.32506  0.52777  0.80002  1.0000
  C   C18       1.0  0.47223  0.82506  0.30002  1.0000
  C   C19       1.0  0.02777  0.67494  0.30002  1.0000
  C   C20       1.0  0.17494  0.97223  0.80003  1.0000
  C   C21       1.0  0.67494  0.47223  0.19997  1.0000
  C   C22       1.0  0.52777  0.17494  0.69998  1.0000
  C   C23       1.0  0.97223  0.32506  0.69998  1.0000
  C   C24       1.0  0.82506  0.02777  0.19998  1.0000
  C   C25       1.0  0.21207  0.50030  0.83307  1.0000
  C   C26       1.0  0.49970  0.71207  0.33307  1.0000
  C   C27       1.0  0.00030  0.78793  0.33307  1.0000
  C   C28       1.0  0.28793  0.99969  0.83308  1.0000
  C   C29       1.0  0.78793  0.49969  0.16692  1.0000
  C   C30       1.0  0.50031  0.28793  0.66693  1.0000
  C   C31       1.0  0.99969  0.21207  0.66693  1.0000
  C   C32       1.0  0.71207  0.00030  0.16693  1.0000
  C   C33       1.0  0.19766  0.43074  0.91930  1.0000
  C   C34       1.0  0.56926  0.69766  0.41930  1.0000
  C   C35       1.0  0.93074  0.80234  0.41930  1.0000
  C   C36       1.0  0.30234  0.06926  0.91931  1.0000
  C   C37       1.0  0.80234  0.56926  0.08069  1.0000
  C   C38       1.0  0.43074  0.30234  0.58070  1.0000
  C   C39       1.0  0.06926  0.19766  0.58070  1.0000
  C   C40       1.0  0.69766  0.93074  0.08070  1.0000
  C   C41       1.0  0.34573  0.60017  0.70844  1.0000
  C   C42       1.0  0.39983  0.84573  0.20844  1.0000
  C   C43       1.0  0.10017  0.65427  0.20844  1.0000
  C   C44       1.0  0.15427  0.89983  0.70844  1.0000
  C   C45       1.0  0.65427  0.39983  0.29156  1.0000
  C   C46       1.0  0.60017  0.15427  0.79156  1.0000
  C   C47       1.0  0.89983  0.34573  0.79156  1.0000
  C   C48       1.0  0.84573  0.10017  0.29156  1.0000
  C   C49       1.0  0.29080  0.69725  0.55814  1.0000
  C   C50       1.0  0.30275  0.79080  0.05814  1.0000
  C   C51       1.0  0.19725  0.70920  0.05814  1.0000
  C   C52       1.0  0.20920  0.80275  0.55814  1.0000
  C   C53       1.0  0.70920  0.30275  0.44186  1.0000
  C   C54       1.0  0.69725  0.20920  0.94186  1.0000
  C   C55       1.0  0.80275  0.29080  0.94186  1.0000
  C   C56       1.0  0.79080  0.19725  0.44186  1.0000
  Br  Br1       1.0  0.04247  0.30892  0.15897  1.0000
  Br  Br2       1.0  0.69108  0.54247  0.65897  1.0000
  Br  Br3       1.0  0.80892  0.95753  0.65897  1.0000
  Br  Br4       1.0  0.45753  0.19108  0.15897  1.0000
  Br  Br5       1.0  0.95753  0.69108  0.84103  1.0000
  Br  Br6       1.0  0.30892  0.45753  0.34103  1.0000
  Br  Br7       1.0  0.19108  0.04247  0.34103  1.0000
  Br  Br8       1.0  0.54247  0.80892  0.84103  1.0000
  N   N1        1.0  0.28858  0.38700  0.97209  1.0000
  N   N2        1.0  0.61300  0.78858  0.47209  1.0000
  N   N3        1.0  0.88700  0.71142  0.47209  1.0000
  N   N4        1.0  0.21142  0.11300  0.97209  1.0000
  N   N5        1.0  0.71142  0.61300  0.02791  1.0000
  N   N6        1.0  0.38700  0.21142  0.52791  1.0000
  N   N7        1.0  0.11300  0.28858  0.52791  1.0000
  N   N8        1.0  0.78858  0.88700  0.02791  1.0000
  N   N9        1.0  0.26376  0.62293  0.64495  1.0000
  N   N10       1.0  0.37707  0.76376  0.14495  1.0000
  N   N11       1.0  0.12293  0.73624  0.14495  1.0000
  N   N12       1.0  0.23624  0.87707  0.64495  1.0000
  N   N13       1.0  0.73624  0.37707  0.35505  1.0000
  N   N14       1.0  0.62293  0.23624  0.85505  1.0000
  N   N15       1.0  0.87707  0.26376  0.85505  1.0000
  N   N16       1.0  0.76376  0.12293  0.35505  1.0000
