data_image0
_chemical_formula_structural       Cu4H48C56N8Cl8O8
_chemical_formula_sum              "Cu4 H48 C56 N8 Cl8 O8"
_cell_length_a       6.80011
_cell_length_b       13.1565
_cell_length_c       19.925
_cell_angle_alpha    90
_cell_angle_beta     90
_cell_angle_gamma    90

_space_group_name_H-M_alt    "P 1"
_space_group_IT_number       1

loop_
  _space_group_symop_operation_xyz
  'x, y, z'

loop_
  _atom_site_type_symbol
  _atom_site_label
  _atom_site_symmetry_multiplicity
  _atom_site_fract_x
  _atom_site_fract_y
  _atom_site_fract_z
  _atom_site_occupancy
  Cu  Cu1       1.0  0.25000  0.00000  0.02972  1.0000
  Cu  Cu2       1.0  0.75000  0.50000  0.47028  1.0000
  Cu  Cu3       1.0  0.75000  0.00000  0.97028  1.0000
  Cu  Cu4       1.0  0.25000  0.50000  0.52972  1.0000
  H   H1        1.0  0.39143  0.09698  0.28221  1.0000
  H   H2        1.0  0.89144  0.40302  0.21777  1.0000
  H   H3        1.0  0.60856  0.59698  0.21777  1.0000
  H   H4        1.0  0.10857  0.90302  0.28221  1.0000
  H   H5        1.0  0.60857  0.90302  0.71779  1.0000
  H   H6        1.0  0.10855  0.59698  0.78223  1.0000
  H   H7        1.0  0.39145  0.40302  0.78223  1.0000
  H   H8        1.0  0.89143  0.09698  0.71779  1.0000
  H   H9        1.0  0.25348  0.17839  0.38428  1.0000
  H   H10       1.0  0.75347  0.32160  0.11570  1.0000
  H   H11       1.0  0.74654  0.67840  0.11570  1.0000
  H   H12       1.0  0.24652  0.82161  0.38428  1.0000
  H   H13       1.0  0.74651  0.82161  0.61572  1.0000
  H   H14       1.0  0.24652  0.67840  0.88430  1.0000
  H   H15       1.0  0.25348  0.32160  0.88430  1.0000
  H   H16       1.0  0.75349  0.17838  0.61572  1.0000
  H   H17       1.0  0.89763  0.22097  0.38956  1.0000
  H   H18       1.0  0.39764  0.27900  0.11044  1.0000
  H   H19       1.0  0.10237  0.72100  0.11043  1.0000
  H   H20       1.0  0.60237  0.77903  0.38956  1.0000
  H   H21       1.0  0.10235  0.77901  0.61044  1.0000
  H   H22       1.0  0.60236  0.72097  0.88958  1.0000
  H   H23       1.0  0.89764  0.27902  0.88958  1.0000
  H   H24       1.0  0.39765  0.22098  0.61044  1.0000
  H   H25       1.0  0.68084  0.18493  0.29215  1.0000
  H   H26       1.0  0.18084  0.31508  0.20785  1.0000
  H   H27       1.0  0.31916  0.68492  0.20785  1.0000
  H   H28       1.0  0.81916  0.81507  0.29215  1.0000
  H   H29       1.0  0.31914  0.81507  0.70785  1.0000
  H   H30       1.0  0.81915  0.68493  0.79216  1.0000
  H   H31       1.0  0.68085  0.31507  0.79216  1.0000
  H   H32       1.0  0.18085  0.18492  0.70785  1.0000
  H   H33       1.0  0.81924  0.10690  0.18879  1.0000
  H   H34       1.0  0.31927  0.39310  0.31121  1.0000
  H   H35       1.0  0.18073  0.60690  0.31121  1.0000
  H   H36       1.0  0.68076  0.89309  0.18878  1.0000
  H   H37       1.0  0.18077  0.89309  0.81122  1.0000
  H   H38       1.0  0.68073  0.60692  0.68880  1.0000
  H   H39       1.0  0.81927  0.39309  0.68880  1.0000
  H   H40       1.0  0.31923  0.10691  0.81122  1.0000
  H   H41       1.0  0.05346  0.17621  0.04938  1.0000
  H   H42       1.0  0.55340  0.32377  0.45058  1.0000
  H   H43       1.0  0.94659  0.67623  0.45058  1.0000
  H   H44       1.0  0.44654  0.82380  0.04938  1.0000
  H   H45       1.0  0.94660  0.82380  0.95062  1.0000
  H   H46       1.0  0.44654  0.67623  0.54941  1.0000
  H   H47       1.0  0.05346  0.32377  0.54941  1.0000
  H   H48       1.0  0.55340  0.17620  0.95062  1.0000
  C   C1        1.0  0.19170  0.04784  0.16782  1.0000
  C   C2        1.0  0.69169  0.45217  0.33217  1.0000
  C   C3        1.0  0.80831  0.54783  0.33217  1.0000
  C   C4        1.0  0.30831  0.95217  0.16782  1.0000
  C   C5        1.0  0.80831  0.95217  0.83218  1.0000
  C   C6        1.0  0.30831  0.54783  0.66784  1.0000
  C   C7        1.0  0.19169  0.45217  0.66784  1.0000
  C   C8        1.0  0.69170  0.04784  0.83218  1.0000
  C   C9        1.0  0.11409  0.09564  0.22918  1.0000
  C   C10       1.0  0.61409  0.40436  0.27080  1.0000
  C   C11       1.0  0.88591  0.59565  0.27080  1.0000
  C   C12       1.0  0.38591  0.90436  0.22918  1.0000
  C   C13       1.0  0.88592  0.90436  0.77082  1.0000
  C   C14       1.0  0.38590  0.59565  0.72920  1.0000
  C   C15       1.0  0.11410  0.40435  0.72920  1.0000
  C   C16       1.0  0.61409  0.09564  0.77082  1.0000
  C   C17       1.0  0.23573  0.11573  0.28459  1.0000
  C   C18       1.0  0.73575  0.38427  0.21540  1.0000
  C   C19       1.0  0.76426  0.61573  0.21540  1.0000
  C   C20       1.0  0.26428  0.88427  0.28459  1.0000
  C   C21       1.0  0.76428  0.88428  0.71542  1.0000
  C   C22       1.0  0.26426  0.61573  0.78460  1.0000
  C   C23       1.0  0.23575  0.38427  0.78460  1.0000
  C   C24       1.0  0.73572  0.11572  0.71542  1.0000
  C   C25       1.0  0.15785  0.16076  0.34199  1.0000
  C   C26       1.0  0.65786  0.33923  0.15800  1.0000
  C   C27       1.0  0.84214  0.66077  0.15799  1.0000
  C   C28       1.0  0.34214  0.83923  0.34199  1.0000
  C   C29       1.0  0.84213  0.83924  0.65801  1.0000
  C   C30       1.0  0.34212  0.66077  0.84201  1.0000
  C   C31       1.0  0.15787  0.33923  0.84201  1.0000
  C   C32       1.0  0.65788  0.16076  0.65801  1.0000
  C   C33       1.0  0.95805  0.18492  0.34488  1.0000
  C   C34       1.0  0.45805  0.31507  0.15511  1.0000
  C   C35       1.0  0.04195  0.68492  0.15511  1.0000
  C   C36       1.0  0.54195  0.81508  0.34488  1.0000
  C   C37       1.0  0.04194  0.81508  0.65512  1.0000
  C   C38       1.0  0.54195  0.68492  0.84490  1.0000
  C   C39       1.0  0.95806  0.31508  0.84489  1.0000
  C   C40       1.0  0.45805  0.18492  0.65512  1.0000
  C   C41       1.0  0.83601  0.16448  0.29007  1.0000
  C   C42       1.0  0.33602  0.33552  0.20992  1.0000
  C   C43       1.0  0.16398  0.66448  0.20992  1.0000
  C   C44       1.0  0.66400  0.83551  0.29007  1.0000
  C   C45       1.0  0.16400  0.83552  0.70992  1.0000
  C   C46       1.0  0.66399  0.66449  0.79009  1.0000
  C   C47       1.0  0.83602  0.33551  0.79009  1.0000
  C   C48       1.0  0.33599  0.16448  0.70992  1.0000
  C   C49       1.0  0.91327  0.12088  0.23209  1.0000
  C   C50       1.0  0.41330  0.37912  0.26789  1.0000
  C   C51       1.0  0.08670  0.62088  0.26789  1.0000
  C   C52       1.0  0.58673  0.87912  0.23209  1.0000
  C   C53       1.0  0.08672  0.87912  0.76790  1.0000
  C   C54       1.0  0.58670  0.62089  0.73211  1.0000
  C   C55       1.0  0.91330  0.37911  0.73211  1.0000
  C   C56       1.0  0.41328  0.12088  0.76790  1.0000
  N   N1        1.0  0.16064  0.08295  0.10758  1.0000
  N   N2        1.0  0.66054  0.41708  0.39240  1.0000
  N   N3        1.0  0.83946  0.58292  0.39240  1.0000
  N   N4        1.0  0.33936  0.91705  0.10758  1.0000
  N   N5        1.0  0.83940  0.91706  0.89243  1.0000
  N   N6        1.0  0.33944  0.58293  0.60760  1.0000
  N   N7        1.0  0.16056  0.41707  0.60760  1.0000
  N   N8        1.0  0.66061  0.08294  0.89243  1.0000
  Cl  Cl1       1.0  0.11896  0.11289  0.95657  1.0000
  Cl  Cl2       1.0  0.61903  0.38708  0.54339  1.0000
  Cl  Cl3       1.0  0.88097  0.61292  0.54339  1.0000
  Cl  Cl4       1.0  0.38104  0.88712  0.95657  1.0000
  Cl  Cl5       1.0  0.88108  0.88713  0.04342  1.0000
  Cl  Cl6       1.0  0.38092  0.61294  0.45661  1.0000
  Cl  Cl7       1.0  0.11907  0.38707  0.45661  1.0000
  Cl  Cl8       1.0  0.61892  0.11287  0.04342  1.0000
  O   O1        1.0  0.06418  0.17275  0.09973  1.0000
  O   O2        1.0  0.56419  0.32724  0.40023  1.0000
  O   O3        1.0  0.93581  0.67277  0.40024  1.0000
  O   O4        1.0  0.43582  0.82725  0.09973  1.0000
  O   O5        1.0  0.93583  0.82725  0.90027  1.0000
  O   O6        1.0  0.43582  0.67276  0.59976  1.0000
  O   O7        1.0  0.06418  0.32724  0.59976  1.0000
  O   O8        1.0  0.56418  0.17275  0.90027  1.0000
