data_image0
_chemical_formula_structural       Zn2H32C20O20
_chemical_formula_sum              "Zn2 H32 C20 O20"
_cell_length_a       7.28446
_cell_length_b       8.49485
_cell_length_c       11.3089
_cell_angle_alpha    96.0867
_cell_angle_beta     89.9989
_cell_angle_gamma    89.9999

_space_group_name_H-M_alt    "P 1"
_space_group_IT_number       1

loop_
  _space_group_symop_operation_xyz
  'x, y, z'

loop_
  _atom_site_type_symbol
  _atom_site_label
  _atom_site_symmetry_multiplicity
  _atom_site_fract_x
  _atom_site_fract_y
  _atom_site_fract_z
  _atom_site_occupancy
  Zn  Zn1       1.0  0.50000  0.50000  0.49999  1.0000
  Zn  Zn2       1.0  0.99999  0.00000  0.50000  1.0000
  H   H1        1.0  0.15701  0.80586  0.16413  1.0000
  H   H2        1.0  0.65701  0.69414  0.83587  1.0000
  H   H3        1.0  0.84299  0.19415  0.83587  1.0000
  H   H4        1.0  0.34299  0.30586  0.16413  1.0000
  H   H5        1.0  0.81515  0.47092  0.42139  1.0000
  H   H6        1.0  0.31515  0.02907  0.57861  1.0000
  H   H7        1.0  0.18485  0.52908  0.57861  1.0000
  H   H8        1.0  0.68485  0.97093  0.42139  1.0000
  H   H9        1.0  0.84340  0.57284  0.55074  1.0000
  H   H10       1.0  0.34340  0.92716  0.44925  1.0000
  H   H11       1.0  0.15660  0.42717  0.44926  1.0000
  H   H12       1.0  0.65660  0.07284  0.55075  1.0000
  H   H13       1.0  0.50373  0.74757  0.66825  1.0000
  H   H14       1.0  0.00372  0.75244  0.33175  1.0000
  H   H15       1.0  0.49627  0.25244  0.33175  1.0000
  H   H16       1.0  0.99627  0.24757  0.66825  1.0000
  H   H17       1.0  0.59536  0.81958  0.55789  1.0000
  H   H18       1.0  0.09534  0.68042  0.44211  1.0000
  H   H19       1.0  0.40464  0.18041  0.44211  1.0000
  H   H20       1.0  0.90464  0.31959  0.55789  1.0000
  H   H21       1.0  0.55474  0.57360  0.09897  1.0000
  H   H22       1.0  0.05474  0.92639  0.90102  1.0000
  H   H23       1.0  0.44527  0.42639  0.90102  1.0000
  H   H24       1.0  0.94526  0.07361  0.09897  1.0000
  H   H25       1.0  0.67576  0.74275  0.16100  1.0000
  H   H26       1.0  0.17576  0.75725  0.83900  1.0000
  H   H27       1.0  0.32424  0.25725  0.83900  1.0000
  H   H28       1.0  0.82424  0.24275  0.16100  1.0000
  H   H29       1.0  0.69853  0.36975  0.96762  1.0000
  H   H30       1.0  0.19853  0.13025  0.03238  1.0000
  H   H31       1.0  0.30147  0.63024  0.03238  1.0000
  H   H32       1.0  0.80148  0.86976  0.96763  1.0000
  C   C1        1.0  0.68082  0.55182  0.26668  1.0000
  C   C2        1.0  0.18082  0.94818  0.73332  1.0000
  C   C3        1.0  0.31918  0.44818  0.73332  1.0000
  C   C4        1.0  0.81918  0.05182  0.26668  1.0000
  C   C5        1.0  0.68273  0.61291  0.14406  1.0000
  C   C6        1.0  0.18273  0.88709  0.85594  1.0000
  C   C7        1.0  0.31727  0.38709  0.85594  1.0000
  C   C8        1.0  0.81727  0.11291  0.14406  1.0000
  C   C9        1.0  0.84485  0.55884  0.06856  1.0000
  C   C10       1.0  0.34485  0.94116  0.93144  1.0000
  C   C11       1.0  0.15515  0.44115  0.93144  1.0000
  C   C12       1.0  0.65515  0.05884  0.06857  1.0000
  C   C13       1.0  0.83078  0.42927  0.98163  1.0000
  C   C14       1.0  0.33078  0.07073  0.01838  1.0000
  C   C15       1.0  0.16922  0.57072  0.01838  1.0000
  C   C16       1.0  0.66923  0.92928  0.98162  1.0000
  C   C17       1.0  0.01848  0.62925  0.08516  1.0000
  C   C18       1.0  0.51849  0.87075  0.91484  1.0000
  C   C19       1.0  0.98152  0.37075  0.91484  1.0000
  C   C20       1.0  0.48152  0.12926  0.08516  1.0000
  O   O1        1.0  0.53791  0.58139  0.32986  1.0000
  O   O2        1.0  0.03792  0.91861  0.67014  1.0000
  O   O3        1.0  0.46208  0.41860  0.67013  1.0000
  O   O4        1.0  0.96208  0.08138  0.32986  1.0000
  O   O5        1.0  0.82259  0.47805  0.29748  1.0000
  O   O6        1.0  0.32259  0.02195  0.70251  1.0000
  O   O7        1.0  0.17740  0.52195  0.70251  1.0000
  O   O8        1.0  0.67741  0.97805  0.29748  1.0000
  O   O9        1.0  0.03507  0.75941  0.16943  1.0000
  O   O10       1.0  0.53507  0.74059  0.83058  1.0000
  O   O11       1.0  0.96494  0.24059  0.83058  1.0000
  O   O12       1.0  0.46493  0.25942  0.16942  1.0000
  O   O13       1.0  0.79256  0.47241  0.51538  1.0000
  O   O14       1.0  0.29256  0.02758  0.48462  1.0000
  O   O15       1.0  0.20744  0.52759  0.48462  1.0000
  O   O16       1.0  0.70744  0.97242  0.51538  1.0000
  O   O17       1.0  0.51306  0.73313  0.58106  1.0000
  O   O18       1.0  0.01301  0.76685  0.41894  1.0000
  O   O19       1.0  0.48696  0.26685  0.41894  1.0000
  O   O20       1.0  0.98695  0.23314  0.58106  1.0000
