data_image0
_chemical_formula_structural       Cd2H30C32S2N4Cl2O4
_chemical_formula_sum              "Cd2 H30 C32 S2 N4 Cl2 O4"
_cell_length_a       9.06914
_cell_length_b       9.39647
_cell_length_c       10.6055
_cell_angle_alpha    72.535
_cell_angle_beta     78.4072
_cell_angle_gamma    82.4078

_space_group_name_H-M_alt    "P 1"
_space_group_IT_number       1

loop_
  _space_group_symop_operation_xyz
  'x, y, z'

loop_
  _atom_site_type_symbol
  _atom_site_label
  _atom_site_symmetry_multiplicity
  _atom_site_fract_x
  _atom_site_fract_y
  _atom_site_fract_z
  _atom_site_occupancy
  Cd  Cd1       1.0  0.17509  0.06088  0.53988  1.0000
  Cd  Cd2       1.0  0.82491  0.93912  0.46012  1.0000
  H   H1        1.0  0.27381  0.98724  0.86997  1.0000
  H   H2        1.0  0.72619  0.01277  0.13003  1.0000
  H   H3        1.0  0.66482  0.52563  0.35158  1.0000
  H   H4        1.0  0.33518  0.47436  0.64843  1.0000
  H   H5        1.0  0.79599  0.54469  0.19942  1.0000
  H   H6        1.0  0.20400  0.45530  0.80059  1.0000
  H   H7        1.0  0.65556  0.41643  0.24297  1.0000
  H   H8        1.0  0.34443  0.58357  0.75703  1.0000
  H   H9        1.0  0.50152  0.74640  0.33833  1.0000
  H   H10       1.0  0.49848  0.25361  0.66167  1.0000
  H   H11       1.0  0.32540  0.94175  0.22496  1.0000
  H   H12       1.0  0.67461  0.05826  0.77504  1.0000
  H   H13       1.0  0.44815  0.78028  0.87346  1.0000
  H   H14       1.0  0.55185  0.21973  0.12654  1.0000
  H   H15       1.0  0.61808  0.58084  0.99121  1.0000
  H   H16       1.0  0.38192  0.41917  0.00879  1.0000
  H   H17       1.0  0.17393  0.08646  0.11478  1.0000
  H   H18       1.0  0.82607  0.91354  0.88522  1.0000
  H   H19       1.0  0.98925  0.28996  0.08827  1.0000
  H   H20       1.0  0.01074  0.71004  0.91173  1.0000
  H   H21       1.0  0.81703  0.47240  0.95145  1.0000
  H   H22       1.0  0.18297  0.52760  0.04854  1.0000
  H   H23       1.0  0.80636  0.46420  0.72248  1.0000
  H   H24       1.0  0.19364  0.53579  0.27752  1.0000
  H   H25       1.0  0.87556  0.48252  0.50356  1.0000
  H   H26       1.0  0.12444  0.51747  0.49644  1.0000
  H   H27       1.0  0.75980  0.32733  0.57657  1.0000
  H   H28       1.0  0.24021  0.67267  0.42343  1.0000
  H   H29       1.0  0.89467  0.33348  0.42604  1.0000
  H   H30       1.0  0.10533  0.66652  0.57396  1.0000
  C   C1        1.0  0.67753  0.52730  0.24613  1.0000
  C   C2        1.0  0.32246  0.47269  0.75388  1.0000
  C   C3        1.0  0.57244  0.64756  0.17469  1.0000
  C   C4        1.0  0.42755  0.35244  0.82532  1.0000
  C   C5        1.0  0.48862  0.75215  0.23685  1.0000
  C   C6        1.0  0.51138  0.24785  0.76315  1.0000
  C   C7        1.0  0.38965  0.86377  0.17236  1.0000
  C   C8        1.0  0.61035  0.13623  0.82764  1.0000
  C   C9        1.0  0.37427  0.87352  0.04116  1.0000
  C   C10       1.0  0.62573  0.12649  0.95884  1.0000
  C   C11       1.0  0.45905  0.77202  0.97613  1.0000
  C   C12       1.0  0.54095  0.22798  0.02387  1.0000
  C   C13       1.0  0.55562  0.66026  0.04291  1.0000
  C   C14       1.0  0.44438  0.33975  0.95709  1.0000
  C   C15       1.0  0.18117  0.08308  0.01167  1.0000
  C   C16       1.0  0.81883  0.91692  0.98833  1.0000
  C   C17       1.0  0.08536  0.18516  0.93051  1.0000
  C   C18       1.0  0.91464  0.81485  0.06949  1.0000
  C   C19       1.0  0.98688  0.29053  0.98572  1.0000
  C   C20       1.0  0.01312  0.70948  0.01427  1.0000
  C   C21       1.0  0.89094  0.39037  0.91028  1.0000
  C   C22       1.0  0.10906  0.60963  0.08972  1.0000
  C   C23       1.0  0.88679  0.38728  0.77865  1.0000
  C   C24       1.0  0.11321  0.61271  0.22134  1.0000
  C   C25       1.0  0.98220  0.28693  0.72194  1.0000
  C   C26       1.0  0.01781  0.71306  0.27806  1.0000
  C   C27       1.0  0.08765  0.18321  0.79495  1.0000
  C   C28       1.0  0.91235  0.81679  0.20505  1.0000
  C   C29       1.0  0.87133  0.36163  0.52132  1.0000
  C   C30       1.0  0.12867  0.63836  0.47868  1.0000
  C   C31       1.0  0.52272  0.18832  0.43019  1.0000
  C   C32       1.0  0.47728  0.81168  0.56982  1.0000
  S   S1        1.0  0.36215  0.28099  0.40152  1.0000
  S   S2        1.0  0.63785  0.71901  0.59849  1.0000
  N   N1        1.0  0.27646  0.98167  0.96927  1.0000
  N   N2        1.0  0.72354  0.01833  0.03073  1.0000
  N   N3        1.0  0.64117  0.12524  0.45049  1.0000
  N   N4        1.0  0.35883  0.87475  0.54952  1.0000
  Cl  Cl1       1.0  0.05261  0.11347  0.33300  1.0000
  Cl  Cl2       1.0  0.94739  0.88653  0.66700  1.0000
  O   O1        1.0  0.98776  0.27815  0.59427  1.0000
  O   O2        1.0  0.01224  0.72185  0.40573  1.0000
  O   O3        1.0  0.18157  0.09085  0.74201  1.0000
  O   O4        1.0  0.81844  0.90915  0.25799  1.0000
