data_image0
_chemical_formula_structural       Co2H16C8O14
_chemical_formula_sum              "Co2 H16 C8 O14"
_cell_length_a       5.76383
_cell_length_b       8.68517
_cell_length_c       8.76581
_cell_angle_alpha    89.9999
_cell_angle_beta     90.0006
_cell_angle_gamma    117.37

_space_group_name_H-M_alt    "P 1"
_space_group_IT_number       1

loop_
  _space_group_symop_operation_xyz
  'x, y, z'

loop_
  _atom_site_type_symbol
  _atom_site_label
  _atom_site_symmetry_multiplicity
  _atom_site_fract_x
  _atom_site_fract_y
  _atom_site_fract_z
  _atom_site_occupancy
  Co  Co1       1.0  0.93258  0.64438  0.10883  1.0000
  Co  Co2       1.0  0.06742  0.35562  0.60883  1.0000
  H   H1        1.0  0.94335  0.87063  0.49179  1.0000
  H   H2        1.0  0.05666  0.12937  0.99178  1.0000
  H   H3        1.0  0.26243  0.91155  0.54411  1.0000
  H   H4        1.0  0.73758  0.08844  0.04411  1.0000
  H   H5        1.0  0.31037  0.08632  0.32299  1.0000
  H   H6        1.0  0.68963  0.91368  0.82299  1.0000
  H   H7        1.0  0.06324  0.62727  0.83526  1.0000
  H   H8        1.0  0.93677  0.37273  0.33526  1.0000
  H   H9        1.0  0.15448  0.82892  0.85923  1.0000
  H   H10       1.0  0.84554  0.17109  0.35922  1.0000
  H   H11       1.0  0.48307  0.53729  0.96082  1.0000
  H   H12       1.0  0.51690  0.46271  0.46082  1.0000
  H   H13       1.0  0.47699  0.65292  0.09857  1.0000
  H   H14       1.0  0.52300  0.34707  0.59856  1.0000
  H   H15       1.0  0.86752  0.91495  0.23415  1.0000
  H   H16       1.0  0.13248  0.08505  0.73415  1.0000
  C   C1        1.0  0.03183  0.65877  0.45283  1.0000
  C   C2        1.0  0.96817  0.34123  0.95283  1.0000
  C   C3        1.0  0.11190  0.85160  0.45693  1.0000
  C   C4        1.0  0.88811  0.14841  0.95693  1.0000
  C   C5        1.0  0.41933  0.89221  0.24559  1.0000
  C   C6        1.0  0.58067  0.10779  0.74558  1.0000
  C   C7        1.0  0.21675  0.94508  0.30403  1.0000
  C   C8        1.0  0.78325  0.05492  0.80402  1.0000
  O   O1        1.0  0.01657  0.89726  0.19099  1.0000
  O   O2        1.0  0.98343  0.10275  0.69099  1.0000
  O   O3        1.0  0.55027  0.57380  0.06408  1.0000
  O   O4        1.0  0.44972  0.42620  0.56408  1.0000
  O   O5        1.0  0.64545  0.96072  0.30342  1.0000
  O   O6        1.0  0.35456  0.03928  0.80342  1.0000
  O   O7        1.0  0.00957  0.71148  0.87880  1.0000
  O   O8        1.0  0.99044  0.28852  0.37880  1.0000
  O   O9        1.0  0.34077  0.77213  0.14495  1.0000
  O   O10       1.0  0.65923  0.22786  0.64494  1.0000
  O   O11       1.0  0.11206  0.59976  0.56142  1.0000
  O   O12       1.0  0.88794  0.40023  0.06142  1.0000
  O   O13       1.0  0.88863  0.56507  0.34190  1.0000
  O   O14       1.0  0.11136  0.43493  0.84190  1.0000
