data_image0
_chemical_formula_structural       Zn4H16C24N16O12
_chemical_formula_sum              "Zn4 H16 C24 N16 O12"
_cell_length_a       5.98703
_cell_length_b       8.24146
_cell_length_c       16.0119
_cell_angle_alpha    101.002
_cell_angle_beta     89.9999
_cell_angle_gamma    89.9998

_space_group_name_H-M_alt    "P 1"
_space_group_IT_number       1

loop_
  _space_group_symop_operation_xyz
  'x, y, z'

loop_
  _atom_site_type_symbol
  _atom_site_label
  _atom_site_symmetry_multiplicity
  _atom_site_fract_x
  _atom_site_fract_y
  _atom_site_fract_z
  _atom_site_occupancy
  Zn  Zn1       1.0  0.92513  0.08138  0.22652  1.0000
  Zn  Zn2       1.0  0.42513  0.91862  0.27348  1.0000
  Zn  Zn3       1.0  0.07487  0.91862  0.77348  1.0000
  Zn  Zn4       1.0  0.57487  0.08138  0.72652  1.0000
  H   H1        1.0  0.93351  0.87938  0.94873  1.0000
  H   H2        1.0  0.43350  0.12063  0.55127  1.0000
  H   H3        1.0  0.06649  0.12063  0.05127  1.0000
  H   H4        1.0  0.56649  0.87937  0.44873  1.0000
  H   H5        1.0  0.58844  0.53905  0.77003  1.0000
  H   H6        1.0  0.08843  0.46095  0.72997  1.0000
  H   H7        1.0  0.41157  0.46094  0.22996  1.0000
  H   H8        1.0  0.91157  0.53905  0.27003  1.0000
  H   H9        1.0  0.28472  0.51098  0.87462  1.0000
  H   H10       1.0  0.78471  0.48902  0.62538  1.0000
  H   H11       1.0  0.71530  0.48902  0.12538  1.0000
  H   H12       1.0  0.21530  0.51098  0.37462  1.0000
  H   H13       1.0  0.31573  0.67323  0.02409  1.0000
  H   H14       1.0  0.81572  0.32677  0.47591  1.0000
  H   H15       1.0  0.68428  0.32676  0.97591  1.0000
  H   H16       1.0  0.18427  0.67324  0.52409  1.0000
  C   C1        1.0  0.78499  0.80218  0.93696  1.0000
  C   C2        1.0  0.28500  0.19782  0.56305  1.0000
  C   C3        1.0  0.21500  0.19782  0.06304  1.0000
  C   C4        1.0  0.71499  0.80218  0.43696  1.0000
  C   C5        1.0  0.58772  0.60899  0.83490  1.0000
  C   C6        1.0  0.08771  0.39101  0.66510  1.0000
  C   C7        1.0  0.41229  0.39100  0.16509  1.0000
  C   C8        1.0  0.91229  0.60900  0.33491  1.0000
  C   C9        1.0  0.42366  0.59500  0.89369  1.0000
  C   C10       1.0  0.92366  0.40499  0.60631  1.0000
  C   C11       1.0  0.57634  0.40499  0.10631  1.0000
  C   C12       1.0  0.07635  0.59500  0.39369  1.0000
  C   C13       1.0  0.62462  0.78884  0.99819  1.0000
  C   C14       1.0  0.12462  0.21116  0.50181  1.0000
  C   C15       1.0  0.37538  0.21115  0.00181  1.0000
  C   C16       1.0  0.87538  0.78884  0.49819  1.0000
  C   C17       1.0  0.44053  0.68516  0.97630  1.0000
  C   C18       1.0  0.94053  0.31484  0.52370  1.0000
  C   C19       1.0  0.55948  0.31482  0.02369  1.0000
  C   C20       1.0  0.05947  0.68517  0.47630  1.0000
  C   C21       1.0  0.65611  0.87843  0.08875  1.0000
  C   C22       1.0  0.15612  0.12158  0.41125  1.0000
  C   C23       1.0  0.34388  0.12156  0.91125  1.0000
  C   C24       1.0  0.84388  0.87844  0.58875  1.0000
  N   N1        1.0  0.07541  0.74886  0.17132  1.0000
  N   N2        1.0  0.57542  0.25116  0.32869  1.0000
  N   N3        1.0  0.92459  0.25116  0.82869  1.0000
  N   N4        1.0  0.42458  0.74885  0.67132  1.0000
  N   N5        1.0  0.76396  0.71258  0.85696  1.0000
  N   N6        1.0  0.26395  0.28742  0.64304  1.0000
  N   N7        1.0  0.23604  0.28742  0.14304  1.0000
  N   N8        1.0  0.73605  0.71258  0.35696  1.0000
  N   N9        1.0  0.10851  0.87085  0.22576  1.0000
  N   N10       1.0  0.60851  0.12914  0.27424  1.0000
  N   N11       1.0  0.89149  0.12914  0.77424  1.0000
  N   N12       1.0  0.39149  0.87085  0.72576  1.0000
  N   N13       1.0  0.03999  0.63142  0.12073  1.0000
  N   N14       1.0  0.54000  0.36857  0.37927  1.0000
  N   N15       1.0  0.96000  0.36857  0.87927  1.0000
  N   N16       1.0  0.46001  0.63142  0.62073  1.0000
  O   O1        1.0  0.81009  0.98773  0.10270  1.0000
  O   O2        1.0  0.31009  0.01227  0.39730  1.0000
  O   O3        1.0  0.18991  0.01226  0.89729  1.0000
  O   O4        1.0  0.68990  0.98774  0.60271  1.0000
  O   O5        1.0  0.52915  0.83437  0.14335  1.0000
  O   O6        1.0  0.02916  0.16564  0.35665  1.0000
  O   O7        1.0  0.47085  0.16563  0.85665  1.0000
  O   O8        1.0  0.97085  0.83436  0.64335  1.0000
  O   O9        1.0  0.91975  0.71599  0.79774  1.0000
  O   O10       1.0  0.41974  0.28400  0.70226  1.0000
  O   O11       1.0  0.08025  0.28401  0.20226  1.0000
  O   O12       1.0  0.58026  0.71600  0.29774  1.0000
