data_image0
_chemical_formula_structural       Na4Cd2H16C32O20
_chemical_formula_sum              "Na4 Cd2 H16 C32 O20"
_cell_length_a       6.53817
_cell_length_b       11.4567
_cell_length_c       11.5608
_cell_angle_alpha    77.841
_cell_angle_beta     76.922
_cell_angle_gamma    77.2184

_space_group_name_H-M_alt    "P 1"
_space_group_IT_number       1

loop_
  _space_group_symop_operation_xyz
  'x, y, z'

loop_
  _atom_site_type_symbol
  _atom_site_label
  _atom_site_symmetry_multiplicity
  _atom_site_fract_x
  _atom_site_fract_y
  _atom_site_fract_z
  _atom_site_occupancy
  Na  Na1       1.0  0.42690  0.84726  0.02827  1.0000
  Na  Na2       1.0  0.57310  0.15274  0.97173  1.0000
  Na  Na3       1.0  0.87602  0.36291  0.03826  1.0000
  Na  Na4       1.0  0.12398  0.63709  0.96175  1.0000
  Cd  Cd1       1.0  0.85895  0.84422  0.16268  1.0000
  Cd  Cd2       1.0  0.14105  0.15578  0.83732  1.0000
  H   H1        1.0  0.60286  0.63654  0.94037  1.0000
  H   H2        1.0  0.39714  0.36346  0.05964  1.0000
  H   H3        1.0  0.59405  0.69699  0.80741  1.0000
  H   H4        1.0  0.40595  0.30301  0.19259  1.0000
  H   H5        1.0  0.38818  0.05846  0.46955  1.0000
  H   H6        1.0  0.61182  0.94155  0.53044  1.0000
  H   H7        1.0  0.04950  0.17141  0.57081  1.0000
  H   H8        1.0  0.95050  0.82859  0.42919  1.0000
  H   H9        1.0  0.76516  0.18729  0.26569  1.0000
  H   H10       1.0  0.23484  0.81271  0.73431  1.0000
  H   H11       1.0  0.06796  0.47670  0.42201  1.0000
  H   H12       1.0  0.93204  0.52329  0.57799  1.0000
  H   H13       1.0  0.29388  0.30551  0.53480  1.0000
  H   H14       1.0  0.70612  0.69449  0.46520  1.0000
  H   H15       1.0  0.85554  0.41019  0.29520  1.0000
  H   H16       1.0  0.14446  0.58981  0.70480  1.0000
  C   C1        1.0  0.48239  0.99399  0.24965  1.0000
  C   C2        1.0  0.51761  0.00601  0.75034  1.0000
  C   C3        1.0  0.27308  0.05921  0.30854  1.0000
  C   C4        1.0  0.72692  0.94079  0.69146  1.0000
  C   C5        1.0  0.25233  0.08567  0.42424  1.0000
  C   C6        1.0  0.74767  0.91433  0.57576  1.0000
  C   C7        1.0  0.06381  0.14913  0.48208  1.0000
  C   C8        1.0  0.93619  0.85087  0.51792  1.0000
  C   C9        1.0  0.89090  0.18807  0.42314  1.0000
  C   C10       1.0  0.10910  0.81193  0.57686  1.0000
  C   C11       1.0  0.90423  0.16090  0.30893  1.0000
  C   C12       1.0  0.09577  0.83910  0.69107  1.0000
  C   C13       1.0  0.09446  0.09736  0.25128  1.0000
  C   C14       1.0  0.90554  0.90263  0.74872  1.0000
  C   C15       1.0  0.09779  0.07249  0.12798  1.0000
  C   C16       1.0  0.90220  0.92751  0.87202  1.0000
  C   C17       1.0  0.18841  0.64287  0.23390  1.0000
  C   C18       1.0  0.81159  0.35713  0.76610  1.0000
  C   C19       1.0  0.33185  0.54162  0.29766  1.0000
  C   C20       1.0  0.66815  0.45838  0.70234  1.0000
  C   C21       1.0  0.24108  0.46224  0.39554  1.0000
  C   C22       1.0  0.75892  0.53776  0.60446  1.0000
  C   C23       1.0  0.36551  0.36521  0.45742  1.0000
  C   C24       1.0  0.63449  0.63479  0.54258  1.0000
  C   C25       1.0  0.58671  0.34568  0.41898  1.0000
  C   C26       1.0  0.41329  0.65432  0.58102  1.0000
  C   C27       1.0  0.68196  0.42393  0.32161  1.0000
  C   C28       1.0  0.31804  0.57607  0.67839  1.0000
  C   C29       1.0  0.55568  0.52140  0.26061  1.0000
  C   C30       1.0  0.44432  0.47860  0.73939  1.0000
  C   C31       1.0  0.66522  0.60625  0.15993  1.0000
  C   C32       1.0  0.33478  0.39375  0.84007  1.0000
  O   O1        1.0  0.61828  0.93696  0.31461  1.0000
  O   O2        1.0  0.38172  0.06304  0.68539  1.0000
  O   O3        1.0  0.52190  0.99742  0.13491  1.0000
  O   O4        1.0  0.47810  0.00258  0.86509  1.0000
  O   O5        1.0  0.11280  0.96426  0.11277  1.0000
  O   O6        1.0  0.88721  0.03574  0.88723  1.0000
  O   O7        1.0  0.08021  0.16577  0.04554  1.0000
  O   O8        1.0  0.91979  0.83423  0.95446  1.0000
  O   O9        1.0  0.70553  0.25010  0.48363  1.0000
  O   O10       1.0  0.29447  0.74990  0.51636  1.0000
  O   O11       1.0  0.01739  0.69251  0.29691  1.0000
  O   O12       1.0  0.98261  0.30749  0.70309  1.0000
  O   O13       1.0  0.23893  0.67395  0.12004  1.0000
  O   O14       1.0  0.76107  0.32605  0.87996  1.0000
  O   O15       1.0  0.62401  0.71750  0.17065  1.0000
  O   O16       1.0  0.37599  0.28250  0.82935  1.0000
  O   O17       1.0  0.79236  0.56155  0.07217  1.0000
  O   O18       1.0  0.20763  0.43846  0.92783  1.0000
  O   O19       1.0  0.50926  0.69184  0.88870  1.0000
  O   O20       1.0  0.49075  0.30815  0.11131  1.0000
