data_image0
_chemical_formula_structural       Cu8H32C16N40
_chemical_formula_sum              "Cu8 H32 C16 N40"
_cell_length_a       4.28416
_cell_length_b       14.1358
_cell_length_c       14.1358
_cell_angle_alpha    90
_cell_angle_beta     90.0004
_cell_angle_gamma    90.0001

_space_group_name_H-M_alt    "P 1"
_space_group_IT_number       1

loop_
  _space_group_symop_operation_xyz
  'x, y, z'

loop_
  _atom_site_type_symbol
  _atom_site_label
  _atom_site_symmetry_multiplicity
  _atom_site_fract_x
  _atom_site_fract_y
  _atom_site_fract_z
  _atom_site_occupancy
  Cu  Cu1       1.0  0.79490  0.39632  0.51084  1.0000
  Cu  Cu2       1.0  0.29490  0.48916  0.89632  1.0000
  Cu  Cu3       1.0  0.29491  0.01084  0.60368  1.0000
  Cu  Cu4       1.0  0.79491  0.10368  0.98916  1.0000
  Cu  Cu5       1.0  0.20510  0.60368  0.48916  1.0000
  Cu  Cu6       1.0  0.70510  0.51084  0.10368  1.0000
  Cu  Cu7       1.0  0.70510  0.98916  0.39632  1.0000
  Cu  Cu8       1.0  0.20509  0.89632  0.01084  1.0000
  H   H1        1.0  0.54276  0.66884  0.65411  1.0000
  H   H2        1.0  0.04276  0.34590  0.16884  1.0000
  H   H3        1.0  0.04275  0.15410  0.33116  1.0000
  H   H4        1.0  0.54276  0.83116  0.84590  1.0000
  H   H5        1.0  0.45725  0.33116  0.34590  1.0000
  H   H6        1.0  0.95724  0.65410  0.83116  1.0000
  H   H7        1.0  0.95725  0.84590  0.66884  1.0000
  H   H8        1.0  0.45726  0.16884  0.15410  1.0000
  H   H9        1.0  0.47319  0.66057  0.77375  1.0000
  H   H10       1.0  0.97321  0.22626  0.16058  1.0000
  H   H11       1.0  0.97319  0.27375  0.33943  1.0000
  H   H12       1.0  0.47320  0.83943  0.72625  1.0000
  H   H13       1.0  0.52681  0.33943  0.22625  1.0000
  H   H14       1.0  0.02679  0.77374  0.83943  1.0000
  H   H15       1.0  0.02681  0.72625  0.66057  1.0000
  H   H16       1.0  0.52681  0.16057  0.27375  1.0000
  H   H17       1.0  0.66440  0.33161  0.71566  1.0000
  H   H18       1.0  0.16440  0.28433  0.83162  1.0000
  H   H19       1.0  0.16440  0.21566  0.66838  1.0000
  H   H20       1.0  0.66441  0.16839  0.78434  1.0000
  H   H21       1.0  0.33560  0.66839  0.28434  1.0000
  H   H22       1.0  0.83560  0.71566  0.16838  1.0000
  H   H23       1.0  0.83559  0.78434  0.33161  1.0000
  H   H24       1.0  0.33560  0.83161  0.21566  1.0000
  H   H25       1.0  0.72644  0.38560  0.82096  1.0000
  H   H26       1.0  0.22644  0.17904  0.88561  1.0000
  H   H27       1.0  0.22644  0.32096  0.61439  1.0000
  H   H28       1.0  0.72644  0.11439  0.67903  1.0000
  H   H29       1.0  0.27356  0.61439  0.17904  1.0000
  H   H30       1.0  0.77355  0.82096  0.11439  1.0000
  H   H31       1.0  0.77355  0.67904  0.38560  1.0000
  H   H32       1.0  0.27355  0.88560  0.32096  1.0000
  C   C1        1.0  0.28802  0.55589  0.69419  1.0000
  C   C2        1.0  0.78801  0.30582  0.05590  1.0000
  C   C3        1.0  0.78802  0.19418  0.44411  1.0000
  C   C4        1.0  0.28803  0.94411  0.80581  1.0000
  C   C5        1.0  0.71199  0.44411  0.30581  1.0000
  C   C6        1.0  0.21198  0.69418  0.94411  1.0000
  C   C7        1.0  0.21199  0.80582  0.55589  1.0000
  C   C8        1.0  0.71198  0.05589  0.19419  1.0000
  C   C9        1.0  0.97863  0.43911  0.71424  1.0000
  C   C10       1.0  0.47863  0.28576  0.93912  1.0000
  C   C11       1.0  0.47864  0.21424  0.56088  1.0000
  C   C12       1.0  0.97863  0.06089  0.78576  1.0000
  C   C13       1.0  0.02138  0.56089  0.28576  1.0000
  C   C14       1.0  0.52137  0.71424  0.06088  1.0000
  C   C15       1.0  0.52137  0.78577  0.43912  1.0000
  C   C16       1.0  0.02138  0.93911  0.21424  1.0000
  N   N1        1.0  0.98339  0.45554  0.62097  1.0000
  N   N2        1.0  0.48339  0.37904  0.95555  1.0000
  N   N3        1.0  0.48340  0.12096  0.54446  1.0000
  N   N4        1.0  0.98340  0.04446  0.87903  1.0000
  N   N5        1.0  0.01661  0.54446  0.37904  1.0000
  N   N6        1.0  0.51661  0.62097  0.04446  1.0000
  N   N7        1.0  0.51660  0.87903  0.45554  1.0000
  N   N8        1.0  0.01661  0.95554  0.12096  1.0000
  N   N9        1.0  0.18483  0.53343  0.60809  1.0000
  N   N10       1.0  0.68484  0.39191  0.03343  1.0000
  N   N11       1.0  0.68484  0.10809  0.46658  1.0000
  N   N12       1.0  0.18484  0.96658  0.89191  1.0000
  N   N13       1.0  0.81516  0.46658  0.39191  1.0000
  N   N14       1.0  0.31517  0.60809  0.96657  1.0000
  N   N15       1.0  0.31516  0.89191  0.53342  1.0000
  N   N16       1.0  0.81516  0.03342  0.10808  1.0000
  N   N17       1.0  0.50528  0.62616  0.71125  1.0000
  N   N18       1.0  0.00528  0.28876  0.12617  1.0000
  N   N19       1.0  0.00528  0.21124  0.37383  1.0000
  N   N20       1.0  0.50529  0.87384  0.78876  1.0000
  N   N21       1.0  0.49472  0.37384  0.28876  1.0000
  N   N22       1.0  0.99471  0.71124  0.87383  1.0000
  N   N23       1.0  0.99472  0.78876  0.62617  1.0000
  N   N24       1.0  0.49472  0.12616  0.21124  1.0000
  N   N25       1.0  0.16749  0.49947  0.76344  1.0000
  N   N26       1.0  0.66749  0.23657  0.99948  1.0000
  N   N27       1.0  0.66749  0.26343  0.50053  1.0000
  N   N28       1.0  0.16750  0.00053  0.73656  1.0000
  N   N29       1.0  0.83251  0.50053  0.23657  1.0000
  N   N30       1.0  0.33250  0.76343  0.00052  1.0000
  N   N31       1.0  0.33250  0.73657  0.49947  1.0000
  N   N32       1.0  0.83251  0.99947  0.26343  1.0000
  N   N33       1.0  0.82440  0.36597  0.75771  1.0000
  N   N34       1.0  0.32439  0.24229  0.86598  1.0000
  N   N35       1.0  0.32439  0.25771  0.63403  1.0000
  N   N36       1.0  0.82440  0.13403  0.74229  1.0000
  N   N37       1.0  0.17560  0.63403  0.24229  1.0000
  N   N38       1.0  0.67560  0.75771  0.13403  1.0000
  N   N39       1.0  0.67560  0.74229  0.36597  1.0000
  N   N40       1.0  0.17560  0.86597  0.25771  1.0000
