data_image0
_chemical_formula_structural       Cu8H20C8S4N20O20
_chemical_formula_sum              "Cu8 H20 C8 S4 N20 O20"
_cell_length_a       8.05373
_cell_length_b       8.39616
_cell_length_c       12.2697
_cell_angle_alpha    89.9134
_cell_angle_beta     89.9775
_cell_angle_gamma    110.201

_space_group_name_H-M_alt    "P 1"
_space_group_IT_number       1

loop_
  _space_group_symop_operation_xyz
  'x, y, z'

loop_
  _atom_site_type_symbol
  _atom_site_label
  _atom_site_symmetry_multiplicity
  _atom_site_fract_x
  _atom_site_fract_y
  _atom_site_fract_z
  _atom_site_occupancy
  Cu  Cu1       1.0  0.61437  0.27990  0.96250  1.0000
  Cu  Cu2       1.0  0.88655  0.22026  0.46214  1.0000
  Cu  Cu3       1.0  0.38600  0.72106  0.03768  1.0000
  Cu  Cu4       1.0  0.11300  0.77845  0.53684  1.0000
  Cu  Cu5       1.0  0.97546  0.40782  0.11147  1.0000
  Cu  Cu6       1.0  0.52481  0.09014  0.60957  1.0000
  Cu  Cu7       1.0  0.02545  0.59139  0.88818  1.0000
  Cu  Cu8       1.0  0.47500  0.90837  0.39018  1.0000
  H   H1        1.0  0.92622  0.28432  0.93164  1.0000
  H   H2        1.0  0.57724  0.21990  0.43152  1.0000
  H   H3        1.0  0.07387  0.71500  0.06826  1.0000
  H   H4        1.0  0.42322  0.78226  0.57020  1.0000
  H   H5        1.0  0.22254  0.45182  0.58656  1.0000
  H   H6        1.0  0.27927  0.04703  0.08499  1.0000
  H   H7        1.0  0.77726  0.54698  0.41378  1.0000
  H   H8        1.0  0.72140  0.95287  0.91444  1.0000
  H   H9        1.0  0.25592  0.53776  0.71435  1.0000
  H   H10       1.0  0.24375  0.96001  0.21272  1.0000
  H   H11       1.0  0.74303  0.46057  0.28615  1.0000
  H   H12       1.0  0.75690  0.04085  0.78694  1.0000
  H   H13       1.0  0.49603  0.36947  0.78642  1.0000
  H   H14       1.0  0.00380  0.12995  0.28649  1.0000
  H   H15       1.0  0.50408  0.63198  0.21415  1.0000
  H   H16       1.0  0.99577  0.86812  0.71419  1.0000
  H   H17       1.0  0.65849  0.52790  0.84933  1.0000
  H   H18       1.0  0.84110  0.97195  0.34990  1.0000
  H   H19       1.0  0.34298  0.47280  0.15077  1.0000
  H   H20       1.0  0.15707  0.02701  0.64990  1.0000
  C   C1        1.0  0.74709  0.39531  0.74169  1.0000
  C   C2        1.0  0.75275  0.10411  0.24170  1.0000
  C   C3        1.0  0.25266  0.60423  0.25838  1.0000
  C   C4        1.0  0.24716  0.89612  0.75816  1.0000
  C   C5        1.0  0.00144  0.43839  0.66798  1.0000
  C   C6        1.0  0.49916  0.06071  0.16767  1.0000
  C   C7        1.0  0.99808  0.56118  0.33176  1.0000
  C   C8        1.0  0.50135  0.93914  0.83180  1.0000
  S   S1        1.0  0.22905  0.27831  0.95354  1.0000
  S   S2        1.0  0.27076  0.22203  0.45336  1.0000
  S   S3        1.0  0.77093  0.72142  0.04622  1.0000
  S   S4        1.0  0.72921  0.77874  0.54640  1.0000
  N   N1        1.0  0.92171  0.48607  0.75362  1.0000
  N   N2        1.0  0.57836  0.01325  0.25362  1.0000
  N   N3        1.0  0.07818  0.51326  0.24640  1.0000
  N   N4        1.0  0.42195  0.98744  0.74629  1.0000
  N   N5        1.0  0.17745  0.51036  0.64679  1.0000
  N   N6        1.0  0.32361  0.98855  0.14576  1.0000
  N   N7        1.0  0.82228  0.48875  0.35333  1.0000
  N   N8        1.0  0.67684  0.01135  0.85378  1.0000
  N   N9        1.0  0.62194  0.40588  0.81655  1.0000
  N   N10       1.0  0.87789  0.09398  0.31676  1.0000
  N   N11       1.0  0.37834  0.59457  0.18369  1.0000
  N   N12       1.0  0.12149  0.90556  0.68364  1.0000
  N   N13       1.0  0.88097  0.32468  0.60602  1.0000
  N   N14       1.0  0.61965  0.17509  0.10563  1.0000
  N   N15       1.0  0.11815  0.67563  0.39364  1.0000
  N   N16       1.0  0.38081  0.82478  0.89388  1.0000
  N   N17       1.0  0.71783  0.29587  0.65479  1.0000
  N   N18       1.0  0.78253  0.20387  0.15459  1.0000
  N   N19       1.0  0.28200  0.70400  0.34516  1.0000
  N   N20       1.0  0.21770  0.79645  0.84544  1.0000
  O   O1        1.0  0.87966  0.37276  0.96337  1.0000
  O   O2        1.0  0.62413  0.13233  0.46327  1.0000
  O   O3        1.0  0.12099  0.62706  0.03644  1.0000
  O   O4        1.0  0.37590  0.87028  0.53942  1.0000
  O   O5        1.0  0.35225  0.17617  0.94446  1.0000
  O   O6        1.0  0.14647  0.32354  0.44468  1.0000
  O   O7        1.0  0.64805  0.82397  0.05534  1.0000
  O   O8        1.0  0.85274  0.67670  0.55577  1.0000
  O   O9        1.0  0.06098  0.17982  0.89890  1.0000
  O   O10       1.0  0.43783  0.32193  0.39828  1.0000
  O   O11       1.0  0.93857  0.81905  0.10161  1.0000
  O   O12       1.0  0.56235  0.68058  0.60236  1.0000
  O   O13       1.0  0.19843  0.29633  0.07282  1.0000
  O   O14       1.0  0.30189  0.20378  0.57255  1.0000
  O   O15       1.0  0.80258  0.70439  0.92696  1.0000
  O   O16       1.0  0.69720  0.79529  0.42710  1.0000
  O   O17       1.0  0.31259  0.44695  0.90187  1.0000
  O   O18       1.0  0.18764  0.05341  0.40210  1.0000
  O   O19       1.0  0.68643  0.55235  0.09711  1.0000
  O   O20       1.0  0.81344  0.94827  0.59633  1.0000
