data_image0
_chemical_formula_structural       Cu4H24C24S8O8
_chemical_formula_sum              "Cu4 H24 C24 S8 O8"
_cell_length_a       6.73536
_cell_length_b       10.1221
_cell_length_c       12.5007
_cell_angle_alpha    89.9992
_cell_angle_beta     89.9991
_cell_angle_gamma    110.062

_space_group_name_H-M_alt    "P 1"
_space_group_IT_number       1

loop_
  _space_group_symop_operation_xyz
  'x, y, z'

loop_
  _atom_site_type_symbol
  _atom_site_label
  _atom_site_symmetry_multiplicity
  _atom_site_fract_x
  _atom_site_fract_y
  _atom_site_fract_z
  _atom_site_occupancy
  Cu  Cu1       1.0  0.93402  0.89405  0.80040  1.0000
  Cu  Cu2       1.0  0.56597  0.60593  0.30040  1.0000
  Cu  Cu3       1.0  0.06596  0.10594  0.19960  1.0000
  Cu  Cu4       1.0  0.43404  0.39406  0.69959  1.0000
  H   H1        1.0  0.44414  0.36260  0.96104  1.0000
  H   H2        1.0  0.05583  0.13739  0.46104  1.0000
  H   H3        1.0  0.55583  0.63740  0.03897  1.0000
  H   H4        1.0  0.94416  0.86261  0.53895  1.0000
  H   H5        1.0  0.26476  0.40845  0.04919  1.0000
  H   H6        1.0  0.23522  0.09155  0.54919  1.0000
  H   H7        1.0  0.73522  0.59155  0.95082  1.0000
  H   H8        1.0  0.76476  0.90845  0.45081  1.0000
  H   H9        1.0  0.46478  0.35343  0.10582  1.0000
  H   H10       1.0  0.03521  0.14657  0.60583  1.0000
  H   H11       1.0  0.53519  0.64656  0.89419  1.0000
  H   H12       1.0  0.96479  0.85344  0.39417  1.0000
  H   H13       1.0  0.41721  0.77720  0.72287  1.0000
  H   H14       1.0  0.08279  0.72282  0.22287  1.0000
  H   H15       1.0  0.58277  0.22280  0.27713  1.0000
  H   H16       1.0  0.91725  0.27719  0.77713  1.0000
  H   H17       1.0  0.54645  0.87696  0.60929  1.0000
  H   H18       1.0  0.95355  0.62306  0.10928  1.0000
  H   H19       1.0  0.45353  0.12304  0.39071  1.0000
  H   H20       1.0  0.04649  0.37696  0.89071  1.0000
  H   H21       1.0  0.34907  0.92560  0.68009  1.0000
  H   H22       1.0  0.15095  0.57443  0.18008  1.0000
  H   H23       1.0  0.65092  0.07441  0.31991  1.0000
  H   H24       1.0  0.84908  0.42557  0.81991  1.0000
  C   C1        1.0  0.36569  0.13683  0.82217  1.0000
  C   C2        1.0  0.13430  0.36316  0.32217  1.0000
  C   C3        1.0  0.63429  0.86317  0.17784  1.0000
  C   C4        1.0  0.86571  0.63683  0.67783  1.0000
  C   C5        1.0  0.43342  0.06355  0.91363  1.0000
  C   C6        1.0  0.06657  0.43644  0.41363  1.0000
  C   C7        1.0  0.56656  0.93645  0.08637  1.0000
  C   C8        1.0  0.93344  0.56356  0.58636  1.0000
  C   C9        1.0  0.35484  0.06946  0.01701  1.0000
  C   C10       1.0  0.14517  0.43053  0.51701  1.0000
  C   C11       1.0  0.64516  0.93054  0.98299  1.0000
  C   C12       1.0  0.85484  0.56947  0.48299  1.0000
  C   C13       1.0  0.57933  0.99422  0.89610  1.0000
  C   C14       1.0  0.92068  0.50579  0.39609  1.0000
  C   C15       1.0  0.42066  0.00579  0.10390  1.0000
  C   C16       1.0  0.07934  0.49422  0.60390  1.0000
  C   C17       1.0  0.35893  0.34038  0.03722  1.0000
  C   C18       1.0  0.14105  0.15962  0.53723  1.0000
  C   C19       1.0  0.64105  0.65962  0.96279  1.0000
  C   C20       1.0  0.85894  0.84038  0.46277  1.0000
  C   C21       1.0  0.47658  0.88253  0.68768  1.0000
  C   C22       1.0  0.02344  0.61749  0.18767  1.0000
  C   C23       1.0  0.52342  0.11748  0.31233  1.0000
  C   C24       1.0  0.97660  0.38252  0.81232  1.0000
  S   S1        1.0  0.17178  0.16117  0.03358  1.0000
  S   S2        1.0  0.32822  0.33883  0.53358  1.0000
  S   S3        1.0  0.82822  0.83883  0.96642  1.0000
  S   S4        1.0  0.67179  0.66117  0.46641  1.0000
  S   S5        1.0  0.69286  0.99884  0.76632  1.0000
  S   S6        1.0  0.80715  0.50116  0.26631  1.0000
  S   S7        1.0  0.30713  0.00115  0.23368  1.0000
  S   S8        1.0  0.19288  0.49885  0.73368  1.0000
  O   O1        1.0  0.20452  0.06963  0.76785  1.0000
  O   O2        1.0  0.29547  0.43035  0.26785  1.0000
  O   O3        1.0  0.79546  0.93037  0.23216  1.0000
  O   O4        1.0  0.70454  0.56961  0.73215  1.0000
  O   O5        1.0  0.48278  0.26433  0.80736  1.0000
  O   O6        1.0  0.01722  0.23566  0.30737  1.0000
  O   O7        1.0  0.51722  0.73568  0.19264  1.0000
  O   O8        1.0  0.98277  0.76433  0.69263  1.0000
