data_image0
_chemical_formula_structural       Cd4H48C48S16O16
_chemical_formula_sum              "Cd4 H48 C48 S16 O16"
_cell_length_a       9.77134
_cell_length_b       9.7521
_cell_length_c       15.658
_cell_angle_alpha    90
_cell_angle_beta     90
_cell_angle_gamma    92.2548

_space_group_name_H-M_alt    "P 1"
_space_group_IT_number       1

loop_
  _space_group_symop_operation_xyz
  'x, y, z'

loop_
  _atom_site_type_symbol
  _atom_site_label
  _atom_site_symmetry_multiplicity
  _atom_site_fract_x
  _atom_site_fract_y
  _atom_site_fract_z
  _atom_site_occupancy
  Cd  Cd1       1.0  0.13284  0.73765  0.24997  1.0000
  Cd  Cd2       1.0  0.36716  0.26235  0.74997  1.0000
  Cd  Cd3       1.0  0.86716  0.26235  0.75003  1.0000
  Cd  Cd4       1.0  0.63284  0.73765  0.25003  1.0000
  H   H1        1.0  0.98928  0.16404  0.27950  1.0000
  H   H2        1.0  0.51072  0.83596  0.77950  1.0000
  H   H3        1.0  0.01072  0.83596  0.72050  1.0000
  H   H4        1.0  0.48928  0.16404  0.22050  1.0000
  H   H5        1.0  0.08950  0.10777  0.19141  1.0000
  H   H6        1.0  0.41050  0.89223  0.69141  1.0000
  H   H7        1.0  0.91050  0.89223  0.80859  1.0000
  H   H8        1.0  0.58950  0.10777  0.30859  1.0000
  H   H9        1.0  0.94245  0.00543  0.22622  1.0000
  H   H10       1.0  0.55755  0.99457  0.72622  1.0000
  H   H11       1.0  0.05755  0.99456  0.77378  1.0000
  H   H12       1.0  0.44245  0.00543  0.27378  1.0000
  H   H13       1.0  0.62629  0.98682  0.56785  1.0000
  H   H14       1.0  0.87370  0.01318  0.06785  1.0000
  H   H15       1.0  0.37371  0.01318  0.43215  1.0000
  H   H16       1.0  0.12630  0.98682  0.93215  1.0000
  H   H17       1.0  0.52400  0.83138  0.56189  1.0000
  H   H18       1.0  0.97600  0.16862  0.06189  1.0000
  H   H19       1.0  0.47600  0.16862  0.43811  1.0000
  H   H20       1.0  0.02400  0.83138  0.93811  1.0000
  H   H21       1.0  0.59418  0.90472  0.46575  1.0000
  H   H22       1.0  0.90582  0.09528  0.96575  1.0000
  H   H23       1.0  0.40582  0.09528  0.53425  1.0000
  H   H24       1.0  0.09418  0.90472  0.03425  1.0000
  H   H25       1.0  0.89747  0.34153  0.21460  1.0000
  H   H26       1.0  0.60253  0.65847  0.71460  1.0000
  H   H27       1.0  0.10253  0.65847  0.78540  1.0000
  H   H28       1.0  0.39747  0.34153  0.28540  1.0000
  H   H29       1.0  0.99359  0.38032  0.31018  1.0000
  H   H30       1.0  0.50641  0.61968  0.81018  1.0000
  H   H31       1.0  0.00641  0.61968  0.68982  1.0000
  H   H32       1.0  0.49359  0.38032  0.18982  1.0000
  H   H33       1.0  0.88947  0.50719  0.26491  1.0000
  H   H34       1.0  0.61053  0.49281  0.76491  1.0000
  H   H35       1.0  0.11053  0.49281  0.73509  1.0000
  H   H36       1.0  0.38947  0.50719  0.23509  1.0000
  H   H37       1.0  0.62035  0.51717  0.92740  1.0000
  H   H38       1.0  0.87965  0.48283  0.42740  1.0000
  H   H39       1.0  0.37965  0.48283  0.07260  1.0000
  H   H40       1.0  0.12035  0.51717  0.57260  1.0000
  H   H41       1.0  0.53382  0.67268  0.94847  1.0000
  H   H42       1.0  0.96618  0.32732  0.44847  1.0000
  H   H43       1.0  0.46618  0.32732  0.05153  1.0000
  H   H44       1.0  0.03382  0.67268  0.55153  1.0000
  H   H45       1.0  0.60780  0.58270  0.03511  1.0000
  H   H46       1.0  0.89220  0.41730  0.53511  1.0000
  H   H47       1.0  0.39220  0.41730  0.96489  1.0000
  H   H48       1.0  0.10780  0.58270  0.46489  1.0000
  C   C1        1.0  0.87746  0.81339  0.37224  1.0000
  C   C2        1.0  0.62253  0.18660  0.87225  1.0000
  C   C3        1.0  0.12253  0.18661  0.62776  1.0000
  C   C4        1.0  0.37747  0.81339  0.12776  1.0000
  C   C5        1.0  0.94640  0.90674  0.43840  1.0000
  C   C6        1.0  0.55361  0.09326  0.93839  1.0000
  C   C7        1.0  0.05361  0.09326  0.56160  1.0000
  C   C8        1.0  0.44639  0.90674  0.06160  1.0000
  C   C9        1.0  0.05787  0.99601  0.41782  1.0000
  C   C10       1.0  0.44213  0.00399  0.91782  1.0000
  C   C11       1.0  0.94214  0.00399  0.58218  1.0000
  C   C12       1.0  0.55787  0.99601  0.08219  1.0000
  C   C13       1.0  0.88992  0.90912  0.52104  1.0000
  C   C14       1.0  0.61008  0.09088  0.02104  1.0000
  C   C15       1.0  0.11008  0.09087  0.47896  1.0000
  C   C16       1.0  0.38992  0.90912  0.97896  1.0000
  C   C17       1.0  0.02717  0.07454  0.24648  1.0000
  C   C18       1.0  0.47283  0.92546  0.74648  1.0000
  C   C19       1.0  0.97283  0.92546  0.75352  1.0000
  C   C20       1.0  0.52717  0.07454  0.25352  1.0000
  C   C21       1.0  0.61164  0.88880  0.53405  1.0000
  C   C22       1.0  0.88836  0.11120  0.03405  1.0000
  C   C23       1.0  0.38836  0.11120  0.46595  1.0000
  C   C24       1.0  0.11163  0.88880  0.96595  1.0000
  C   C25       1.0  0.87367  0.66836  0.13014  1.0000
  C   C26       1.0  0.62633  0.33164  0.63014  1.0000
  C   C27       1.0  0.12634  0.33164  0.86986  1.0000
  C   C28       1.0  0.37367  0.66836  0.36986  1.0000
  C   C29       1.0  0.94142  0.58096  0.06354  1.0000
  C   C30       1.0  0.55857  0.41905  0.56354  1.0000
  C   C31       1.0  0.05857  0.41904  0.93646  1.0000
  C   C32       1.0  0.44143  0.58095  0.43646  1.0000
  C   C33       1.0  0.04377  0.48980  0.08519  1.0000
  C   C34       1.0  0.45623  0.51020  0.58519  1.0000
  C   C35       1.0  0.95623  0.51020  0.91481  1.0000
  C   C36       1.0  0.54377  0.48980  0.41481  1.0000
  C   C37       1.0  0.89722  0.59166  0.97850  1.0000
  C   C38       1.0  0.60278  0.40834  0.47850  1.0000
  C   C39       1.0  0.10278  0.40834  0.02150  1.0000
  C   C40       1.0  0.39722  0.59166  0.52150  1.0000
  C   C41       1.0  0.95427  0.42170  0.25041  1.0000
  C   C42       1.0  0.54573  0.57830  0.75041  1.0000
  C   C43       1.0  0.04573  0.57830  0.74959  1.0000
  C   C44       1.0  0.45427  0.42170  0.24959  1.0000
  C   C45       1.0  0.61889  0.60928  0.96751  1.0000
  C   C46       1.0  0.88111  0.39072  0.46751  1.0000
  C   C47       1.0  0.38111  0.39072  0.03249  1.0000
  C   C48       1.0  0.11889  0.60928  0.53249  1.0000
  S   S1        1.0  0.14362  0.99027  0.31758  1.0000
  S   S2        1.0  0.35638  0.00973  0.81758  1.0000
  S   S3        1.0  0.85638  0.00973  0.68242  1.0000
  S   S4        1.0  0.64362  0.99027  0.18242  1.0000
  S   S5        1.0  0.75921  0.78455  0.54806  1.0000
  S   S6        1.0  0.74078  0.21545  0.04806  1.0000
  S   S7        1.0  0.24078  0.21545  0.45194  1.0000
  S   S8        1.0  0.25922  0.78455  0.95194  1.0000
  S   S9        1.0  0.10625  0.47615  0.19116  1.0000
  S   S10       1.0  0.39375  0.52385  0.69116  1.0000
  S   S11       1.0  0.89375  0.52385  0.80884  1.0000
  S   S12       1.0  0.60625  0.47615  0.30884  1.0000
  S   S13       1.0  0.77377  0.71520  0.95359  1.0000
  S   S14       1.0  0.72623  0.28480  0.45359  1.0000
  S   S15       1.0  0.22623  0.28480  0.04641  1.0000
  S   S16       1.0  0.27377  0.71520  0.54641  1.0000
  O   O1        1.0  0.93480  0.70675  0.34739  1.0000
  O   O2        1.0  0.56520  0.29325  0.84739  1.0000
  O   O3        1.0  0.06520  0.29325  0.65261  1.0000
  O   O4        1.0  0.43480  0.70676  0.15261  1.0000
  O   O5        1.0  0.76264  0.85619  0.34697  1.0000
  O   O6        1.0  0.73737  0.14381  0.84697  1.0000
  O   O7        1.0  0.23737  0.14381  0.65303  1.0000
  O   O8        1.0  0.26263  0.85619  0.15303  1.0000
  O   O9        1.0  0.93845  0.77189  0.16070  1.0000
  O   O10       1.0  0.56155  0.22811  0.66070  1.0000
  O   O11       1.0  0.06154  0.22810  0.83930  1.0000
  O   O12       1.0  0.43846  0.77190  0.33930  1.0000
  O   O13       1.0  0.75303  0.62608  0.15030  1.0000
  O   O14       1.0  0.74697  0.37392  0.65030  1.0000
  O   O15       1.0  0.24696  0.37391  0.84971  1.0000
  O   O16       1.0  0.25304  0.62609  0.34970  1.0000
