data_image0
_chemical_formula_structural       Zn4H40C60N8O24
_chemical_formula_sum              "Zn4 H40 C60 N8 O24"
_cell_length_a       8.49334
_cell_length_b       10.0974
_cell_length_c       18.434
_cell_angle_alpha    88.0505
_cell_angle_beta     85.3604
_cell_angle_gamma    65.1293

_space_group_name_H-M_alt    "P 1"
_space_group_IT_number       1

loop_
  _space_group_symop_operation_xyz
  'x, y, z'

loop_
  _atom_site_type_symbol
  _atom_site_label
  _atom_site_symmetry_multiplicity
  _atom_site_fract_x
  _atom_site_fract_y
  _atom_site_fract_z
  _atom_site_occupancy
  Zn  Zn1       1.0  0.58091  0.89411  0.59399  1.0000
  Zn  Zn2       1.0  0.52469  0.89435  0.90602  1.0000
  Zn  Zn3       1.0  0.41909  0.10589  0.40601  1.0000
  Zn  Zn4       1.0  0.47531  0.10565  0.09398  1.0000
  H   H1        1.0  0.86254  0.94636  0.64343  1.0000
  H   H2        1.0  0.19067  0.94653  0.85661  1.0000
  H   H3        1.0  0.13746  0.05364  0.35657  1.0000
  H   H4        1.0  0.80933  0.05347  0.14339  1.0000
  H   H5        1.0  0.94094  0.47906  0.43913  1.0000
  H   H6        1.0  0.57958  0.47922  0.06095  1.0000
  H   H7        1.0  0.05906  0.52094  0.56087  1.0000
  H   H8        1.0  0.42042  0.52078  0.93905  1.0000
  H   H9        1.0  0.06728  0.27959  0.53116  1.0000
  H   H10       1.0  0.65257  0.27979  0.96894  1.0000
  H   H11       1.0  0.93272  0.72042  0.46884  1.0000
  H   H12       1.0  0.34743  0.72021  0.03106  1.0000
  H   H13       1.0  0.50506  0.36847  0.42768  1.0000
  H   H14       1.0  0.12610  0.36846  0.07237  1.0000
  H   H15       1.0  0.49494  0.63153  0.57232  1.0000
  H   H16       1.0  0.87390  0.63154  0.92763  1.0000
  H   H17       1.0  0.31611  0.56203  0.15257  1.0000
  H   H18       1.0  0.12131  0.56218  0.34755  1.0000
  H   H19       1.0  0.68389  0.43796  0.84743  1.0000
  H   H20       1.0  0.87869  0.43782  0.65245  1.0000
  H   H21       1.0  0.28152  0.79173  0.21168  1.0000
  H   H22       1.0  0.92597  0.79191  0.28853  1.0000
  H   H23       1.0  0.71847  0.20827  0.78832  1.0000
  H   H24       1.0  0.07403  0.20809  0.71147  1.0000
  H   H25       1.0  0.44701  0.77937  0.32032  1.0000
  H   H26       1.0  0.77304  0.77955  0.17983  1.0000
  H   H27       1.0  0.55298  0.22064  0.67968  1.0000
  H   H28       1.0  0.22696  0.22045  0.82017  1.0000
  H   H29       1.0  0.68565  0.31036  0.30551  1.0000
  H   H30       1.0  0.00388  0.31052  0.19448  1.0000
  H   H31       1.0  0.31435  0.68964  0.69449  1.0000
  H   H32       1.0  0.99612  0.68948  0.80552  1.0000
  H   H33       1.0  0.25532  0.00097  0.64300  1.0000
  H   H34       1.0  0.74341  0.00110  0.85692  1.0000
  H   H35       1.0  0.74468  0.99903  0.35700  1.0000
  H   H36       1.0  0.25659  0.99890  0.14308  1.0000
  H   H37       1.0  0.36994  0.91057  0.70901  1.0000
  H   H38       1.0  0.71933  0.91056  0.79096  1.0000
  H   H39       1.0  0.63006  0.08943  0.29099  1.0000
  H   H40       1.0  0.28067  0.08944  0.20904  1.0000
  C   C1        1.0  0.71837  0.43385  0.42772  1.0000
  C   C2        1.0  0.84736  0.43397  0.07236  1.0000
  C   C3        1.0  0.28163  0.56615  0.57228  1.0000
  C   C4        1.0  0.15264  0.56603  0.92764  1.0000
  C   C5        1.0  0.87510  0.41075  0.45773  1.0000
  C   C6        1.0  0.71371  0.41087  0.04236  1.0000
  C   C7        1.0  0.12489  0.58926  0.54227  1.0000
  C   C8        1.0  0.28629  0.58913  0.95764  1.0000
  C   C9        1.0  0.94434  0.30099  0.50829  1.0000
  C   C10       1.0  0.75420  0.30107  0.99181  1.0000
  C   C11       1.0  0.05566  0.69901  0.49171  1.0000
  C   C12       1.0  0.24580  0.69893  0.00819  1.0000
  C   C13       1.0  0.85744  0.21311  0.53003  1.0000
  C   C14       1.0  0.92897  0.21312  0.97009  1.0000
  C   C15       1.0  0.14256  0.78689  0.46997  1.0000
  C   C16       1.0  0.07103  0.78688  0.02991  1.0000
  C   C17       1.0  0.69894  0.23810  0.50048  1.0000
  C   C18       1.0  0.06252  0.23809  0.99964  1.0000
  C   C19       1.0  0.30106  0.76190  0.49951  1.0000
  C   C20       1.0  0.93748  0.76191  0.00036  1.0000
  C   C21       1.0  0.62848  0.34939  0.44927  1.0000
  C   C22       1.0  0.02171  0.34938  0.05084  1.0000
  C   C23       1.0  0.37152  0.65061  0.55073  1.0000
  C   C24       1.0  0.97829  0.65061  0.94916  1.0000
  C   C25       1.0  0.60990  0.14578  0.52390  1.0000
  C   C26       1.0  0.24390  0.14573  0.97625  1.0000
  C   C27       1.0  0.39010  0.85422  0.47609  1.0000
  C   C28       1.0  0.75610  0.85427  0.02375  1.0000
  C   C29       1.0  0.92841  0.09786  0.58381  1.0000
  C   C30       1.0  0.97327  0.09791  0.91627  1.0000
  C   C31       1.0  0.07159  0.90214  0.41619  1.0000
  C   C32       1.0  0.02673  0.90208  0.08373  1.0000
  C   C33       1.0  0.38839  0.55876  0.19926  1.0000
  C   C34       1.0  0.05236  0.55893  0.30085  1.0000
  C   C35       1.0  0.61160  0.44124  0.80074  1.0000
  C   C36       1.0  0.94764  0.44107  0.69915  1.0000
  C   C37       1.0  0.36818  0.68674  0.23314  1.0000
  C   C38       1.0  0.94449  0.68692  0.26700  1.0000
  C   C39       1.0  0.63182  0.31326  0.76686  1.0000
  C   C40       1.0  0.05551  0.31308  0.73300  1.0000
  C   C41       1.0  0.45798  0.68053  0.29411  1.0000
  C   C42       1.0  0.86096  0.68072  0.20600  1.0000
  C   C43       1.0  0.54202  0.31947  0.70588  1.0000
  C   C44       1.0  0.13905  0.31928  0.79400  1.0000
  C   C45       1.0  0.56824  0.54485  0.32117  1.0000
  C   C46       1.0  0.88651  0.54503  0.17888  1.0000
  C   C47       1.0  0.43175  0.45515  0.67883  1.0000
  C   C48       1.0  0.11349  0.45497  0.82112  1.0000
  C   C49       1.0  0.59437  0.41606  0.28665  1.0000
  C   C50       1.0  0.98932  0.41624  0.21337  1.0000
  C   C51       1.0  0.40562  0.58394  0.71335  1.0000
  C   C52       1.0  0.01068  0.58376  0.78663  1.0000
  C   C53       1.0  0.50291  0.42345  0.22559  1.0000
  C   C54       1.0  0.07330  0.42363  0.27445  1.0000
  C   C55       1.0  0.49710  0.57654  0.77441  1.0000
  C   C56       1.0  0.92670  0.57637  0.72555  1.0000
  C   C57       1.0  0.53102  0.28588  0.18854  1.0000
  C   C58       1.0  0.18285  0.28601  0.31145  1.0000
  C   C59       1.0  0.46898  0.71412  0.81146  1.0000
  C   C60       1.0  0.81715  0.71399  0.68855  1.0000
  N   N1        1.0  0.68044  0.04036  0.57240  1.0000
  N   N2        1.0  0.27879  0.04039  0.92770  1.0000
  N   N3        1.0  0.31956  0.95964  0.42760  1.0000
  N   N4        1.0  0.72121  0.95961  0.07230  1.0000
  N   N5        1.0  0.83279  0.02076  0.60113  1.0000
  N   N6        1.0  0.14602  0.02086  0.89893  1.0000
  N   N7        1.0  0.16721  0.97924  0.39887  1.0000
  N   N8        1.0  0.85398  0.97914  0.10107  1.0000
  O   O1        1.0  0.46346  0.16397  0.50016  1.0000
  O   O2        1.0  0.37210  0.16397  0.00002  1.0000
  O   O3        1.0  0.53654  0.83603  0.49984  1.0000
  O   O4        1.0  0.62791  0.83603  0.99998  1.0000
  O   O5        1.0  0.06644  0.07004  0.61380  1.0000
  O   O6        1.0  0.86311  0.07014  0.88622  1.0000
  O   O7        1.0  0.93356  0.92997  0.38620  1.0000
  O   O8        1.0  0.13689  0.92986  0.11378  1.0000
  O   O9        1.0  0.44405  0.29668  0.13302  1.0000
  O   O10       1.0  0.25918  0.29676  0.36693  1.0000
  O   O11       1.0  0.55595  0.70332  0.86698  1.0000
  O   O12       1.0  0.74081  0.70324  0.63307  1.0000
  O   O13       1.0  0.63981  0.16329  0.21137  1.0000
  O   O14       1.0  0.19647  0.16347  0.28861  1.0000
  O   O15       1.0  0.36019  0.83671  0.78863  1.0000
  O   O16       1.0  0.80353  0.83653  0.71139  1.0000
  O   O17       1.0  0.65905  0.54825  0.37985  1.0000
  O   O18       1.0  0.79236  0.54842  0.12020  1.0000
  O   O19       1.0  0.34095  0.45175  0.62016  1.0000
  O   O20       1.0  0.20765  0.45158  0.87980  1.0000
  O   O21       1.0  0.37187  0.96607  0.66302  1.0000
  O   O22       1.0  0.66174  0.96621  0.83688  1.0000
  O   O23       1.0  0.62813  0.03393  0.33697  1.0000
  O   O24       1.0  0.33826  0.03378  0.16312  1.0000
