data_image0
_chemical_formula_structural       Ag4H36C32S4N8O8
_chemical_formula_sum              "Ag4 H36 C32 S4 N8 O8"
_cell_length_a       8.82936
_cell_length_b       9.03797
_cell_length_c       12.6798
_cell_angle_alpha    90.0002
_cell_angle_beta     89.9998
_cell_angle_gamma    108.793

_space_group_name_H-M_alt    "P 1"
_space_group_IT_number       1

loop_
  _space_group_symop_operation_xyz
  'x, y, z'

loop_
  _atom_site_type_symbol
  _atom_site_label
  _atom_site_symmetry_multiplicity
  _atom_site_fract_x
  _atom_site_fract_y
  _atom_site_fract_z
  _atom_site_occupancy
  Ag  Ag1       1.0  0.46648  0.02348  0.85117  1.0000
  Ag  Ag2       1.0  0.53352  0.47651  0.35117  1.0000
  Ag  Ag3       1.0  0.53352  0.97651  0.14883  1.0000
  Ag  Ag4       1.0  0.46648  0.52349  0.64883  1.0000
  H   H1        1.0  0.16191  0.07258  0.15256  1.0000
  H   H2        1.0  0.83809  0.42742  0.65257  1.0000
  H   H3        1.0  0.83809  0.92743  0.84744  1.0000
  H   H4        1.0  0.16191  0.57258  0.34744  1.0000
  H   H5        1.0  0.30274  0.23050  0.94645  1.0000
  H   H6        1.0  0.69725  0.26950  0.44646  1.0000
  H   H7        1.0  0.69725  0.76950  0.05354  1.0000
  H   H8        1.0  0.30274  0.73050  0.55355  1.0000
  H   H9        1.0  0.34830  0.32930  0.06832  1.0000
  H   H10       1.0  0.65170  0.17069  0.56832  1.0000
  H   H11       1.0  0.65170  0.67069  0.93168  1.0000
  H   H12       1.0  0.34830  0.82931  0.43168  1.0000
  H   H13       1.0  0.27155  0.41290  0.96059  1.0000
  H   H14       1.0  0.72845  0.08709  0.46060  1.0000
  H   H15       1.0  0.72845  0.58709  0.03940  1.0000
  H   H16       1.0  0.27155  0.91291  0.53941  1.0000
  H   H17       1.0  0.85854  0.99395  0.31802  1.0000
  H   H18       1.0  0.14146  0.50605  0.81803  1.0000
  H   H19       1.0  0.14147  0.00604  0.68198  1.0000
  H   H20       1.0  0.85854  0.49395  0.18198  1.0000
  H   H21       1.0  0.96824  0.88236  0.25825  1.0000
  H   H22       1.0  0.03177  0.61764  0.75826  1.0000
  H   H23       1.0  0.03177  0.11764  0.74174  1.0000
  H   H24       1.0  0.96824  0.38236  0.24174  1.0000
  H   H25       1.0  0.75757  0.83724  0.23344  1.0000
  H   H26       1.0  0.24244  0.66275  0.73344  1.0000
  H   H27       1.0  0.24244  0.16276  0.76656  1.0000
  H   H28       1.0  0.75757  0.33725  0.26656  1.0000
  H   H29       1.0  0.85006  0.46719  0.90120  1.0000
  H   H30       1.0  0.14993  0.03281  0.40120  1.0000
  H   H31       1.0  0.14993  0.53281  0.09880  1.0000
  H   H32       1.0  0.85008  0.96719  0.59880  1.0000
  H   H33       1.0  0.82147  0.29602  0.82319  1.0000
  H   H34       1.0  0.17853  0.20397  0.32319  1.0000
  H   H35       1.0  0.17853  0.70398  0.17681  1.0000
  H   H36       1.0  0.82147  0.79603  0.67681  1.0000
  C   C1        1.0  0.83050  0.19172  0.03248  1.0000
  C   C2        1.0  0.16949  0.30828  0.53248  1.0000
  C   C3        1.0  0.16949  0.80828  0.96752  1.0000
  C   C4        1.0  0.83051  0.69173  0.46752  1.0000
  C   C5        1.0  0.09766  0.22355  0.04003  1.0000
  C   C6        1.0  0.90234  0.27645  0.54004  1.0000
  C   C7        1.0  0.90234  0.77645  0.95997  1.0000
  C   C8        1.0  0.09766  0.72355  0.45997  1.0000
  C   C9        1.0  0.06649  0.10971  0.11895  1.0000
  C   C10       1.0  0.93350  0.39029  0.61896  1.0000
  C   C11       1.0  0.93351  0.89029  0.88105  1.0000
  C   C12       1.0  0.06649  0.60971  0.38105  1.0000
  C   C13       1.0  0.91028  0.04354  0.15554  1.0000
  C   C14       1.0  0.08973  0.45646  0.65554  1.0000
  C   C15       1.0  0.08973  0.95646  0.84446  1.0000
  C   C16       1.0  0.91028  0.54355  0.34446  1.0000
  C   C17       1.0  0.26379  0.30432  0.00207  1.0000
  C   C18       1.0  0.73621  0.19567  0.50208  1.0000
  C   C19       1.0  0.73621  0.69567  0.99792  1.0000
  C   C20       1.0  0.26379  0.80433  0.49793  1.0000
  C   C21       1.0  0.87116  0.93141  0.24559  1.0000
  C   C22       1.0  0.12885  0.56859  0.74560  1.0000
  C   C23       1.0  0.12885  0.06859  0.75441  1.0000
  C   C24       1.0  0.87116  0.43141  0.25441  1.0000
  C   C25       1.0  0.76083  0.36127  0.87120  1.0000
  C   C26       1.0  0.23916  0.13872  0.37120  1.0000
  C   C27       1.0  0.23917  0.63872  0.12880  1.0000
  C   C28       1.0  0.76084  0.86129  0.62880  1.0000
  C   C29       1.0  0.63536  0.39814  0.80297  1.0000
  C   C30       1.0  0.36463  0.10184  0.30297  1.0000
  C   C31       1.0  0.36464  0.60185  0.19703  1.0000
  C   C32       1.0  0.63538  0.89817  0.69703  1.0000
  S   S1        1.0  0.66577  0.23656  0.98055  1.0000
  S   S2        1.0  0.33422  0.26343  0.48055  1.0000
  S   S3        1.0  0.33422  0.76343  0.01945  1.0000
  S   S4        1.0  0.66578  0.73657  0.51945  1.0000
  N   N1        1.0  0.97743  0.26484  0.99656  1.0000
  N   N2        1.0  0.02256  0.23516  0.49657  1.0000
  N   N3        1.0  0.02256  0.73516  0.00343  1.0000
  N   N4        1.0  0.97743  0.76485  0.50343  1.0000
  N   N5        1.0  0.79017  0.08409  0.11045  1.0000
  N   N6        1.0  0.20983  0.41591  0.61045  1.0000
  N   N7        1.0  0.20983  0.91591  0.88955  1.0000
  N   N8        1.0  0.79017  0.58409  0.38955  1.0000
  O   O1        1.0  0.49396  0.30434  0.80128  1.0000
  O   O2        1.0  0.50604  0.19564  0.30128  1.0000
  O   O3        1.0  0.50604  0.69565  0.19872  1.0000
  O   O4        1.0  0.49396  0.80437  0.69872  1.0000
  O   O5        1.0  0.68606  0.52271  0.74783  1.0000
  O   O6        1.0  0.31393  0.97727  0.24784  1.0000
  O   O7        1.0  0.31394  0.47728  0.25217  1.0000
  O   O8        1.0  0.68608  0.02273  0.75216  1.0000
