data_image0
_chemical_formula_structural       K4H32C32N4O8
_chemical_formula_sum              "K4 H32 C32 N4 O8"
_cell_length_a       6.98402
_cell_length_b       8.658
_cell_length_c       14.4381
_cell_angle_alpha    103.173
_cell_angle_beta     90.0003
_cell_angle_gamma    89.9998

_space_group_name_H-M_alt    "P 1"
_space_group_IT_number       1

loop_
  _space_group_symop_operation_xyz
  'x, y, z'

loop_
  _atom_site_type_symbol
  _atom_site_label
  _atom_site_symmetry_multiplicity
  _atom_site_fract_x
  _atom_site_fract_y
  _atom_site_fract_z
  _atom_site_occupancy
  K   K1        1.0  0.36256  0.79581  0.44388  1.0000
  K   K2        1.0  0.86257  0.70419  0.55612  1.0000
  K   K3        1.0  0.63744  0.20419  0.55612  1.0000
  K   K4        1.0  0.13743  0.29581  0.44389  1.0000
  H   H1        1.0  0.52677  0.42726  0.77639  1.0000
  H   H2        1.0  0.02677  0.07275  0.22361  1.0000
  H   H3        1.0  0.47323  0.57274  0.22361  1.0000
  H   H4        1.0  0.97323  0.92726  0.77639  1.0000
  H   H5        1.0  0.61767  0.55662  0.71898  1.0000
  H   H6        1.0  0.11767  0.94338  0.28102  1.0000
  H   H7        1.0  0.38233  0.44338  0.28102  1.0000
  H   H8        1.0  0.88233  0.05662  0.71899  1.0000
  H   H9        1.0  0.25494  0.40010  0.65699  1.0000
  H   H10       1.0  0.75494  0.09990  0.34301  1.0000
  H   H11       1.0  0.74506  0.59990  0.34301  1.0000
  H   H12       1.0  0.24506  0.90010  0.65699  1.0000
  H   H13       1.0  0.45822  0.75938  0.82594  1.0000
  H   H14       1.0  0.95822  0.74062  0.17406  1.0000
  H   H15       1.0  0.54178  0.24062  0.17406  1.0000
  H   H16       1.0  0.04178  0.25939  0.82594  1.0000
  H   H17       1.0  0.27178  0.92230  0.95796  1.0000
  H   H18       1.0  0.77179  0.57770  0.04204  1.0000
  H   H19       1.0  0.72821  0.07771  0.04204  1.0000
  H   H20       1.0  0.22823  0.42230  0.95796  1.0000
  H   H21       1.0  0.92784  0.85672  0.98060  1.0000
  H   H22       1.0  0.42784  0.64328  0.01939  1.0000
  H   H23       1.0  0.07215  0.14329  0.01939  1.0000
  H   H24       1.0  0.57216  0.35671  0.98061  1.0000
  H   H25       1.0  0.77345  0.63412  0.86612  1.0000
  H   H26       1.0  0.27346  0.86587  0.13387  1.0000
  H   H27       1.0  0.22654  0.36588  0.13387  1.0000
  H   H28       1.0  0.72655  0.13412  0.86613  1.0000
  H   H29       1.0  0.96262  0.47199  0.73104  1.0000
  H   H30       1.0  0.46263  0.02800  0.26895  1.0000
  H   H31       1.0  0.03737  0.52801  0.26896  1.0000
  H   H32       1.0  0.53738  0.97199  0.73105  1.0000
  C   C1        1.0  0.35714  0.60450  0.61059  1.0000
  C   C2        1.0  0.85714  0.89549  0.38941  1.0000
  C   C3        1.0  0.64285  0.39550  0.38941  1.0000
  C   C4        1.0  0.14286  0.10450  0.61059  1.0000
  C   C5        1.0  0.33844  0.50683  0.68788  1.0000
  C   C6        1.0  0.83844  0.99317  0.31212  1.0000
  C   C7        1.0  0.66156  0.49317  0.31212  1.0000
  C   C8        1.0  0.16156  0.00683  0.68788  1.0000
  C   C9        1.0  0.22266  0.60530  0.76961  1.0000
  C   C10       1.0  0.72266  0.89470  0.23038  1.0000
  C   C11       1.0  0.77734  0.39470  0.23038  1.0000
  C   C12       1.0  0.27735  0.10530  0.76962  1.0000
  C   C13       1.0  0.30784  0.73175  0.83442  1.0000
  C   C14       1.0  0.80784  0.76825  0.16558  1.0000
  C   C15       1.0  0.69216  0.26825  0.16558  1.0000
  C   C16       1.0  0.19216  0.23175  0.83442  1.0000
  C   C17       1.0  0.20231  0.82355  0.90906  1.0000
  C   C18       1.0  0.70232  0.67644  0.09094  1.0000
  C   C19       1.0  0.79768  0.17645  0.09094  1.0000
  C   C20       1.0  0.29768  0.32356  0.90906  1.0000
  C   C21       1.0  0.00978  0.78842  0.92088  1.0000
  C   C22       1.0  0.50979  0.71157  0.07911  1.0000
  C   C23       1.0  0.99021  0.21158  0.07911  1.0000
  C   C24       1.0  0.49022  0.28843  0.92089  1.0000
  C   C25       1.0  0.92330  0.66241  0.85638  1.0000
  C   C26       1.0  0.42331  0.83758  0.14362  1.0000
  C   C27       1.0  0.07669  0.33759  0.14362  1.0000
  C   C28       1.0  0.57670  0.16241  0.85638  1.0000
  C   C29       1.0  0.02848  0.57203  0.78085  1.0000
  C   C30       1.0  0.52849  0.92797  0.21914  1.0000
  C   C31       1.0  0.97151  0.42797  0.21915  1.0000
  C   C32       1.0  0.47152  0.07203  0.78086  1.0000
  N   N1        1.0  0.52991  0.46025  0.71279  1.0000
  N   N2        1.0  0.02991  0.03976  0.28721  1.0000
  N   N3        1.0  0.47009  0.53975  0.28721  1.0000
  N   N4        1.0  0.97009  0.96025  0.71279  1.0000
  O   O1        1.0  0.21929  0.59427  0.55198  1.0000
  O   O2        1.0  0.71930  0.90573  0.44802  1.0000
  O   O3        1.0  0.78071  0.40573  0.44802  1.0000
  O   O4        1.0  0.28071  0.09427  0.55198  1.0000
  O   O5        1.0  0.50395  0.69115  0.61335  1.0000
  O   O6        1.0  0.00395  0.80884  0.38665  1.0000
  O   O7        1.0  0.49605  0.30885  0.38665  1.0000
  O   O8        1.0  0.99605  0.19116  0.61335  1.0000
