data_image0
_chemical_formula_structural       Sr2Cu2H8C8O16
_chemical_formula_sum              "Sr2 Cu2 H8 C8 O16"
_cell_length_a       6.76386
_cell_length_b       7.41353
_cell_length_c       8.55028
_cell_angle_alpha    90
_cell_angle_beta     89.9999
_cell_angle_gamma    96.9468

_space_group_name_H-M_alt    "P 1"
_space_group_IT_number       1

loop_
  _space_group_symop_operation_xyz
  'x, y, z'

loop_
  _atom_site_type_symbol
  _atom_site_label
  _atom_site_symmetry_multiplicity
  _atom_site_fract_x
  _atom_site_fract_y
  _atom_site_fract_z
  _atom_site_occupancy
  Sr  Sr1       1.0  0.25000  0.00000  0.13542  1.0000
  Sr  Sr2       1.0  0.75000  0.00000  0.86457  1.0000
  Cu  Cu1       1.0  0.25000  0.50000  0.40778  1.0000
  Cu  Cu2       1.0  0.75000  0.50000  0.59221  1.0000
  H   H1        1.0  0.92256  0.44715  0.16425  1.0000
  H   H2        1.0  0.57744  0.55285  0.16425  1.0000
  H   H3        1.0  0.07743  0.55281  0.83574  1.0000
  H   H4        1.0  0.42257  0.44719  0.83573  1.0000
  H   H5        1.0  0.77533  0.15781  0.44854  1.0000
  H   H6        1.0  0.72467  0.84218  0.44854  1.0000
  H   H7        1.0  0.22469  0.84220  0.55150  1.0000
  H   H8        1.0  0.27532  0.15780  0.55150  1.0000
  C   C1        1.0  0.00884  0.33031  0.15127  1.0000
  C   C2        1.0  0.49116  0.66970  0.15127  1.0000
  C   C3        1.0  0.99113  0.66975  0.84874  1.0000
  C   C4        1.0  0.50887  0.33025  0.84874  1.0000
  C   C5        1.0  0.63481  0.19621  0.39936  1.0000
  C   C6        1.0  0.86519  0.80379  0.39936  1.0000
  C   C7        1.0  0.36510  0.80382  0.60062  1.0000
  C   C8        1.0  0.13490  0.19618  0.60062  1.0000
  O   O1        1.0  0.15569  0.32064  0.24429  1.0000
  O   O2        1.0  0.34431  0.67937  0.24429  1.0000
  O   O3        1.0  0.84425  0.67939  0.75570  1.0000
  O   O4        1.0  0.65575  0.32061  0.75570  1.0000
  O   O5        1.0  0.96270  0.21189  0.04769  1.0000
  O   O6        1.0  0.53731  0.78811  0.04768  1.0000
  O   O7        1.0  0.03736  0.78815  0.95235  1.0000
  O   O8        1.0  0.46264  0.21185  0.95235  1.0000
  O   O9        1.0  0.52860  0.08430  0.31668  1.0000
  O   O10       1.0  0.97140  0.91570  0.31668  1.0000
  O   O11       1.0  0.47133  0.91563  0.68331  1.0000
  O   O12       1.0  0.02867  0.08437  0.68331  1.0000
  O   O13       1.0  0.59239  0.35690  0.43181  1.0000
  O   O14       1.0  0.90761  0.64309  0.43181  1.0000
  O   O15       1.0  0.40756  0.64315  0.56818  1.0000
  O   O16       1.0  0.09245  0.35686  0.56818  1.0000
