data_image0
_chemical_formula_structural       Cu4H12C8O8
_chemical_formula_sum              "Cu4 H12 C8 O8"
_cell_length_a       5.19282
_cell_length_b       5.90431
_cell_length_c       9.88202
_cell_angle_alpha    90.0217
_cell_angle_beta     93.673
_cell_angle_gamma    89.9765

_space_group_name_H-M_alt    "P 1"
_space_group_IT_number       1

loop_
  _space_group_symop_operation_xyz
  'x, y, z'

loop_
  _atom_site_type_symbol
  _atom_site_label
  _atom_site_symmetry_multiplicity
  _atom_site_fract_x
  _atom_site_fract_y
  _atom_site_fract_z
  _atom_site_occupancy
  Cu  Cu1       1.0  0.64451  0.24995  0.42265  1.0000
  Cu  Cu2       1.0  0.35549  0.75007  0.57735  1.0000
  Cu  Cu3       1.0  0.07542  0.24975  0.54630  1.0000
  Cu  Cu4       1.0  0.92457  0.75026  0.45370  1.0000
  H   H1        1.0  0.64789  0.25005  0.92745  1.0000
  H   H2        1.0  0.35210  0.74994  0.07256  1.0000
  H   H3        1.0  0.38717  0.10100  0.83829  1.0000
  H   H4        1.0  0.38709  0.39913  0.83833  1.0000
  H   H5        1.0  0.61283  0.89897  0.16171  1.0000
  H   H6        1.0  0.61289  0.60084  0.16169  1.0000
  H   H7        1.0  0.37875  0.25000  0.13313  1.0000
  H   H8        1.0  0.62127  0.74998  0.86687  1.0000
  H   H9        1.0  0.10138  0.10029  0.06394  1.0000
  H   H10       1.0  0.10125  0.39978  0.06404  1.0000
  H   H11       1.0  0.89864  0.89969  0.93605  1.0000
  H   H12       1.0  0.89876  0.60021  0.93594  1.0000
  C   C1        1.0  0.65130  0.25003  0.70889  1.0000
  C   C2        1.0  0.34871  0.75003  0.29112  1.0000
  C   C3        1.0  0.05114  0.24999  0.25645  1.0000
  C   C4        1.0  0.94885  0.75002  0.74354  1.0000
  C   C5        1.0  0.51341  0.25004  0.83771  1.0000
  C   C6        1.0  0.48658  0.74998  0.16230  1.0000
  C   C7        1.0  0.16814  0.24998  0.12164  1.0000
  C   C8        1.0  0.83186  0.74994  0.87834  1.0000
  O   O1        1.0  0.50646  0.25005  0.59778  1.0000
  O   O2        1.0  0.49355  0.75006  0.40222  1.0000
  O   O3        1.0  0.80483  0.24996  0.25534  1.0000
  O   O4        1.0  0.19516  0.75001  0.74465  1.0000
  O   O5        1.0  0.89663  0.24992  0.71325  1.0000
  O   O6        1.0  0.10336  0.75006  0.28676  1.0000
  O   O7        1.0  0.20220  0.24995  0.36410  1.0000
  O   O8        1.0  0.79780  0.75005  0.63588  1.0000
