data_image0
_chemical_formula_structural       Ag2H16C28N6O6
_chemical_formula_sum              "Ag2 H16 C28 N6 O6"
_cell_length_a       8.38152
_cell_length_b       8.46518
_cell_length_c       10.4142
_cell_angle_alpha    110.354
_cell_angle_beta     97.1215
_cell_angle_gamma    101.041

_space_group_name_H-M_alt    "P 1"
_space_group_IT_number       1

loop_
  _space_group_symop_operation_xyz
  'x, y, z'

loop_
  _atom_site_type_symbol
  _atom_site_label
  _atom_site_symmetry_multiplicity
  _atom_site_fract_x
  _atom_site_fract_y
  _atom_site_fract_z
  _atom_site_occupancy
  Ag  Ag1       1.0  0.80985  0.42719  0.31983  1.0000
  Ag  Ag2       1.0  0.19015  0.57284  0.68017  1.0000
  H   H1        1.0  0.08402  0.25351  0.22662  1.0000
  H   H2        1.0  0.91598  0.74650  0.77340  1.0000
  H   H3        1.0  0.20393  0.14153  0.01237  1.0000
  H   H4        1.0  0.79606  0.85848  0.98765  1.0000
  H   H5        1.0  0.07257  0.16216  0.78867  1.0000
  H   H6        1.0  0.92745  0.83786  0.21134  1.0000
  H   H7        1.0  0.83351  0.29751  0.79128  1.0000
  H   H8        1.0  0.16650  0.70251  0.20872  1.0000
  H   H9        1.0  0.27355  0.98572  0.32717  1.0000
  H   H10       1.0  0.72644  0.01430  0.67283  1.0000
  H   H11       1.0  0.28545  0.10933  0.58266  1.0000
  H   H12       1.0  0.71455  0.89068  0.41735  1.0000
  H   H13       1.0  0.51646  0.37716  0.73338  1.0000
  H   H14       1.0  0.48356  0.62284  0.26663  1.0000
  H   H15       1.0  0.72031  0.50471  0.61688  1.0000
  H   H16       1.0  0.27969  0.49531  0.38312  1.0000
  C   C1        1.0  0.03390  0.26116  0.12764  1.0000
  C   C2        1.0  0.96609  0.73886  0.87239  1.0000
  C   C3        1.0  0.09824  0.19825  0.00794  1.0000
  C   C4        1.0  0.90175  0.80177  0.99207  1.0000
  C   C5        1.0  0.02646  0.21040  0.88458  1.0000
  C   C6        1.0  0.97355  0.78963  0.11544  1.0000
  C   C7        1.0  0.89113  0.28326  0.88487  1.0000
  C   C8        1.0  0.10886  0.71675  0.11513  1.0000
  C   C9        1.0  0.83071  0.34124  0.00844  1.0000
  C   C10       1.0  0.16928  0.65875  0.99155  1.0000
  C   C11       1.0  0.69048  0.41088  0.01067  1.0000
  C   C12       1.0  0.30950  0.58908  0.98931  1.0000
  C   C13       1.0  0.56713  0.46800  0.00347  1.0000
  C   C14       1.0  0.43290  0.53196  0.99650  1.0000
  C   C15       1.0  0.49725  0.03601  0.06823  1.0000
  C   C16       1.0  0.50272  0.96398  0.93176  1.0000
  C   C17       1.0  0.49479  0.10351  0.19300  1.0000
  C   C18       1.0  0.50522  0.89650  0.80702  1.0000
  C   C19       1.0  0.49274  0.17620  0.33744  1.0000
  C   C20       1.0  0.50727  0.82379  0.66256  1.0000
  C   C21       1.0  0.37140  0.09977  0.39446  1.0000
  C   C22       1.0  0.62860  0.90023  0.60554  1.0000
  C   C23       1.0  0.37808  0.17073  0.53794  1.0000
  C   C24       1.0  0.62191  0.82925  0.46205  1.0000
  C   C25       1.0  0.50539  0.31735  0.62060  1.0000
  C   C26       1.0  0.49462  0.68265  0.37940  1.0000
  C   C27       1.0  0.62017  0.38875  0.55677  1.0000
  C   C28       1.0  0.37983  0.61125  0.44323  1.0000
  N   N1        1.0  0.90361  0.33258  0.12940  1.0000
  N   N2        1.0  0.09639  0.66741  0.87060  1.0000
  N   N3        1.0  0.61523  0.32192  0.41882  1.0000
  N   N4        1.0  0.38477  0.67806  0.58117  1.0000
  N   N5        1.0  0.03352  0.79360  0.53131  1.0000
  N   N6        1.0  0.96649  0.20639  0.46869  1.0000
  O   O1        1.0  0.92270  0.67084  0.54096  1.0000
  O   O2        1.0  0.07732  0.32913  0.45904  1.0000
  O   O3        1.0  0.05496  0.78685  0.41230  1.0000
  O   O4        1.0  0.94502  0.21313  0.58767  1.0000
  O   O5        1.0  0.11825  0.91455  0.64223  1.0000
  O   O6        1.0  0.88174  0.08544  0.35775  1.0000
