data_image0
_chemical_formula_structural       Ag2H16C28N6O6
_chemical_formula_sum              "Ag2 H16 C28 N6 O6"
_cell_length_a       8.56678
_cell_length_b       9.38537
_cell_length_c       9.73244
_cell_angle_alpha    90.7133
_cell_angle_beta     112.488
_cell_angle_gamma    116.923

_space_group_name_H-M_alt    "P 1"
_space_group_IT_number       1

loop_
  _space_group_symop_operation_xyz
  'x, y, z'

loop_
  _atom_site_type_symbol
  _atom_site_label
  _atom_site_symmetry_multiplicity
  _atom_site_fract_x
  _atom_site_fract_y
  _atom_site_fract_z
  _atom_site_occupancy
  Ag  Ag1       1.0  0.71021  0.52731  0.60197  1.0000
  Ag  Ag2       1.0  0.28978  0.47269  0.39803  1.0000
  H   H1        1.0  0.83892  0.11146  0.80873  1.0000
  H   H2        1.0  0.16107  0.88854  0.19127  1.0000
  H   H3        1.0  0.71486  0.02737  0.00333  1.0000
  H   H4        1.0  0.28514  0.97264  0.99667  1.0000
  H   H5        1.0  0.63608  0.74855  0.05672  1.0000
  H   H6        1.0  0.36394  0.25146  0.94329  1.0000
  H   H7        1.0  0.65558  0.55403  0.89126  1.0000
  H   H8        1.0  0.34443  0.44598  0.10875  1.0000
  H   H9        1.0  0.75503  0.15024  0.23057  1.0000
  H   H10       1.0  0.24495  0.84975  0.76943  1.0000
  H   H11       1.0  0.88731  0.36856  0.09115  1.0000
  H   H12       1.0  0.11268  0.63143  0.90884  1.0000
  H   H13       1.0  0.93017  0.64460  0.16510  1.0000
  H   H14       1.0  0.06985  0.35540  0.83490  1.0000
  H   H15       1.0  0.83956  0.69495  0.36871  1.0000
  H   H16       1.0  0.16046  0.30505  0.63129  1.0000
  C   C1        1.0  0.89552  0.92462  0.64225  1.0000
  C   C2        1.0  0.10449  0.07537  0.35776  1.0000
  C   C3        1.0  0.96400  0.97434  0.55112  1.0000
  C   C4        1.0  0.03602  0.02562  0.44889  1.0000
  C   C5        1.0  0.82029  0.87837  0.75087  1.0000
  C   C6        1.0  0.17971  0.12162  0.24913  1.0000
  C   C7        1.0  0.80394  0.99085  0.83363  1.0000
  C   C8        1.0  0.19606  0.00915  0.16637  1.0000
  C   C9        1.0  0.73536  0.94383  0.94297  1.0000
  C   C10       1.0  0.26463  0.05617  0.05703  1.0000
  C   C11       1.0  0.68759  0.78716  0.97003  1.0000
  C   C12       1.0  0.31242  0.21285  0.02997  1.0000
  C   C13       1.0  0.70058  0.68028  0.88028  1.0000
  C   C14       1.0  0.29943  0.31973  0.11973  1.0000
  C   C15       1.0  0.55310  0.06614  0.47949  1.0000
  C   C16       1.0  0.44689  0.93387  0.52050  1.0000
  C   C17       1.0  0.64613  0.18771  0.44053  1.0000
  C   C18       1.0  0.35385  0.81229  0.55946  1.0000
  C   C19       1.0  0.73233  0.31146  0.37095  1.0000
  C   C20       1.0  0.26766  0.68854  0.62905  1.0000
  C   C21       1.0  0.78015  0.27394  0.25755  1.0000
  C   C22       1.0  0.21984  0.72606  0.74245  1.0000
  C   C23       1.0  0.85239  0.39400  0.18190  1.0000
  C   C24       1.0  0.14761  0.60598  0.81810  1.0000
  C   C25       1.0  0.87349  0.54741  0.22119  1.0000
  C   C26       1.0  0.12651  0.45258  0.77881  1.0000
  C   C27       1.0  0.82597  0.57709  0.33613  1.0000
  C   C28       1.0  0.17404  0.42291  0.66387  1.0000
  N   N1        1.0  0.76272  0.72213  0.77165  1.0000
  N   N2        1.0  0.23728  0.27787  0.22836  1.0000
  N   N3        1.0  0.75795  0.46284  0.41158  1.0000
  N   N4        1.0  0.24206  0.53717  0.58842  1.0000
  N   N5        1.0  0.58007  0.26076  0.78374  1.0000
  N   N6        1.0  0.41993  0.73925  0.21625  1.0000
  O   O1        1.0  0.76134  0.33381  0.81867  1.0000
  O   O2        1.0  0.23866  0.66619  0.18133  1.0000
  O   O3        1.0  0.47360  0.31084  0.69085  1.0000
  O   O4        1.0  0.52641  0.68916  0.30913  1.0000
  O   O5        1.0  0.50648  0.14273  0.84074  1.0000
  O   O6        1.0  0.49352  0.85728  0.15926  1.0000
