data_image0
_chemical_formula_structural       Sr2H24C20N12O12
_chemical_formula_sum              "Sr2 H24 C20 N12 O12"
_cell_length_a       4.39264
_cell_length_b       12.0602
_cell_length_c       13.3464
_cell_angle_alpha    91.5817
_cell_angle_beta     99.4394
_cell_angle_gamma    90.0544

_space_group_name_H-M_alt    "P 1"
_space_group_IT_number       1

loop_
  _space_group_symop_operation_xyz
  'x, y, z'

loop_
  _atom_site_type_symbol
  _atom_site_label
  _atom_site_symmetry_multiplicity
  _atom_site_fract_x
  _atom_site_fract_y
  _atom_site_fract_z
  _atom_site_occupancy
  Sr  Sr1       1.0  0.63123  0.74983  0.99995  1.0000
  Sr  Sr2       1.0  0.36879  0.25017  0.00006  1.0000
  H   H1        1.0  0.20778  0.55606  0.54554  1.0000
  H   H2        1.0  0.66248  0.94418  0.45444  1.0000
  H   H3        1.0  0.79221  0.44396  0.45447  1.0000
  H   H4        1.0  0.33751  0.05581  0.54556  1.0000
  H   H5        1.0  0.45575  0.56379  0.66751  1.0000
  H   H6        1.0  0.78776  0.93661  0.33225  1.0000
  H   H7        1.0  0.54426  0.43622  0.33250  1.0000
  H   H8        1.0  0.21223  0.06338  0.66774  1.0000
  H   H9        1.0  0.60130  0.25672  0.57127  1.0000
  H   H10       1.0  0.03106  0.24330  0.42934  1.0000
  H   H11       1.0  0.39868  0.74330  0.42873  1.0000
  H   H12       1.0  0.96892  0.75668  0.57066  1.0000
  H   H13       1.0  0.75902  0.19109  0.74915  1.0000
  H   H14       1.0  0.00973  0.30888  0.25127  1.0000
  H   H15       1.0  0.24102  0.80891  0.25084  1.0000
  H   H16       1.0  0.99027  0.69112  0.74873  1.0000
  H   H17       1.0  0.17332  0.91177  0.01247  1.0000
  H   H18       1.0  0.16033  0.58809  0.98748  1.0000
  H   H19       1.0  0.82670  0.08823  0.98754  1.0000
  H   H20       1.0  0.83969  0.41191  0.01253  1.0000
  H   H21       1.0  0.03617  0.91298  0.11913  1.0000
  H   H22       1.0  0.91784  0.58722  0.88060  1.0000
  H   H23       1.0  0.96384  0.08702  0.88087  1.0000
  H   H24       1.0  0.08218  0.41278  0.11941  1.0000
  C   C1        1.0  0.49772  0.45271  0.82667  1.0000
  C   C2        1.0  0.66975  0.04754  0.17315  1.0000
  C   C3        1.0  0.50229  0.54730  0.17333  1.0000
  C   C4        1.0  0.33023  0.95245  0.82684  1.0000
  C   C5        1.0  0.24169  0.39946  0.75304  1.0000
  C   C6        1.0  0.48785  0.10068  0.24695  1.0000
  C   C7        1.0  0.75832  0.60056  0.24696  1.0000
  C   C8        1.0  0.51212  0.89930  0.75304  1.0000
  C   C9        1.0  0.14491  0.44041  0.65257  1.0000
  C   C10       1.0  0.49221  0.05983  0.34753  1.0000
  C   C11       1.0  0.85509  0.55959  0.34745  1.0000
  C   C12       1.0  0.50776  0.94016  0.65246  1.0000
  C   C13       1.0  0.78527  0.29920  0.62349  1.0000
  C   C14       1.0  0.16219  0.20092  0.37690  1.0000
  C   C15       1.0  0.21472  0.70082  0.37651  1.0000
  C   C16       1.0  0.83779  0.79907  0.62310  1.0000
  C   C17       1.0  0.87362  0.26154  0.72196  1.0000
  C   C18       1.0  0.15131  0.23844  0.27835  1.0000
  C   C19       1.0  0.12638  0.73847  0.27804  1.0000
  C   C20       1.0  0.84870  0.76155  0.72165  1.0000
  N   N1        1.0  0.10483  0.31136  0.78550  1.0000
  N   N2        1.0  0.31850  0.18868  0.21462  1.0000
  N   N3        1.0  0.89520  0.68864  0.21450  1.0000
  N   N4        1.0  0.68149  0.81131  0.78537  1.0000
  N   N5        1.0  0.91768  0.38624  0.58810  1.0000
  N   N6        1.0  0.33006  0.11396  0.41218  1.0000
  N   N7        1.0  0.08230  0.61378  0.41190  1.0000
  N   N8        1.0  0.66992  0.88602  0.58782  1.0000
  N   N9        1.0  0.27035  0.53097  0.61950  1.0000
  N   N10       1.0  0.65097  0.96940  0.38049  1.0000
  N   N11       1.0  0.72966  0.46905  0.38051  1.0000
  N   N12       1.0  0.34903  0.03059  0.61950  1.0000
  O   O1        1.0  0.11501  0.86399  0.06617  1.0000
  O   O2        1.0  0.04917  0.63607  0.93385  1.0000
  O   O3        1.0  0.88498  0.13601  0.93382  1.0000
  O   O4        1.0  0.95085  0.36393  0.06615  1.0000
  O   O5        1.0  0.54698  0.41568  0.91619  1.0000
  O   O6        1.0  0.62946  0.08465  0.08367  1.0000
  O   O7        1.0  0.45304  0.58432  0.08382  1.0000
  O   O8        1.0  0.37054  0.91534  0.91632  1.0000
  O   O9        1.0  0.65118  0.53120  0.79663  1.0000
  O   O10       1.0  0.85279  0.96899  0.20297  1.0000
  O   O11       1.0  0.34883  0.46881  0.20338  1.0000
  O   O12       1.0  0.14719  0.03101  0.79702  1.0000
