data_image0
_chemical_formula_structural       K4H48C40S4N8O4
_chemical_formula_sum              "K4 H48 C40 S4 N8 O4"
_cell_length_a       6.38044
_cell_length_b       11.9423
_cell_length_c       14.9149
_cell_angle_alpha    96.7936
_cell_angle_beta     90
_cell_angle_gamma    90

_space_group_name_H-M_alt    "P 1"
_space_group_IT_number       1

loop_
  _space_group_symop_operation_xyz
  'x, y, z'

loop_
  _atom_site_type_symbol
  _atom_site_label
  _atom_site_symmetry_multiplicity
  _atom_site_fract_x
  _atom_site_fract_y
  _atom_site_fract_z
  _atom_site_occupancy
  K   K1        1.0  0.95629  0.00002  0.75000  1.0000
  K   K2        1.0  0.04371  1.00000  0.25000  1.0000
  K   K3        1.0  1.00000  0.99996  0.49999  1.0000
  K   K4        1.0  0.00000  0.00001  0.00000  1.0000
  H   H1        1.0  0.77829  0.33184  0.62479  1.0000
  H   H2        1.0  0.77827  0.66813  0.87522  1.0000
  H   H3        1.0  0.22170  0.66816  0.37521  1.0000
  H   H4        1.0  0.22174  0.33185  0.12478  1.0000
  H   H5        1.0  0.51345  0.48536  0.65050  1.0000
  H   H6        1.0  0.51342  0.51461  0.84949  1.0000
  H   H7        1.0  0.48652  0.51462  0.34950  1.0000
  H   H8        1.0  0.48658  0.48537  0.15050  1.0000
  H   H9        1.0  0.13992  0.44189  0.67445  1.0000
  H   H10       1.0  0.13988  0.55810  0.82555  1.0000
  H   H11       1.0  0.86007  0.55809  0.32555  1.0000
  H   H12       1.0  0.86012  0.44189  0.17444  1.0000
  H   H13       1.0  0.02110  0.24144  0.67295  1.0000
  H   H14       1.0  0.02109  0.75856  0.82707  1.0000
  H   H15       1.0  0.97889  0.75854  0.32704  1.0000
  H   H16       1.0  0.97893  0.24144  0.17294  1.0000
  H   H17       1.0  0.23934  0.77533  0.65887  1.0000
  H   H18       1.0  0.23935  0.22468  0.84114  1.0000
  H   H19       1.0  0.76065  0.22468  0.34112  1.0000
  H   H20       1.0  0.76065  0.77534  0.15885  1.0000
  H   H21       1.0  0.23967  0.79948  0.54243  1.0000
  H   H22       1.0  0.23967  0.20052  0.95757  1.0000
  H   H23       1.0  0.76031  0.20052  0.45756  1.0000
  H   H24       1.0  0.76035  0.79948  0.04242  1.0000
  H   H25       1.0  0.22121  0.58259  0.58843  1.0000
  H   H26       1.0  0.22119  0.41741  0.91159  1.0000
  H   H27       1.0  0.77878  0.41741  0.41157  1.0000
  H   H28       1.0  0.77879  0.58260  0.08841  1.0000
  H   H29       1.0  0.07427  0.62137  0.49565  1.0000
  H   H30       1.0  0.07424  0.37862  0.00436  1.0000
  H   H31       1.0  0.92571  0.37863  0.50435  1.0000
  H   H32       1.0  0.92576  0.62138  0.99564  1.0000
  H   H33       1.0  0.91388  0.61835  0.68951  1.0000
  H   H34       1.0  0.91387  0.38165  0.81050  1.0000
  H   H35       1.0  0.08611  0.38167  0.31050  1.0000
  H   H36       1.0  0.08610  0.61836  0.18951  1.0000
  H   H37       1.0  0.79678  0.55423  0.58756  1.0000
  H   H38       1.0  0.79676  0.44576  0.91245  1.0000
  H   H39       1.0  0.20321  0.44577  0.41245  1.0000
  H   H40       1.0  0.20322  0.55424  0.08757  1.0000
  H   H41       1.0  0.69948  0.73482  0.54151  1.0000
  H   H42       1.0  0.69948  0.26516  0.95849  1.0000
  H   H43       1.0  0.30051  0.26518  0.45849  1.0000
  H   H44       1.0  0.30053  0.73483  0.04151  1.0000
  H   H45       1.0  0.67277  0.76605  0.66169  1.0000
  H   H46       1.0  0.67278  0.23394  0.83831  1.0000
  H   H47       1.0  0.32721  0.23396  0.33830  1.0000
  H   H48       1.0  0.32721  0.76605  0.16170  1.0000
  C   C1        1.0  0.55199  0.19874  0.63642  1.0000
  C   C2        1.0  0.55199  0.80126  0.86359  1.0000
  C   C3        1.0  0.44803  0.80127  0.36358  1.0000
  C   C4        1.0  0.44802  0.19874  0.13641  1.0000
  C   C5        1.0  0.61438  0.31187  0.63557  1.0000
  C   C6        1.0  0.61437  0.68813  0.86444  1.0000
  C   C7        1.0  0.38562  0.68814  0.36443  1.0000
  C   C8        1.0  0.38565  0.31187  0.13556  1.0000
  C   C9        1.0  0.46445  0.39776  0.64916  1.0000
  C   C10       1.0  0.46449  0.60224  0.85085  1.0000
  C   C11       1.0  0.53550  0.60224  0.35084  1.0000
  C   C12       1.0  0.53556  0.39776  0.14915  1.0000
  C   C13       1.0  0.25269  0.37320  0.66279  1.0000
  C   C14       1.0  0.25266  0.62681  0.83721  1.0000
  C   C15       1.0  0.74731  0.62681  0.33721  1.0000
  C   C16       1.0  0.74734  0.37320  0.16278  1.0000
  C   C17       1.0  0.18516  0.26181  0.66258  1.0000
  C   C18       1.0  0.18517  0.73820  0.83744  1.0000
  C   C19       1.0  0.81483  0.73819  0.33742  1.0000
  C   C20       1.0  0.81486  0.26180  0.16257  1.0000
  C   C21       1.0  0.33305  0.17406  0.64949  1.0000
  C   C22       1.0  0.33307  0.82593  0.85052  1.0000
  C   C23       1.0  0.66694  0.82593  0.35050  1.0000
  C   C24       1.0  0.66698  0.17406  0.14949  1.0000
  C   C25       1.0  0.15098  0.76257  0.59495  1.0000
  C   C26       1.0  0.15098  0.23743  0.90505  1.0000
  C   C27       1.0  0.84901  0.23744  0.40504  1.0000
  C   C28       1.0  0.84902  0.76257  0.09494  1.0000
  C   C29       1.0  0.09765  0.63875  0.56892  1.0000
  C   C30       1.0  0.09763  0.36126  0.93109  1.0000
  C   C31       1.0  0.90234  0.36126  0.43109  1.0000
  C   C32       1.0  0.90236  0.63875  0.06891  1.0000
  C   C33       1.0  0.88900  0.62662  0.61763  1.0000
  C   C34       1.0  0.88898  0.37337  0.88237  1.0000
  C   C35       1.0  0.11100  0.37338  0.38237  1.0000
  C   C36       1.0  0.11100  0.62663  0.11764  1.0000
  C   C37       1.0  0.78219  0.73817  0.60667  1.0000
  C   C38       1.0  0.78219  0.26183  0.89333  1.0000
  C   C39       1.0  0.21779  0.26184  0.39333  1.0000
  C   C40       1.0  0.21781  0.73818  0.10667  1.0000
  S   S1        1.0  0.51974  0.99718  0.64107  1.0000
  S   S2        1.0  0.51979  0.00280  0.85894  1.0000
  S   S3        1.0  0.48025  0.00282  0.35893  1.0000
  S   S4        1.0  0.48027  0.99719  0.14107  1.0000
  N   N1        1.0  0.67696  0.10453  0.62443  1.0000
  N   N2        1.0  0.67694  0.89545  0.87558  1.0000
  N   N3        1.0  0.32307  0.89547  0.37557  1.0000
  N   N4        1.0  0.32307  0.10453  0.12443  1.0000
  N   N5        1.0  0.28944  0.06112  0.64660  1.0000
  N   N6        1.0  0.28943  0.93886  0.85340  1.0000
  N   N7        1.0  0.71060  0.93886  0.35339  1.0000
  N   N8        1.0  0.71058  0.06113  0.14660  1.0000
  O   O1        1.0  0.95040  0.82146  0.60838  1.0000
  O   O2        1.0  0.95042  0.17854  0.89162  1.0000
  O   O3        1.0  0.04958  0.17855  0.39162  1.0000
  O   O4        1.0  0.04960  0.82146  0.10837  1.0000
