data_image0
_chemical_formula_structural       Zn2H24C16S4N8O12F12
_chemical_formula_sum              "Zn2 H24 C16 S4 N8 O12 F12"
_cell_length_a       9.1928
_cell_length_b       9.60799
_cell_length_c       11.028
_cell_angle_alpha    98.1101
_cell_angle_beta     112.124
_cell_angle_gamma    92.8504

_space_group_name_H-M_alt    "P 1"
_space_group_IT_number       1

loop_
  _space_group_symop_operation_xyz
  'x, y, z'

loop_
  _atom_site_type_symbol
  _atom_site_label
  _atom_site_symmetry_multiplicity
  _atom_site_fract_x
  _atom_site_fract_y
  _atom_site_fract_z
  _atom_site_occupancy
  Zn  Zn1       1.0  0.50000  0.50000  0.50000  1.0000
  Zn  Zn2       1.0  0.49999  1.00000  0.50000  1.0000
  H   H1        1.0  0.13178  0.88105  0.43614  1.0000
  H   H2        1.0  0.86822  0.11895  0.56386  1.0000
  H   H3        1.0  0.93497  0.84468  0.42941  1.0000
  H   H4        1.0  0.06504  0.15532  0.57059  1.0000
  H   H5        1.0  0.97130  0.82742  0.27918  1.0000
  H   H6        1.0  0.02870  0.17258  0.72083  1.0000
  H   H7        1.0  0.81583  0.13452  0.15441  1.0000
  H   H8        1.0  0.18418  0.86548  0.84559  1.0000
  H   H9        1.0  0.63607  0.06482  0.01648  1.0000
  H   H10       1.0  0.36393  0.93517  0.98352  1.0000
  H   H11       1.0  0.71093  0.97083  0.15262  1.0000
  H   H12       1.0  0.28907  0.02917  0.84738  1.0000
  H   H13       1.0  0.85452  0.56335  0.21770  1.0000
  H   H14       1.0  0.14548  0.43666  0.78230  1.0000
  H   H15       1.0  0.81307  0.58675  0.36517  1.0000
  H   H16       1.0  0.18693  0.41326  0.63483  1.0000
  H   H17       1.0  0.93708  0.45525  0.34126  1.0000
  H   H18       1.0  0.06292  0.54475  0.65874  1.0000
  H   H19       1.0  0.48264  0.32908  0.20214  1.0000
  H   H20       1.0  0.51737  0.67092  0.79786  1.0000
  H   H21       1.0  0.47837  0.26398  0.03958  1.0000
  H   H22       1.0  0.52164  0.73602  0.96043  1.0000
  H   H23       1.0  0.65254  0.36307  0.16490  1.0000
  H   H24       1.0  0.34746  0.63693  0.83511  1.0000
  C   C1        1.0  0.18151  0.62469  0.44337  1.0000
  C   C2        1.0  0.81849  0.37531  0.55663  1.0000
  C   C3        1.0  0.60087  0.11852  0.29641  1.0000
  C   C4        1.0  0.39913  0.88149  0.70359  1.0000
  C   C5        1.0  0.01912  0.81454  0.38399  1.0000
  C   C6        1.0  0.98089  0.18546  0.61602  1.0000
  C   C7        1.0  0.69903  0.07575  0.12431  1.0000
  C   C8        1.0  0.30097  0.92425  0.87569  1.0000
  C   C9        1.0  0.90271  0.56065  0.32493  1.0000
  C   C10       1.0  0.09729  0.43935  0.67507  1.0000
  C   C11       1.0  0.55124  0.28587  0.14648  1.0000
  C   C12       1.0  0.44876  0.71413  0.85352  1.0000
  C   C13       1.0  0.27194  0.61822  0.11929  1.0000
  C   C14       1.0  0.72806  0.38178  0.88071  1.0000
  C   C15       1.0  0.15365  0.12004  0.17253  1.0000
  C   C16       1.0  0.84635  0.87995  0.82747  1.0000
  S   S1        1.0  0.45186  0.71315  0.26083  1.0000
  S   S2        1.0  0.54814  0.28684  0.73917  1.0000
  S   S3        1.0  0.22373  0.21430  0.34778  1.0000
  S   S4        1.0  0.77627  0.78570  0.65221  1.0000
  N   N1        1.0  0.30546  0.58519  0.49490  1.0000
  N   N2        1.0  0.69454  0.41481  0.50510  1.0000
  N   N3        1.0  0.59775  0.08721  0.39450  1.0000
  N   N4        1.0  0.40225  0.91279  0.60550  1.0000
  N   N5        1.0  0.04220  0.66561  0.39161  1.0000
  N   N6        1.0  0.95780  0.33439  0.60840  1.0000
  N   N7        1.0  0.60700  0.15342  0.18905  1.0000
  N   N8        1.0  0.39301  0.84658  0.81096  1.0000
  O   O1        1.0  0.51972  0.59985  0.33403  1.0000
  O   O2        1.0  0.48027  0.40015  0.66597  1.0000
  O   O3        1.0  0.34905  0.31834  0.35258  1.0000
  O   O4        1.0  0.65095  0.68166  0.64742  1.0000
  O   O5        1.0  0.38406  0.81540  0.33048  1.0000
  O   O6        1.0  0.61594  0.18459  0.66952  1.0000
  O   O7        1.0  0.28121  0.10330  0.42732  1.0000
  O   O8        1.0  0.71878  0.89670  0.57268  1.0000
  O   O9        1.0  0.54712  0.77148  0.19707  1.0000
  O   O10       1.0  0.45288  0.22852  0.80293  1.0000
  O   O11       1.0  0.08454  0.26907  0.35894  1.0000
  O   O12       1.0  0.91546  0.73093  0.64104  1.0000
  F   F1        1.0  0.16631  0.56052  0.16195  1.0000
  F   F2        1.0  0.83369  0.43948  0.83805  1.0000
  F   F3        1.0  0.27125  0.05955  0.14686  1.0000
  F   F4        1.0  0.72875  0.94044  0.85314  1.0000
  F   F5        1.0  0.19938  0.70837  0.03744  1.0000
  F   F6        1.0  0.80061  0.29163  0.96256  1.0000
  F   F7        1.0  0.03591  0.01594  0.14859  1.0000
  F   F8        1.0  0.96409  0.98406  0.85141  1.0000
  F   F9        1.0  0.31303  0.51224  0.04687  1.0000
  F   F10       1.0  0.68696  0.48776  0.95313  1.0000
  F   F11       1.0  0.09833  0.21169  0.08766  1.0000
  F   F12       1.0  0.90168  0.78831  0.91234  1.0000
