data_image0
_chemical_formula_structural       Na2P2H40C28N4O4
_chemical_formula_sum              "Na2 P2 H40 C28 N4 O4"
_cell_length_a       8.30048
_cell_length_b       8.66909
_cell_length_c       12.42
_cell_angle_alpha    95.1816
_cell_angle_beta     90.0143
_cell_angle_gamma    118.582

_space_group_name_H-M_alt    "P 1"
_space_group_IT_number       1

loop_
  _space_group_symop_operation_xyz
  'x, y, z'

loop_
  _atom_site_type_symbol
  _atom_site_label
  _atom_site_symmetry_multiplicity
  _atom_site_fract_x
  _atom_site_fract_y
  _atom_site_fract_z
  _atom_site_occupancy
  Na  Na1       1.0  0.18570  0.73512  0.82423  1.0000
  Na  Na2       1.0  0.54963  0.73538  0.32422  1.0000
  P   P1        1.0  0.31208  0.75422  0.55017  1.0000
  P   P2        1.0  0.44158  0.75371  0.05029  1.0000
  H   H1        1.0  0.30693  0.07585  0.51545  1.0000
  H   H2        1.0  0.76876  0.07532  0.01580  1.0000
  H   H3        1.0  0.38112  0.31854  0.39746  1.0000
  H   H4        1.0  0.93679  0.31806  0.89777  1.0000
  H   H5        1.0  0.17792  0.35689  0.77607  1.0000
  H   H6        1.0  0.17898  0.35652  0.27627  1.0000
  H   H7        1.0  0.20640  0.09518  0.70094  1.0000
  H   H8        1.0  0.88902  0.09469  0.20125  1.0000
  H   H9        1.0  0.50934  0.17799  0.75763  1.0000
  H   H10       1.0  0.66927  0.17854  0.25760  1.0000
  H   H11       1.0  0.61579  0.11899  0.86025  1.0000
  H   H12       1.0  0.50344  0.11956  0.35995  1.0000
  H   H13       1.0  0.93620  0.91446  0.89333  1.0000
  H   H14       1.0  0.97863  0.91471  0.39330  1.0000
  H   H15       1.0  0.72268  0.72727  0.91587  1.0000
  H   H16       1.0  0.00484  0.72727  0.41560  1.0000
  H   H17       1.0  0.56152  0.22595  0.06696  1.0000
  H   H18       1.0  0.66422  0.22614  0.56691  1.0000
  H   H19       1.0  0.44928  0.35809  0.07367  1.0000
  H   H20       1.0  0.90853  0.35810  0.57384  1.0000
  H   H21       1.0  0.24814  0.99586  0.03158  1.0000
  H   H22       1.0  0.74752  0.99590  0.53163  1.0000
  H   H23       1.0  0.18754  0.13720  0.96494  1.0000
  H   H24       1.0  0.94952  0.13726  0.46511  1.0000
  H   H25       1.0  0.71262  0.42565  0.92609  1.0000
  H   H26       1.0  0.71316  0.42605  0.42607  1.0000
  H   H27       1.0  0.49927  0.40685  0.88160  1.0000
  H   H28       1.0  0.90773  0.40715  0.38182  1.0000
  H   H29       1.0  0.66185  0.49521  0.70128  1.0000
  H   H30       1.0  0.83371  0.49554  0.20124  1.0000
  H   H31       1.0  0.88475  0.58239  0.64569  1.0000
  H   H32       1.0  0.69797  0.58266  0.14549  1.0000
  H   H33       1.0  0.57141  0.77148  0.77241  1.0000
  H   H34       1.0  0.20046  0.77191  0.27228  1.0000
  H   H35       1.0  0.76799  0.98052  0.76591  1.0000
  H   H36       1.0  0.21262  0.98087  0.26575  1.0000
  H   H37       1.0  0.89612  0.86412  0.62793  1.0000
  H   H38       1.0  0.96823  0.86437  0.12769  1.0000
  H   H39       1.0  0.65831  0.71769  0.59473  1.0000
  H   H40       1.0  0.05960  0.71783  0.09461  1.0000
  C   C1        1.0  0.29476  0.19198  0.54504  1.0000
  C   C2        1.0  0.89703  0.19147  0.04534  1.0000
  C   C3        1.0  0.33618  0.32638  0.47940  1.0000
  C   C4        1.0  0.98978  0.32585  0.97968  1.0000
  C   C5        1.0  0.31927  0.47509  0.51978  1.0000
  C   C6        1.0  0.15535  0.47462  0.02000  1.0000
  C   C7        1.0  0.21960  0.34762  0.69341  1.0000
  C   C8        1.0  0.12791  0.34720  0.19363  1.0000
  C   C9        1.0  0.25952  0.48545  0.62806  1.0000
  C   C10       1.0  0.22561  0.48505  0.12827  1.0000
  C   C11       1.0  0.23661  0.20241  0.65111  1.0000
  C   C12       1.0  0.96578  0.20194  0.15140  1.0000
  C   C13       1.0  0.51744  0.16705  0.84471  1.0000
  C   C14       1.0  0.64985  0.16745  0.34464  1.0000
  C   C15       1.0  0.81765  0.79657  0.85346  1.0000
  C   C16       1.0  0.97923  0.79683  0.35330  1.0000
  C   C17       1.0  0.47498  0.26433  0.02129  1.0000
  C   C18       1.0  0.78918  0.26445  0.52136  1.0000
  C   C19       1.0  0.29697  0.10269  0.97869  1.0000
  C   C20       1.0  0.80559  0.10279  0.47878  1.0000
  C   C21       1.0  0.56422  0.33640  0.91624  1.0000
  C   C22       1.0  0.77227  0.33671  0.41630  1.0000
  C   C23       1.0  0.79457  0.61553  0.69561  1.0000
  C   C24       1.0  0.82128  0.61587  0.19545  1.0000
  C   C25       1.0  0.72061  0.83839  0.76391  1.0000
  C   C26       1.0  0.11804  0.83873  0.26374  1.0000
  C   C27       1.0  0.76749  0.76419  0.65848  1.0000
  C   C28       1.0  0.99694  0.76443  0.15830  1.0000
  N   N1        1.0  0.24816  0.63689  0.65545  1.0000
  N   N2        1.0  0.38832  0.63651  0.15563  1.0000
  N   N3        1.0  0.35519  0.61942  0.46665  1.0000
  N   N4        1.0  0.26359  0.61893  0.96684  1.0000
  O   O1        1.0  0.33680  0.03782  0.87492  1.0000
  O   O2        1.0  0.70099  0.03803  0.37496  1.0000
  O   O3        1.0  0.88642  0.68394  0.80170  1.0000
  O   O4        1.0  0.79787  0.68442  0.30151  1.0000
