data_image0
_chemical_formula_structural       Dy2H42C46O16
_chemical_formula_sum              "Dy2 H42 C46 O16"
_cell_length_a       9.57628
_cell_length_b       9.88749
_cell_length_c       12.4871
_cell_angle_alpha    95.5465
_cell_angle_beta     104.689
_cell_angle_gamma    97.3202

_space_group_name_H-M_alt    "P 1"
_space_group_IT_number       1

loop_
  _space_group_symop_operation_xyz
  'x, y, z'

loop_
  _atom_site_type_symbol
  _atom_site_label
  _atom_site_symmetry_multiplicity
  _atom_site_fract_x
  _atom_site_fract_y
  _atom_site_fract_z
  _atom_site_occupancy
  Dy  Dy1       1.0  0.75239  0.47967  0.01186  1.0000
  Dy  Dy2       1.0  0.24761  0.52033  0.98814  1.0000
  H   H1        1.0  0.48644  0.36218  0.52735  1.0000
  H   H2        1.0  0.51356  0.63782  0.47264  1.0000
  H   H3        1.0  0.45061  0.88001  0.25318  1.0000
  H   H4        1.0  0.54939  0.11999  0.74682  1.0000
  H   H5        1.0  0.58642  0.07156  0.40318  1.0000
  H   H6        1.0  0.41359  0.92843  0.59682  1.0000
  H   H7        1.0  0.63699  0.39760  0.72554  1.0000
  H   H8        1.0  0.36301  0.60241  0.27446  1.0000
  H   H9        1.0  0.60319  0.14491  0.05438  1.0000
  H   H10       1.0  0.39681  0.85508  0.94562  1.0000
  H   H11       1.0  0.64416  0.16079  0.20406  1.0000
  H   H12       1.0  0.35584  0.83921  0.79594  1.0000
  H   H13       1.0  0.89965  0.26394  0.22069  1.0000
  H   H14       1.0  0.10034  0.73607  0.77931  1.0000
  H   H15       1.0  0.85447  0.10036  0.13473  1.0000
  H   H16       1.0  0.14554  0.89965  0.86528  1.0000
  H   H17       1.0  0.60884  0.35122  0.37254  1.0000
  H   H18       1.0  0.39116  0.64878  0.62745  1.0000
  H   H19       1.0  0.64641  0.68789  0.66945  1.0000
  H   H20       1.0  0.35359  0.31212  0.33056  1.0000
  H   H21       1.0  0.85621  0.76374  0.22055  1.0000
  H   H22       1.0  0.14378  0.23626  0.77944  1.0000
  H   H23       1.0  0.02806  0.40571  0.61629  1.0000
  H   H24       1.0  0.97194  0.59430  0.38371  1.0000
  H   H25       1.0  0.87339  0.97871  0.95881  1.0000
  H   H26       1.0  0.12661  0.02129  0.04119  1.0000
  H   H27       1.0  0.65991  0.87343  0.54729  1.0000
  H   H28       1.0  0.34009  0.12657  0.45272  1.0000
  H   H29       1.0  0.85887  0.11024  0.45974  1.0000
  H   H30       1.0  0.14114  0.88975  0.54026  1.0000
  H   H31       1.0  0.77190  0.11257  0.63347  1.0000
  H   H32       1.0  0.22810  0.88744  0.36654  1.0000
  H   H33       1.0  0.87850  0.37004  0.41674  1.0000
  H   H34       1.0  0.12151  0.62996  0.58326  1.0000
  H   H35       1.0  0.99379  0.95757  0.36853  1.0000
  H   H36       1.0  0.00621  0.04242  0.63146  1.0000
  H   H37       1.0  0.87865  0.16582  0.83965  1.0000
  H   H38       1.0  0.12135  0.83418  0.16036  1.0000
  H   H39       1.0  0.96362  0.27323  0.04537  1.0000
  H   H40       1.0  0.03638  0.72677  0.95464  1.0000
  H   H41       1.0  0.54377  0.35382  0.13610  1.0000
  H   H42       1.0  0.45623  0.64618  0.86390  1.0000
  C   C1        1.0  0.56238  0.69667  0.13892  1.0000
  C   C2        1.0  0.43762  0.30333  0.86108  1.0000
  C   C3        1.0  0.93228  0.43344  0.80126  1.0000
  C   C4        1.0  0.06771  0.56655  0.19874  1.0000
  C   C5        1.0  0.64560  0.81130  0.22819  1.0000
  C   C6        1.0  0.35439  0.18870  0.77181  1.0000
  C   C7        1.0  0.84130  0.40644  0.68231  1.0000
  C   C8        1.0  0.15870  0.59356  0.31769  1.0000
  C   C9        1.0  0.75802  0.82304  0.82089  1.0000
  C   C10       1.0  0.24198  0.17697  0.17911  1.0000
  C   C11       1.0  0.60511  0.37177  0.54612  1.0000
  C   C12       1.0  0.39490  0.62823  0.45388  1.0000
  C   C13       1.0  0.56952  0.89760  0.27993  1.0000
  C   C14       1.0  0.43048  0.10240  0.72006  1.0000
  C   C15       1.0  0.64598  0.00430  0.36355  1.0000
  C   C16       1.0  0.35402  0.99570  0.63645  1.0000
  C   C17       1.0  0.68848  0.39230  0.65721  1.0000
  C   C18       1.0  0.31151  0.60770  0.34279  1.0000
  C   C19       1.0  0.67107  0.20586  0.13327  1.0000
  C   C20       1.0  0.32893  0.79414  0.86673  1.0000
  C   C21       1.0  0.83115  0.20662  0.14049  1.0000
  C   C22       1.0  0.16885  0.79339  0.85951  1.0000
  C   C23       1.0  0.67338  0.36525  0.45954  1.0000
  C   C24       1.0  0.32663  0.63475  0.54046  1.0000
  C   C25       1.0  0.69676  0.79315  0.70514  1.0000
  C   C26       1.0  0.30324  0.20686  0.29486  1.0000
  C   C27       1.0  0.79881  0.83251  0.26078  1.0000
  C   C28       1.0  0.20119  0.16748  0.73922  1.0000
  C   C29       1.0  0.90938  0.39684  0.59528  1.0000
  C   C30       1.0  0.09062  0.60316  0.40472  1.0000
  C   C31       1.0  0.82634  0.95692  0.86867  1.0000
  C   C32       1.0  0.17366  0.04309  0.13134  1.0000
  C   C33       1.0  0.70453  0.89662  0.63764  1.0000
  C   C34       1.0  0.29547  0.10339  0.36237  1.0000
  C   C35       1.0  0.79884  0.02571  0.39543  1.0000
  C   C36       1.0  0.20116  0.97428  0.60457  1.0000
  C   C37       1.0  0.75190  0.71152  0.89208  1.0000
  C   C38       1.0  0.24810  0.28848  0.10792  1.0000
  C   C39       1.0  0.76933  0.03080  0.68593  1.0000
  C   C40       1.0  0.23067  0.96921  0.31408  1.0000
  C   C41       1.0  0.82556  0.37663  0.48435  1.0000
  C   C42       1.0  0.17444  0.62336  0.51565  1.0000
  C   C43       1.0  0.87482  0.93979  0.34415  1.0000
  C   C44       1.0  0.12518  0.06020  0.65585  1.0000
  C   C45       1.0  0.82996  0.06118  0.80146  1.0000
  C   C46       1.0  0.17004  0.93883  0.19855  1.0000
  O   O1        1.0  0.86886  0.43611  0.87924  1.0000
  O   O2        1.0  0.13114  0.56388  0.12076  1.0000
  O   O3        1.0  0.86033  0.27276  0.04904  1.0000
  O   O4        1.0  0.13967  0.72724  0.95096  1.0000
  O   O5        1.0  0.07056  0.45305  0.81898  1.0000
  O   O6        1.0  0.92944  0.54696  0.18103  1.0000
  O   O7        1.0  0.63276  0.61666  0.09546  1.0000
  O   O8        1.0  0.36723  0.38334  0.90453  1.0000
  O   O9        1.0  0.86308  0.70558  0.97331  1.0000
  O   O10       1.0  0.13692  0.29442  0.02669  1.0000
  O   O11       1.0  0.64669  0.34683  0.13618  1.0000
  O   O12       1.0  0.35331  0.65317  0.86381  1.0000
  O   O13       1.0  0.42362  0.68435  0.11059  1.0000
  O   O14       1.0  0.57637  0.31565  0.88940  1.0000
  O   O15       1.0  0.63728  0.62045  0.87034  1.0000
  O   O16       1.0  0.36272  0.37956  0.12966  1.0000
