data_image0
_chemical_formula_structural       Cu2H24C24S2N4O12
_chemical_formula_sum              "Cu2 H24 C24 S2 N4 O12"
_cell_length_a       7.16474
_cell_length_b       10.0727
_cell_length_c       10.0726
_cell_angle_alpha    85.8562
_cell_angle_beta     74.7094
_cell_angle_gamma    74.7094

_space_group_name_H-M_alt    "P 1"
_space_group_IT_number       1

loop_
  _space_group_symop_operation_xyz
  'x, y, z'

loop_
  _atom_site_type_symbol
  _atom_site_label
  _atom_site_symmetry_multiplicity
  _atom_site_fract_x
  _atom_site_fract_y
  _atom_site_fract_z
  _atom_site_occupancy
  Cu  Cu1       1.0  0.25000  0.19720  0.80279  1.0000
  Cu  Cu2       1.0  0.75000  0.80279  0.19720  1.0000
  H   H1        1.0  0.11332  0.99607  0.82147  1.0000
  H   H2        1.0  0.38666  0.17853  0.00393  1.0000
  H   H3        1.0  0.88666  0.00393  0.17853  1.0000
  H   H4        1.0  0.61332  0.82147  0.99607  1.0000
  H   H5        1.0  0.31208  0.94328  0.87714  1.0000
  H   H6        1.0  0.18791  0.12286  0.05672  1.0000
  H   H7        1.0  0.68791  0.05672  0.12286  1.0000
  H   H8        1.0  0.81208  0.87714  0.94328  1.0000
  H   H9        1.0  0.28096  0.01532  0.55567  1.0000
  H   H10       1.0  0.21904  0.44433  0.98469  1.0000
  H   H11       1.0  0.71905  0.98468  0.44432  1.0000
  H   H12       1.0  0.78095  0.55567  0.01531  1.0000
  H   H13       1.0  0.29147  0.06508  0.30745  1.0000
  H   H14       1.0  0.20853  0.69254  0.93493  1.0000
  H   H15       1.0  0.70853  0.93492  0.69254  1.0000
  H   H16       1.0  0.79147  0.30746  0.06508  1.0000
  H   H17       1.0  0.28188  0.30548  0.21765  1.0000
  H   H18       1.0  0.21812  0.78235  0.69453  1.0000
  H   H19       1.0  0.71812  0.69452  0.78235  1.0000
  H   H20       1.0  0.78189  0.21765  0.30548  1.0000
  H   H21       1.0  0.25810  0.55908  0.27342  1.0000
  H   H22       1.0  0.24191  0.72658  0.44092  1.0000
  H   H23       1.0  0.74191  0.44093  0.72658  1.0000
  H   H24       1.0  0.75810  0.27342  0.55908  1.0000
  C   C1        1.0  0.27546  0.11861  0.51357  1.0000
  C   C2        1.0  0.22453  0.48642  0.88140  1.0000
  C   C3        1.0  0.72454  0.88139  0.48642  1.0000
  C   C4        1.0  0.77547  0.51358  0.11860  1.0000
  C   C5        1.0  0.28170  0.14829  0.37416  1.0000
  C   C6        1.0  0.21829  0.62583  0.85171  1.0000
  C   C7        1.0  0.71831  0.85171  0.62583  1.0000
  C   C8        1.0  0.78170  0.37417  0.14829  1.0000
  C   C9        1.0  0.27640  0.28103  0.32566  1.0000
  C   C10       1.0  0.22360  0.67433  0.71898  1.0000
  C   C11       1.0  0.72361  0.71898  0.67434  1.0000
  C   C12       1.0  0.77641  0.32567  0.28103  1.0000
  C   C13       1.0  0.26332  0.38507  0.41702  1.0000
  C   C14       1.0  0.23669  0.58297  0.61493  1.0000
  C   C15       1.0  0.73669  0.61492  0.58298  1.0000
  C   C16       1.0  0.76332  0.41702  0.38507  1.0000
  C   C17       1.0  0.25721  0.34548  0.55549  1.0000
  C   C18       1.0  0.24279  0.44451  0.65452  1.0000
  C   C19       1.0  0.74280  0.65452  0.44451  1.0000
  C   C20       1.0  0.75722  0.55549  0.34548  1.0000
  C   C21       1.0  0.25595  0.52597  0.37927  1.0000
  C   C22       1.0  0.24406  0.62073  0.47403  1.0000
  C   C23       1.0  0.74406  0.47403  0.62073  1.0000
  C   C24       1.0  0.75595  0.37928  0.52598  1.0000
  S   S1        1.0  0.75000  0.14160  0.85840  1.0000
  S   S2        1.0  0.24999  0.85840  0.14160  1.0000
  N   N1        1.0  0.26439  0.21464  0.60140  1.0000
  N   N2        1.0  0.23561  0.39859  0.78536  1.0000
  N   N3        1.0  0.73561  0.78536  0.39859  1.0000
  N   N4        1.0  0.76439  0.60140  0.21464  1.0000
  O   O1        1.0  0.25949  0.99837  0.80100  1.0000
  O   O2        1.0  0.24050  0.19900  0.00163  1.0000
  O   O3        1.0  0.74049  0.00163  0.19900  1.0000
  O   O4        1.0  0.75949  0.80100  0.99837  1.0000
  O   O5        1.0  0.62973  0.15888  0.75714  1.0000
  O   O6        1.0  0.87027  0.24286  0.84113  1.0000
  O   O7        1.0  0.37027  0.84112  0.24286  1.0000
  O   O8        1.0  0.12972  0.75714  0.15888  1.0000
  O   O9        1.0  0.88855  0.99742  0.84663  1.0000
  O   O10       1.0  0.61144  0.15337  0.00258  1.0000
  O   O11       1.0  0.11144  0.00258  0.15337  1.0000
  O   O12       1.0  0.38855  0.84663  0.99743  1.0000
