data_image0
_chemical_formula_structural       Cu2H24C24S2N4O12
_chemical_formula_sum              "Cu2 H24 C24 S2 N4 O12"
_cell_length_a       7.17431
_cell_length_b       10.0697
_cell_length_c       10.0697
_cell_angle_alpha    85.8579
_cell_angle_beta     74.2825
_cell_angle_gamma    74.2829

_space_group_name_H-M_alt    "P 1"
_space_group_IT_number       1

loop_
  _space_group_symop_operation_xyz
  'x, y, z'

loop_
  _atom_site_type_symbol
  _atom_site_label
  _atom_site_symmetry_multiplicity
  _atom_site_fract_x
  _atom_site_fract_y
  _atom_site_fract_z
  _atom_site_occupancy
  Cu  Cu1       1.0  0.25000  0.19821  0.80179  1.0000
  Cu  Cu2       1.0  0.75000  0.80179  0.19821  1.0000
  H   H1        1.0  0.27858  0.30703  0.21675  1.0000
  H   H2        1.0  0.22142  0.78325  0.69297  1.0000
  H   H3        1.0  0.72142  0.69296  0.78324  1.0000
  H   H4        1.0  0.77859  0.21676  0.30703  1.0000
  H   H5        1.0  0.28022  0.01636  0.55440  1.0000
  H   H6        1.0  0.21978  0.44560  0.98364  1.0000
  H   H7        1.0  0.71977  0.98364  0.44561  1.0000
  H   H8        1.0  0.78023  0.55439  0.01636  1.0000
  H   H9        1.0  0.28880  0.06632  0.30631  1.0000
  H   H10       1.0  0.21120  0.69369  0.93369  1.0000
  H   H11       1.0  0.71119  0.93368  0.69370  1.0000
  H   H12       1.0  0.78881  0.30631  0.06631  1.0000
  H   H13       1.0  0.38544  0.17928  0.00351  1.0000
  H   H14       1.0  0.11456  0.99650  0.82072  1.0000
  H   H15       1.0  0.61457  0.82072  0.99649  1.0000
  H   H16       1.0  0.88543  0.00351  0.17929  1.0000
  H   H17       1.0  0.25674  0.56064  0.27231  1.0000
  H   H18       1.0  0.24326  0.72769  0.43936  1.0000
  H   H19       1.0  0.74326  0.43936  0.72769  1.0000
  H   H20       1.0  0.75675  0.27231  0.56063  1.0000
  H   H21       1.0  0.18668  0.12400  0.05610  1.0000
  H   H22       1.0  0.31332  0.94389  0.87600  1.0000
  H   H23       1.0  0.81333  0.87600  0.94389  1.0000
  H   H24       1.0  0.68667  0.05610  0.12400  1.0000
  C   C1        1.0  0.25691  0.34671  0.55424  1.0000
  C   C2        1.0  0.24309  0.44576  0.65329  1.0000
  C   C3        1.0  0.74309  0.65329  0.44576  1.0000
  C   C4        1.0  0.75691  0.55424  0.34670  1.0000
  C   C5        1.0  0.26217  0.38640  0.41580  1.0000
  C   C6        1.0  0.23783  0.58421  0.61361  1.0000
  C   C7        1.0  0.73783  0.61361  0.58420  1.0000
  C   C8        1.0  0.76217  0.41580  0.38639  1.0000
  C   C9        1.0  0.27406  0.28241  0.32463  1.0000
  C   C10       1.0  0.22594  0.67537  0.71760  1.0000
  C   C11       1.0  0.72593  0.71759  0.67537  1.0000
  C   C12       1.0  0.77407  0.32463  0.28240  1.0000
  C   C13       1.0  0.27441  0.11975  0.51236  1.0000
  C   C14       1.0  0.22560  0.48764  0.88025  1.0000
  C   C15       1.0  0.72558  0.88026  0.48764  1.0000
  C   C16       1.0  0.77442  0.51236  0.11974  1.0000
  C   C17       1.0  0.27951  0.14954  0.37302  1.0000
  C   C18       1.0  0.22049  0.62698  0.85046  1.0000
  C   C19       1.0  0.72048  0.85046  0.62698  1.0000
  C   C20       1.0  0.77952  0.37302  0.14954  1.0000
  C   C21       1.0  0.25520  0.52729  0.37805  1.0000
  C   C22       1.0  0.24479  0.62196  0.47271  1.0000
  C   C23       1.0  0.74479  0.47272  0.62195  1.0000
  C   C24       1.0  0.75521  0.37804  0.52728  1.0000
  S   S1        1.0  0.75000  0.14084  0.85916  1.0000
  S   S2        1.0  0.25000  0.85916  0.14084  1.0000
  N   N1        1.0  0.26417  0.21575  0.60015  1.0000
  N   N2        1.0  0.23583  0.39985  0.78424  1.0000
  N   N3        1.0  0.73582  0.78425  0.39985  1.0000
  N   N4        1.0  0.76417  0.60015  0.21575  1.0000
  O   O1        1.0  0.86929  0.24219  0.84200  1.0000
  O   O2        1.0  0.63072  0.15800  0.75781  1.0000
  O   O3        1.0  0.13071  0.75781  0.15800  1.0000
  O   O4        1.0  0.36928  0.84201  0.24219  1.0000
  O   O5        1.0  0.89022  0.99635  0.84689  1.0000
  O   O6        1.0  0.60978  0.15311  0.00365  1.0000
  O   O7        1.0  0.10977  0.00365  0.15311  1.0000
  O   O8        1.0  0.39023  0.84689  0.99635  1.0000
  O   O9        1.0  0.23941  0.19995  0.00090  1.0000
  O   O10       1.0  0.26059  0.99910  0.80005  1.0000
  O   O11       1.0  0.76059  0.80005  0.99909  1.0000
  O   O12       1.0  0.73941  0.00090  0.19995  1.0000
