data_image0
_chemical_formula_structural       Cu2H8C10S2N6
_chemical_formula_sum              "Cu2 H8 C10 S2 N6"
_cell_length_a       5.65225
_cell_length_b       5.81074
_cell_length_c       10.3576
_cell_angle_alpha    89.9979
_cell_angle_beta     90.0007
_cell_angle_gamma    99.1091

_space_group_name_H-M_alt    "P 1"
_space_group_IT_number       1

loop_
  _space_group_symop_operation_xyz
  'x, y, z'

loop_
  _atom_site_type_symbol
  _atom_site_label
  _atom_site_symmetry_multiplicity
  _atom_site_fract_x
  _atom_site_fract_y
  _atom_site_fract_z
  _atom_site_occupancy
  Cu  Cu1       1.0  0.62567  0.07090  0.39557  1.0000
  Cu  Cu2       1.0  0.37435  0.92911  0.89558  1.0000
  H   H1        1.0  0.03078  0.36006  0.26751  1.0000
  H   H2        1.0  0.96922  0.63994  0.76753  1.0000
  H   H3        1.0  0.33501  0.30551  0.09901  1.0000
  H   H4        1.0  0.66499  0.69449  0.59902  1.0000
  H   H5        1.0  0.96793  0.64034  0.02298  1.0000
  H   H6        1.0  0.03207  0.35965  0.52297  1.0000
  H   H7        1.0  0.66354  0.69515  0.19140  1.0000
  H   H8        1.0  0.33643  0.30487  0.69141  1.0000
  C   C1        1.0  0.43235  0.53854  0.39543  1.0000
  C   C2        1.0  0.56766  0.46146  0.89542  1.0000
  C   C3        1.0  0.01657  0.19797  0.21301  1.0000
  C   C4        1.0  0.98340  0.80201  0.71302  1.0000
  C   C5        1.0  0.18479  0.16837  0.11946  1.0000
  C   C6        1.0  0.81520  0.83164  0.61946  1.0000
  C   C7        1.0  0.98214  0.80247  0.07745  1.0000
  C   C8        1.0  0.01786  0.19756  0.57745  1.0000
  C   C9        1.0  0.81386  0.83215  0.17094  1.0000
  C   C10       1.0  0.18612  0.16785  0.67095  1.0000
  S   S1        1.0  0.30105  0.76969  0.39526  1.0000
  S   S2        1.0  0.69897  0.23032  0.89526  1.0000
  N   N1        1.0  0.52028  0.36637  0.39555  1.0000
  N   N2        1.0  0.47975  0.63362  0.89555  1.0000
  N   N3        1.0  0.82979  0.03003  0.24049  1.0000
  N   N4        1.0  0.17021  0.97000  0.74050  1.0000
  N   N5        1.0  0.16900  0.97043  0.05001  1.0000
  N   N6        1.0  0.83098  0.02953  0.55001  1.0000
