data_image0
_chemical_formula_structural       Np2H16C8Cl4O6
_chemical_formula_sum              "Np2 H16 C8 Cl4 O6"
_cell_length_a       7.3185
_cell_length_b       7.31389
_cell_length_c       8.66974
_cell_angle_alpha    75.1626
_cell_angle_beta     75.1847
_cell_angle_gamma    86.4899

_space_group_name_H-M_alt    "P 1"
_space_group_IT_number       1

loop_
  _space_group_symop_operation_xyz
  'x, y, z'

loop_
  _atom_site_type_symbol
  _atom_site_label
  _atom_site_symmetry_multiplicity
  _atom_site_fract_x
  _atom_site_fract_y
  _atom_site_fract_z
  _atom_site_occupancy
  Np  Np1       1.0  0.44117  0.55884  0.75015  1.0000
  Np  Np2       1.0  0.55915  0.44074  0.25005  1.0000
  H   H1        1.0  0.35904  0.03370  0.60137  1.0000
  H   H2        1.0  0.96652  0.64097  0.89860  1.0000
  H   H3        1.0  0.64082  0.96644  0.39868  1.0000
  H   H4        1.0  0.03324  0.35924  0.10126  1.0000
  H   H5        1.0  0.28577  0.02481  0.81678  1.0000
  H   H6        1.0  0.97558  0.71442  0.68310  1.0000
  H   H7        1.0  0.71449  0.97512  0.18322  1.0000
  H   H8        1.0  0.02458  0.28542  0.31680  1.0000
  H   H9        1.0  0.04650  0.11295  0.56359  1.0000
  H   H10       1.0  0.88755  0.95393  0.93615  1.0000
  H   H11       1.0  0.95361  0.88874  0.43660  1.0000
  H   H12       1.0  0.11086  0.04605  0.06354  1.0000
  H   H13       1.0  0.04009  0.22827  0.72194  1.0000
  H   H14       1.0  0.77227  0.96032  0.77775  1.0000
  H   H15       1.0  0.95980  0.77175  0.27935  1.0000
  H   H16       1.0  0.22772  0.03991  0.22088  1.0000
  C   C1        1.0  0.24224  0.99881  0.71194  1.0000
  C   C2        1.0  0.00146  0.75791  0.78800  1.0000
  C   C3        1.0  0.75765  0.00127  0.28815  1.0000
  C   C4        1.0  0.99846  0.24224  0.21183  1.0000
  C   C5        1.0  0.05582  0.09092  0.69141  1.0000
  C   C6        1.0  0.90951  0.94454  0.80835  1.0000
  C   C7        1.0  0.94408  0.90956  0.30895  1.0000
  C   C8        1.0  0.09003  0.05557  0.19117  1.0000
  Cl  Cl1       1.0  0.66026  0.34862  0.94210  1.0000
  Cl  Cl2       1.0  0.65136  0.33974  0.55798  1.0000
  Cl  Cl3       1.0  0.34944  0.66012  0.05392  1.0000
  Cl  Cl4       1.0  0.33988  0.65040  0.44616  1.0000
  O   O1        1.0  0.61602  0.74058  0.66861  1.0000
  O   O2        1.0  0.25967  0.38368  0.83165  1.0000
  O   O3        1.0  0.38457  0.25865  0.32427  1.0000
  O   O4        1.0  0.74092  0.61563  0.17565  1.0000
  O   O5        1.0  0.20633  0.79378  0.75006  1.0000
  O   O6        1.0  0.79354  0.20636  0.24999  1.0000
