data_image0
_chemical_formula_structural       Cu2Te2Mo6H16C20N4O24
_chemical_formula_sum              "Cu2 Te2 Mo6 H16 C20 N4 O24"
_cell_length_a       7.73435
_cell_length_b       9.775
_cell_length_c       12.4669
_cell_angle_alpha    99.2017
_cell_angle_beta     107.207
_cell_angle_gamma    101.66

_space_group_name_H-M_alt    "P 1"
_space_group_IT_number       1

loop_
  _space_group_symop_operation_xyz
  'x, y, z'

loop_
  _atom_site_type_symbol
  _atom_site_label
  _atom_site_symmetry_multiplicity
  _atom_site_fract_x
  _atom_site_fract_y
  _atom_site_fract_z
  _atom_site_occupancy
  Cu  Cu1       1.0  0.46910  0.31433  0.31247  1.0000
  Cu  Cu2       1.0  0.53089  0.68566  0.68753  1.0000
  Te  Te1       1.0  0.76522  0.79142  0.98580  1.0000
  Te  Te2       1.0  0.23477  0.20858  0.01420  1.0000
  Mo  Mo1       1.0  0.63241  0.55192  0.15056  1.0000
  Mo  Mo2       1.0  0.36759  0.44807  0.84946  1.0000
  Mo  Mo3       1.0  0.71149  0.25040  0.96857  1.0000
  Mo  Mo4       1.0  0.28850  0.74960  0.03143  1.0000
  Mo  Mo5       1.0  0.64069  0.05152  0.15737  1.0000
  Mo  Mo6       1.0  0.35930  0.94847  0.84263  1.0000
  H   H1        1.0  0.16547  0.03695  0.24583  1.0000
  H   H2        1.0  0.83453  0.96305  0.75418  1.0000
  H   H3        1.0  0.04574  0.86702  0.35443  1.0000
  H   H4        1.0  0.95426  0.13298  0.64557  1.0000
  H   H5        1.0  0.19515  0.92868  0.57306  1.0000
  H   H6        1.0  0.80487  0.07132  0.42694  1.0000
  H   H7        1.0  0.45647  0.14978  0.66942  1.0000
  H   H8        1.0  0.54354  0.85022  0.33059  1.0000
  H   H9        1.0  0.01820  0.67762  0.64030  1.0000
  H   H10       1.0  0.98180  0.32237  0.35969  1.0000
  H   H11       1.0  0.79994  0.57574  0.43354  1.0000
  H   H12       1.0  0.20005  0.42426  0.56645  1.0000
  H   H13       1.0  0.69900  0.33093  0.73432  1.0000
  H   H14       1.0  0.30102  0.66908  0.26568  1.0000
  H   H15       1.0  0.96251  0.55140  0.79160  1.0000
  H   H16       1.0  0.03752  0.44860  0.20839  1.0000
  C   C1        1.0  0.22620  0.05515  0.33918  1.0000
  C   C2        1.0  0.77379  0.94484  0.66082  1.0000
  C   C3        1.0  0.45288  0.20704  0.50837  1.0000
  C   C4        1.0  0.54712  0.79296  0.49164  1.0000
  C   C5        1.0  0.16083  0.96251  0.40124  1.0000
  C   C6        1.0  0.83918  0.03750  0.59875  1.0000
  C   C7        1.0  0.24361  0.99706  0.52114  1.0000
  C   C8        1.0  0.75639  0.00294  0.47887  1.0000
  C   C9        1.0  0.39097  0.12084  0.57577  1.0000
  C   C10       1.0  0.60905  0.87917  0.42424  1.0000
  C   C11       1.0  0.61100  0.33680  0.55393  1.0000
  C   C12       1.0  0.38900  0.66320  0.44607  1.0000
  C   C13       1.0  0.90257  0.58170  0.61780  1.0000
  C   C14       1.0  0.09745  0.41830  0.38219  1.0000
  C   C15       1.0  0.78414  0.52604  0.50361  1.0000
  C   C16       1.0  0.21586  0.47396  0.49637  1.0000
  C   C17       1.0  0.72497  0.38690  0.66968  1.0000
  C   C18       1.0  0.27505  0.61310  0.33032  1.0000
  C   C19       1.0  0.87181  0.51099  0.70186  1.0000
  C   C20       1.0  0.12820  0.48901  0.29813  1.0000
  N   N1        1.0  0.36774  0.17384  0.39185  1.0000
  N   N2        1.0  0.63226  0.82616  0.60815  1.0000
  N   N3        1.0  0.64232  0.40701  0.47323  1.0000
  N   N4        1.0  0.35768  0.59299  0.52676  1.0000
  O   O1        1.0  0.79874  0.14260  0.07825  1.0000
  O   O2        1.0  0.20126  0.85739  0.92175  1.0000
  O   O3        1.0  0.72994  0.40022  0.09066  1.0000
  O   O4        1.0  0.27005  0.59978  0.90934  1.0000
  O   O5        1.0  0.55148  0.87105  0.98512  1.0000
  O   O6        1.0  0.44851  0.12895  0.01488  1.0000
  O   O7        1.0  0.46556  0.67482  0.13330  1.0000
  O   O8        1.0  0.53444  0.32518  0.86670  1.0000
  O   O9        1.0  0.63850  0.60173  0.98712  1.0000
  O   O10       1.0  0.36149  0.39827  0.01288  1.0000
  O   O11       1.0  0.56656  0.47454  0.25605  1.0000
  O   O12       1.0  0.43344  0.52546  0.74394  1.0000
  O   O13       1.0  0.67133  0.19475  0.26951  1.0000
  O   O14       1.0  0.32867  0.80525  0.73050  1.0000
  O   O15       1.0  0.79037  0.95434  0.21721  1.0000
  O   O16       1.0  0.20963  0.04566  0.78279  1.0000
  O   O17       1.0  0.59409  0.06862  0.85324  1.0000
  O   O18       1.0  0.40590  0.93138  0.14677  1.0000
  O   O19       1.0  0.91235  0.30739  0.93775  1.0000
  O   O20       1.0  0.08764  0.69261  0.06225  1.0000
  O   O21       1.0  0.74144  0.76834  0.83092  1.0000
  O   O22       1.0  0.25855  0.23165  0.16908  1.0000
  O   O23       1.0  0.84252  0.67440  0.22837  1.0000
  O   O24       1.0  0.15747  0.32559  0.77163  1.0000
