data_image0
_chemical_formula_structural       Ni2Te2Mo6H16C20N4O24
_chemical_formula_sum              "Ni2 Te2 Mo6 H16 C20 N4 O24"
_cell_length_a       7.7418
_cell_length_b       9.74877
_cell_length_c       12.3234
_cell_angle_alpha    99.0089
_cell_angle_beta     107.268
_cell_angle_gamma    101.48

_space_group_name_H-M_alt    "P 1"
_space_group_IT_number       1

loop_
  _space_group_symop_operation_xyz
  'x, y, z'

loop_
  _atom_site_type_symbol
  _atom_site_label
  _atom_site_symmetry_multiplicity
  _atom_site_fract_x
  _atom_site_fract_y
  _atom_site_fract_z
  _atom_site_occupancy
  Ni  Ni1       1.0  0.53914  0.68205  0.68727  1.0000
  Ni  Ni2       1.0  0.46086  0.31795  0.31273  1.0000
  Te  Te1       1.0  0.23734  0.20695  0.01614  1.0000
  Te  Te2       1.0  0.76265  0.79305  0.98386  1.0000
  Mo  Mo1       1.0  0.35494  0.95059  0.84147  1.0000
  Mo  Mo2       1.0  0.64506  0.04942  0.15853  1.0000
  Mo  Mo3       1.0  0.28701  0.74950  0.03318  1.0000
  Mo  Mo4       1.0  0.71299  0.25050  0.96682  1.0000
  Mo  Mo5       1.0  0.36894  0.44957  0.84804  1.0000
  Mo  Mo6       1.0  0.63106  0.55043  0.15196  1.0000
  H   H1        1.0  0.83579  0.95412  0.76131  1.0000
  H   H2        1.0  0.16421  0.04587  0.23869  1.0000
  H   H3        1.0  0.95242  0.12771  0.65328  1.0000
  H   H4        1.0  0.04758  0.87228  0.34672  1.0000
  H   H5        1.0  0.20828  0.42955  0.58264  1.0000
  H   H6        1.0  0.79172  0.57045  0.41735  1.0000
  H   H7        1.0  0.54265  0.85020  0.33346  1.0000
  H   H8        1.0  0.45735  0.14981  0.66654  1.0000
  H   H9        1.0  0.80462  0.07107  0.43272  1.0000
  H   H10       1.0  0.19538  0.92893  0.56729  1.0000
  H   H11       1.0  0.29558  0.66290  0.26881  1.0000
  H   H12       1.0  0.70443  0.33711  0.73119  1.0000
  H   H13       1.0  0.98485  0.32496  0.37726  1.0000
  H   H14       1.0  0.01515  0.67505  0.62274  1.0000
  H   H15       1.0  0.03129  0.44363  0.21826  1.0000
  H   H16       1.0  0.96872  0.55638  0.78174  1.0000
  C   C1        1.0  0.77439  0.93786  0.66731  1.0000
  C   C2        1.0  0.22562  0.06214  0.33270  1.0000
  C   C3        1.0  0.83814  0.03239  0.60528  1.0000
  C   C4        1.0  0.16186  0.96761  0.39472  1.0000
  C   C5        1.0  0.39073  0.66149  0.45145  1.0000
  C   C6        1.0  0.60927  0.33851  0.54856  1.0000
  C   C7        1.0  0.54779  0.78922  0.49504  1.0000
  C   C8        1.0  0.45221  0.21078  0.50497  1.0000
  C   C9        1.0  0.22268  0.47703  0.51048  1.0000
  C   C10       1.0  0.77732  0.52297  0.48951  1.0000
  C   C11       1.0  0.60924  0.87743  0.42802  1.0000
  C   C12       1.0  0.39076  0.12256  0.57198  1.0000
  C   C13       1.0  0.75626  0.00060  0.48406  1.0000
  C   C14       1.0  0.24374  0.99940  0.51595  1.0000
  C   C15       1.0  0.27224  0.60900  0.33602  1.0000
  C   C16       1.0  0.72776  0.39101  0.66398  1.0000
  C   C17       1.0  0.10042  0.41976  0.39645  1.0000
  C   C18       1.0  0.89958  0.58025  0.60355  1.0000
  C   C19       1.0  0.12563  0.48614  0.30791  1.0000
  C   C20       1.0  0.87437  0.51386  0.69209  1.0000
  N   N1        1.0  0.63360  0.81869  0.61334  1.0000
  N   N2        1.0  0.36641  0.18131  0.38666  1.0000
  N   N3        1.0  0.36523  0.59518  0.53736  1.0000
  N   N4        1.0  0.63477  0.40482  0.46264  1.0000
  O   O1        1.0  0.26720  0.59947  0.91124  1.0000
  O   O2        1.0  0.73279  0.40053  0.08876  1.0000
  O   O3        1.0  0.53541  0.32749  0.86261  1.0000
  O   O4        1.0  0.46458  0.67251  0.13739  1.0000
  O   O5        1.0  0.35849  0.39525  0.00792  1.0000
  O   O6        1.0  0.64151  0.60475  0.99208  1.0000
  O   O7        1.0  0.45418  0.13160  0.02039  1.0000
  O   O8        1.0  0.54582  0.86840  0.97961  1.0000
  O   O9        1.0  0.08863  0.69588  0.06743  1.0000
  O   O10       1.0  0.91137  0.30413  0.93257  1.0000
  O   O11       1.0  0.31040  0.81201  0.72280  1.0000
  O   O12       1.0  0.68959  0.18799  0.27720  1.0000
  O   O13       1.0  0.41189  0.93086  0.15050  1.0000
  O   O14       1.0  0.58811  0.06915  0.84950  1.0000
  O   O15       1.0  0.19942  0.85972  0.92423  1.0000
  O   O16       1.0  0.80057  0.14028  0.07577  1.0000
  O   O17       1.0  0.20860  0.05689  0.79160  1.0000
  O   O18       1.0  0.79139  0.94311  0.20840  1.0000
  O   O19       1.0  0.44359  0.54213  0.74979  1.0000
  O   O20       1.0  0.55641  0.45787  0.25021  1.0000
  O   O21       1.0  0.16116  0.33255  0.75946  1.0000
  O   O22       1.0  0.83884  0.66745  0.24054  1.0000
  O   O23       1.0  0.26126  0.23496  0.17411  1.0000
  O   O24       1.0  0.73874  0.76504  0.82589  1.0000
