data_image0
_chemical_formula_structural       Zn3H20C14N2O18
_chemical_formula_sum              "Zn3 H20 C14 N2 O18"
_cell_length_a       7.2675
_cell_length_b       8.44057
_cell_length_c       9.35273
_cell_angle_alpha    110.215
_cell_angle_beta     101.481
_cell_angle_gamma    94.4835

_space_group_name_H-M_alt    "P 1"
_space_group_IT_number       1

loop_
  _space_group_symop_operation_xyz
  'x, y, z'

loop_
  _atom_site_type_symbol
  _atom_site_label
  _atom_site_symmetry_multiplicity
  _atom_site_fract_x
  _atom_site_fract_y
  _atom_site_fract_z
  _atom_site_occupancy
  Zn  Zn1       1.0  0.11325  0.85752  0.87088  1.0000
  Zn  Zn2       1.0  0.88674  0.14248  0.12911  1.0000
  Zn  Zn3       1.0  0.50000  0.00000  0.50000  1.0000
  H   H1        1.0  0.45938  0.85313  0.02236  1.0000
  H   H2        1.0  0.54062  0.14687  0.97764  1.0000
  H   H3        1.0  0.32830  0.90680  0.14394  1.0000
  H   H4        1.0  0.67170  0.09320  0.85606  1.0000
  H   H5        1.0  0.89494  0.77706  0.58274  1.0000
  H   H6        1.0  0.10506  0.22294  0.41726  1.0000
  H   H7        1.0  0.87679  0.97283  0.67981  1.0000
  H   H8        1.0  0.12321  0.02717  0.32019  1.0000
  H   H9        1.0  0.58338  0.25843  0.39478  1.0000
  H   H10       1.0  0.41662  0.74157  0.60523  1.0000
  H   H11       1.0  0.42349  0.31110  0.49449  1.0000
  H   H12       1.0  0.57651  0.68890  0.50551  1.0000
  H   H13       1.0  0.81877  0.01492  0.37521  1.0000
  H   H14       1.0  0.18123  0.98508  0.62479  1.0000
  H   H15       1.0  0.67307  0.85697  0.25261  1.0000
  H   H16       1.0  0.32694  0.14303  0.74739  1.0000
  H   H17       1.0  0.01348  0.21267  0.60773  1.0000
  H   H18       1.0  0.98652  0.78733  0.39227  1.0000
  H   H19       1.0  0.62514  0.40521  0.90035  1.0000
  H   H20       1.0  0.37486  0.59479  0.09964  1.0000
  C   C1        1.0  0.03753  0.48424  0.71991  1.0000
  C   C2        1.0  0.96247  0.51576  0.28009  1.0000
  C   C3        1.0  0.95778  0.31667  0.68359  1.0000
  C   C4        1.0  0.04222  0.68333  0.31641  1.0000
  C   C5        1.0  0.80535  0.28080  0.74622  1.0000
  C   C6        1.0  0.19465  0.71920  0.25378  1.0000
  C   C7        1.0  0.74292  0.42219  0.84814  1.0000
  C   C8        1.0  0.25708  0.57781  0.15186  1.0000
  C   C9        1.0  0.83577  0.58577  0.88276  1.0000
  C   C10       1.0  0.16423  0.41423  0.11724  1.0000
  C   C11       1.0  0.19326  0.53072  0.64902  1.0000
  C   C12       1.0  0.80674  0.46928  0.35098  1.0000
  C   C13       1.0  0.78789  0.74327  0.99756  1.0000
  C   C14       1.0  0.21211  0.25673  0.00244  1.0000
  N   N1        1.0  0.97943  0.61619  0.81964  1.0000
  N   N2        1.0  0.02057  0.38381  0.18036  1.0000
  O   O1        1.0  0.35345  0.91674  0.04424  1.0000
  O   O2        1.0  0.64655  0.08326  0.95576  1.0000
  O   O3        1.0  0.96873  0.88860  0.66318  1.0000
  O   O4        1.0  0.03127  0.11140  0.33682  1.0000
  O   O5        1.0  0.49831  0.22039  0.45283  1.0000
  O   O6        1.0  0.50170  0.77961  0.54718  1.0000
  O   O7        1.0  0.70909  0.93177  0.36600  1.0000
  O   O8        1.0  0.29091  0.06823  0.63400  1.0000
  O   O9        1.0  0.23547  0.41335  0.53902  1.0000
  O   O10       1.0  0.76453  0.58665  0.46098  1.0000
  O   O11       1.0  0.26953  0.68786  0.70327  1.0000
  O   O12       1.0  0.73047  0.31214  0.29673  1.0000
  O   O13       1.0  0.90326  0.88073  0.03013  1.0000
  O   O14       1.0  0.09674  0.11927  0.96987  1.0000
  O   O15       1.0  0.64659  0.73080  0.05461  1.0000
  O   O16       1.0  0.35341  0.26920  0.94539  1.0000
  O   O17       1.0  0.72687  0.12045  0.71014  1.0000
  O   O18       1.0  0.27313  0.87955  0.28986  1.0000
