data_image0
_chemical_formula_structural       Ag4H24C20N4O8
_chemical_formula_sum              "Ag4 H24 C20 N4 O8"
_cell_length_a       8.13943
_cell_length_b       8.13945
_cell_length_c       9.5058
_cell_angle_alpha    89.1944
_cell_angle_beta     89.1944
_cell_angle_gamma    71.4252

_space_group_name_H-M_alt    "P 1"
_space_group_IT_number       1

loop_
  _space_group_symop_operation_xyz
  'x, y, z'

loop_
  _atom_site_type_symbol
  _atom_site_label
  _atom_site_symmetry_multiplicity
  _atom_site_fract_x
  _atom_site_fract_y
  _atom_site_fract_z
  _atom_site_occupancy
  Ag  Ag1       1.0  0.00000  0.00000  0.50000  1.0000
  Ag  Ag2       1.0  0.00000  0.00000  0.00000  1.0000
  Ag  Ag3       1.0  0.16882  0.83118  0.75000  1.0000
  Ag  Ag4       1.0  0.83118  0.16882  0.25000  1.0000
  H   H1        1.0  0.59676  0.00495  0.91028  1.0000
  H   H2        1.0  0.99505  0.40324  0.58972  1.0000
  H   H3        1.0  0.40324  0.99505  0.08972  1.0000
  H   H4        1.0  0.00495  0.59676  0.41028  1.0000
  H   H5        1.0  0.48708  0.96351  0.76190  1.0000
  H   H6        1.0  0.03649  0.51292  0.73810  1.0000
  H   H7        1.0  0.51292  0.03649  0.23810  1.0000
  H   H8        1.0  0.96351  0.48708  0.26190  1.0000
  H   H9        1.0  0.53609  0.31303  0.83072  1.0000
  H   H10       1.0  0.68697  0.46391  0.66928  1.0000
  H   H11       1.0  0.46391  0.68697  0.16928  1.0000
  H   H12       1.0  0.31303  0.53609  0.33072  1.0000
  H   H13       1.0  0.33928  0.26677  0.83296  1.0000
  H   H14       1.0  0.73323  0.66072  0.66705  1.0000
  H   H15       1.0  0.66073  0.73323  0.16704  1.0000
  H   H16       1.0  0.26677  0.33928  0.33296  1.0000
  H   H17       1.0  0.39261  0.41501  0.60240  1.0000
  H   H18       1.0  0.58499  0.60739  0.89760  1.0000
  H   H19       1.0  0.60738  0.58499  0.39760  1.0000
  H   H20       1.0  0.41501  0.39261  0.10240  1.0000
  H   H21       1.0  0.35467  0.21427  0.58057  1.0000
  H   H22       1.0  0.78574  0.64533  0.91944  1.0000
  H   H23       1.0  0.64534  0.78573  0.41943  1.0000
  H   H24       1.0  0.21426  0.35466  0.08056  1.0000
  C   C1        1.0  0.73433  0.99153  0.71883  1.0000
  C   C2        1.0  0.00848  0.26567  0.78117  1.0000
  C   C3        1.0  0.26567  0.00847  0.28117  1.0000
  C   C4        1.0  0.99153  0.73433  0.21883  1.0000
  C   C5        1.0  0.56533  0.04231  0.80009  1.0000
  C   C6        1.0  0.95770  0.43467  0.69992  1.0000
  C   C7        1.0  0.43467  0.95769  0.19992  1.0000
  C   C8        1.0  0.04230  0.56533  0.30009  1.0000
  C   C9        1.0  0.46628  0.23415  0.78108  1.0000
  C   C10       1.0  0.76586  0.53372  0.71892  1.0000
  C   C11       1.0  0.53372  0.76585  0.21892  1.0000
  C   C12       1.0  0.23414  0.46628  0.28108  1.0000
  C   C13       1.0  0.44569  0.27536  0.62448  1.0000
  C   C14       1.0  0.72464  0.55432  0.87553  1.0000
  C   C15       1.0  0.55432  0.72464  0.37552  1.0000
  C   C16       1.0  0.27536  0.44568  0.12447  1.0000
  C   C17       1.0  0.38581  0.79245  0.45693  1.0000
  C   C18       1.0  0.20755  0.61419  0.04307  1.0000
  C   C19       1.0  0.61419  0.20756  0.54307  1.0000
  C   C20       1.0  0.79245  0.38581  0.95693  1.0000
  N   N1        1.0  0.75040  0.07728  0.59720  1.0000
  N   N2        1.0  0.92272  0.24960  0.90280  1.0000
  N   N3        1.0  0.24960  0.92272  0.40280  1.0000
  N   N4        1.0  0.07728  0.75040  0.09720  1.0000
  O   O1        1.0  0.85988  0.86914  0.76406  1.0000
  O   O2        1.0  0.13085  0.14012  0.73594  1.0000
  O   O3        1.0  0.14012  0.13085  0.23594  1.0000
  O   O4        1.0  0.86915  0.85988  0.26407  1.0000
  O   O5        1.0  0.37403  0.72587  0.57520  1.0000
  O   O6        1.0  0.27412  0.62597  0.92480  1.0000
  O   O7        1.0  0.62597  0.27412  0.42480  1.0000
  O   O8        1.0  0.72587  0.37403  0.07520  1.0000
