data_image0
_chemical_formula_structural       Zn2H42C34S2N6O14
_chemical_formula_sum              "Zn2 H42 C34 S2 N6 O14"
_cell_length_a       9.30561
_cell_length_b       9.79094
_cell_length_c       11.4538
_cell_angle_alpha    90
_cell_angle_beta     94.0578
_cell_angle_gamma    89.9998

_space_group_name_H-M_alt    "P 1"
_space_group_IT_number       1

loop_
  _space_group_symop_operation_xyz
  'x, y, z'

loop_
  _atom_site_type_symbol
  _atom_site_label
  _atom_site_symmetry_multiplicity
  _atom_site_fract_x
  _atom_site_fract_y
  _atom_site_fract_z
  _atom_site_occupancy
  Zn  Zn1       1.0  0.19533  0.16886  0.57564  1.0000
  Zn  Zn2       1.0  0.80467  0.66886  0.42436  1.0000
  H   H1        1.0  0.76110  0.73773  0.70557  1.0000
  H   H2        1.0  0.23889  0.23773  0.29443  1.0000
  H   H3        1.0  0.83280  0.97697  0.75036  1.0000
  H   H4        1.0  0.16720  0.47697  0.24964  1.0000
  H   H5        1.0  0.44872  0.03651  0.93196  1.0000
  H   H6        1.0  0.55129  0.53650  0.06805  1.0000
  H   H7        1.0  0.37476  0.79677  0.88719  1.0000
  H   H8        1.0  0.62524  0.29676  0.11282  1.0000
  H   H9        1.0  0.60246  0.23543  0.88338  1.0000
  H   H10       1.0  0.39755  0.73542  0.11662  1.0000
  H   H11       1.0  0.76218  0.20909  0.81034  1.0000
  H   H12       1.0  0.23783  0.70909  0.18966  1.0000
  H   H13       1.0  0.75763  0.16812  0.96086  1.0000
  H   H14       1.0  0.24238  0.66812  0.03914  1.0000
  H   H15       1.0  0.25643  0.65447  0.64422  1.0000
  H   H16       1.0  0.74357  0.15447  0.35579  1.0000
  H   H17       1.0  0.36330  0.58454  0.40499  1.0000
  H   H18       1.0  0.63670  0.08454  0.59501  1.0000
  H   H19       1.0  0.18726  0.64203  0.42615  1.0000
  H   H20       1.0  0.81274  0.14202  0.57385  1.0000
  H   H21       1.0  0.46725  0.80295  0.48942  1.0000
  H   H22       1.0  0.53276  0.30295  0.51059  1.0000
  H   H23       1.0  0.35322  0.82915  0.36487  1.0000
  H   H24       1.0  0.64678  0.32915  0.63513  1.0000
  H   H25       1.0  0.26326  0.33831  0.78478  1.0000
  H   H26       1.0  0.73674  0.83831  0.21522  1.0000
  H   H27       1.0  0.26296  0.31234  0.00033  1.0000
  H   H28       1.0  0.73704  0.81234  0.99967  1.0000
  H   H29       1.0  0.16919  0.09587  0.08455  1.0000
  H   H30       1.0  0.83080  0.59588  0.91545  1.0000
  H   H31       1.0  0.08607  0.95247  0.72826  1.0000
  H   H32       1.0  0.91392  0.45247  0.27173  1.0000
  H   H33       1.0  0.00063  0.82732  0.89865  1.0000
  H   H34       1.0  0.99936  0.32732  0.10134  1.0000
  H   H35       1.0  0.04104  0.87931  0.03863  1.0000
  H   H36       1.0  0.95895  0.37932  0.96137  1.0000
  H   H37       1.0  0.53990  0.55260  0.56973  1.0000
  H   H38       1.0  0.46010  0.05260  0.43027  1.0000
  H   H39       1.0  0.96804  0.24974  0.45013  1.0000
  H   H40       1.0  0.03196  0.74975  0.54987  1.0000
  H   H41       1.0  0.98812  0.08601  0.42691  1.0000
  H   H42       1.0  0.01188  0.58601  0.57309  1.0000
  C   C1        1.0  0.69279  0.80287  0.75569  1.0000
  C   C2        1.0  0.30721  0.30287  0.24430  1.0000
  C   C3        1.0  0.73284  0.93713  0.78146  1.0000
  C   C4        1.0  0.26716  0.43713  0.21853  1.0000
  C   C5        1.0  0.64676  0.02352  0.84551  1.0000
  C   C6        1.0  0.35325  0.52352  0.15449  1.0000
  C   C7        1.0  0.51686  0.97155  0.88181  1.0000
  C   C8        1.0  0.48315  0.47154  0.11819  1.0000
  C   C9        1.0  0.47469  0.83724  0.85703  1.0000
  C   C10       1.0  0.52531  0.33724  0.14298  1.0000
  C   C11       1.0  0.56352  0.75312  0.79496  1.0000
  C   C12       1.0  0.43648  0.25312  0.20504  1.0000
  C   C13       1.0  0.69425  0.16644  0.87596  1.0000
  C   C14       1.0  0.30575  0.66643  0.12403  1.0000
  C   C15       1.0  0.31146  0.58694  0.58510  1.0000
  C   C16       1.0  0.68854  0.08694  0.41490  1.0000
  C   C17       1.0  0.23154  0.44973  0.58345  1.0000
  C   C18       1.0  0.76846  0.94973  0.41655  1.0000
  C   C19       1.0  0.30006  0.64851  0.46139  1.0000
  C   C20       1.0  0.69995  0.14851  0.53862  1.0000
  C   C21       1.0  0.35372  0.79487  0.45652  1.0000
  C   C22       1.0  0.64628  0.29486  0.54348  1.0000
  C   C23       1.0  0.26881  0.90010  0.51920  1.0000
  C   C24       1.0  0.73120  0.40010  0.48080  1.0000
  C   C25       1.0  0.22008  0.24672  0.82285  1.0000
  C   C26       1.0  0.77992  0.74672  0.17715  1.0000
  C   C27       1.0  0.21928  0.23094  0.94359  1.0000
  C   C28       1.0  0.78071  0.73095  0.05641  1.0000
  C   C29       1.0  0.16563  0.11177  0.99010  1.0000
  C   C30       1.0  0.83437  0.61177  0.00990  1.0000
  C   C31       1.0  0.11315  0.00767  0.91367  1.0000
  C   C32       1.0  0.88684  0.50767  0.08633  1.0000
  C   C33       1.0  0.11847  0.03072  0.79270  1.0000
  C   C34       1.0  0.88153  0.53072  0.20730  1.0000
  S   S1        1.0  0.51406  0.58083  0.76441  1.0000
  S   S2        1.0  0.48593  0.08082  0.23560  1.0000
  N   N1        1.0  0.17018  0.14694  0.74952  1.0000
  N   N2        1.0  0.82982  0.64694  0.25048  1.0000
  N   N3        1.0  0.06553  0.88471  0.95394  1.0000
  N   N4        1.0  0.93447  0.38472  0.04605  1.0000
  N   N5        1.0  0.46166  0.57551  0.62733  1.0000
  N   N6        1.0  0.53834  0.07551  0.37268  1.0000
  O   O1        1.0  0.64561  0.50116  0.77974  1.0000
  O   O2        1.0  0.35439  0.00116  0.22026  1.0000
  O   O3        1.0  0.39184  0.54957  0.83163  1.0000
  O   O4        1.0  0.60816  0.04956  0.16838  1.0000
  O   O5        1.0  0.30618  0.34163  0.56806  1.0000
  O   O6        1.0  0.69382  0.84163  0.43194  1.0000
  O   O7        1.0  0.09804  0.44897  0.59593  1.0000
  O   O8        1.0  0.90196  0.94896  0.40407  1.0000
  O   O9        1.0  0.32404  0.02241  0.52218  1.0000
  O   O10       1.0  0.67597  0.52240  0.47782  1.0000
  O   O11       1.0  0.15269  0.87370  0.56406  1.0000
  O   O12       1.0  0.84731  0.37370  0.43594  1.0000
  O   O13       1.0  0.04183  0.17511  0.44655  1.0000
  O   O14       1.0  0.95818  0.67511  0.55345  1.0000
