data_image0
_chemical_formula_structural       Zn4H24C28N16O12
_chemical_formula_sum              "Zn4 H24 C28 N16 O12"
_cell_length_a       4.82575
_cell_length_b       10.4666
_cell_length_c       17.3362
_cell_angle_alpha    90
_cell_angle_beta     91.153
_cell_angle_gamma    90.0001

_space_group_name_H-M_alt    "P 1"
_space_group_IT_number       1

loop_
  _space_group_symop_operation_xyz
  'x, y, z'

loop_
  _atom_site_type_symbol
  _atom_site_label
  _atom_site_symmetry_multiplicity
  _atom_site_fract_x
  _atom_site_fract_y
  _atom_site_fract_z
  _atom_site_occupancy
  Zn  Zn1       1.0  0.15348  0.25140  0.17892  1.0000
  Zn  Zn2       1.0  0.34652  0.75140  0.32108  1.0000
  Zn  Zn3       1.0  0.84652  0.74860  0.82108  1.0000
  Zn  Zn4       1.0  0.65348  0.24860  0.67892  1.0000
  H   H1        1.0  0.45800  0.03553  0.27643  1.0000
  H   H2        1.0  0.04200  0.53553  0.22357  1.0000
  H   H3        1.0  0.54200  0.96447  0.72357  1.0000
  H   H4        1.0  0.95800  0.46447  0.77643  1.0000
  H   H5        1.0  0.51801  0.88287  0.02101  1.0000
  H   H6        1.0  0.98199  0.38287  0.47899  1.0000
  H   H7        1.0  0.48199  0.11713  0.97899  1.0000
  H   H8        1.0  0.01801  0.61713  0.52101  1.0000
  H   H9        1.0  0.61035  0.68237  0.07720  1.0000
  H   H10       1.0  0.88966  0.18238  0.42280  1.0000
  H   H11       1.0  0.38966  0.31762  0.92280  1.0000
  H   H12       1.0  0.11034  0.81762  0.57720  1.0000
  H   H13       1.0  0.94903  0.46257  0.06698  1.0000
  H   H14       1.0  0.55097  0.96257  0.43302  1.0000
  H   H15       1.0  0.05097  0.53743  0.93302  1.0000
  H   H16       1.0  0.44903  0.03743  0.56698  1.0000
  H   H17       1.0  0.66499  0.44951  0.99954  1.0000
  H   H18       1.0  0.83501  0.94952  0.50046  1.0000
  H   H19       1.0  0.33501  0.55049  0.00046  1.0000
  H   H20       1.0  0.16499  0.05049  0.49954  1.0000
  H   H21       1.0  0.91175  0.32356  0.01078  1.0000
  H   H22       1.0  0.58825  0.82356  0.48923  1.0000
  H   H23       1.0  0.08825  0.67644  0.98922  1.0000
  H   H24       1.0  0.41175  0.17644  0.51078  1.0000
  C   C1        1.0  0.00032  0.97669  0.14426  1.0000
  C   C2        1.0  0.49968  0.47669  0.35574  1.0000
  C   C3        1.0  0.99968  0.02331  0.85574  1.0000
  C   C4        1.0  0.50032  0.52331  0.64426  1.0000
  C   C5        1.0  0.04911  0.85483  0.17585  1.0000
  C   C6        1.0  0.45090  0.35483  0.32415  1.0000
  C   C7        1.0  0.95090  0.14517  0.82415  1.0000
  C   C8        1.0  0.54910  0.64517  0.67585  1.0000
  C   C9        1.0  0.31103  0.99296  0.23549  1.0000
  C   C10       1.0  0.18897  0.49296  0.26451  1.0000
  C   C11       1.0  0.68897  0.00704  0.76451  1.0000
  C   C12       1.0  0.81103  0.50704  0.73549  1.0000
  C   C13       1.0  0.80782  0.99217  0.08131  1.0000
  C   C14       1.0  0.69219  0.49218  0.41870  1.0000
  C   C15       1.0  0.19218  0.00782  0.91869  1.0000
  C   C16       1.0  0.30782  0.50782  0.58131  1.0000
  C   C17       1.0  0.73160  0.76317  0.09863  1.0000
  C   C18       1.0  0.76840  0.26317  0.40137  1.0000
  C   C19       1.0  0.26840  0.23683  0.90137  1.0000
  C   C20       1.0  0.23160  0.73683  0.59863  1.0000
  C   C21       1.0  0.63010  0.33503  0.10279  1.0000
  C   C22       1.0  0.86990  0.83503  0.39721  1.0000
  C   C23       1.0  0.36990  0.66497  0.89721  1.0000
  C   C24       1.0  0.13010  0.16497  0.60279  1.0000
  C   C25       1.0  0.79574  0.39769  0.04106  1.0000
  C   C26       1.0  0.70426  0.89769  0.45894  1.0000
  C   C27       1.0  0.20426  0.60231  0.95894  1.0000
  C   C28       1.0  0.29574  0.10231  0.54106  1.0000
  N   N1        1.0  0.16797  0.06324  0.18326  1.0000
  N   N2        1.0  0.33203  0.56324  0.31674  1.0000
  N   N3        1.0  0.83203  0.93676  0.81674  1.0000
  N   N4        1.0  0.66797  0.43676  0.68326  1.0000
  N   N5        1.0  0.91909  0.74493  0.15355  1.0000
  N   N6        1.0  0.58091  0.24493  0.34645  1.0000
  N   N7        1.0  0.08091  0.25507  0.84645  1.0000
  N   N8        1.0  0.41909  0.75507  0.65355  1.0000
  N   N9        1.0  0.24843  0.86690  0.23314  1.0000
  N   N10       1.0  0.25157  0.36690  0.26686  1.0000
  N   N11       1.0  0.75157  0.13310  0.76686  1.0000
  N   N12       1.0  0.74843  0.63310  0.73314  1.0000
  N   N13       1.0  0.67270  0.87708  0.06417  1.0000
  N   N14       1.0  0.82730  0.37708  0.43583  1.0000
  N   N15       1.0  0.32730  0.12291  0.93583  1.0000
  N   N16       1.0  0.17270  0.62292  0.56417  1.0000
  O   O1        1.0  0.36788  0.32647  0.09197  1.0000
  O   O2        1.0  0.13212  0.82647  0.40804  1.0000
  O   O3        1.0  0.63212  0.67353  0.90803  1.0000
  O   O4        1.0  0.86788  0.17353  0.59196  1.0000
  O   O5        1.0  0.75054  0.29402  0.16401  1.0000
  O   O6        1.0  0.74945  0.79403  0.33599  1.0000
  O   O7        1.0  0.24946  0.70598  0.83599  1.0000
  O   O8        1.0  0.25054  0.20598  0.66401  1.0000
  O   O9        1.0  0.75602  0.09148  0.04328  1.0000
  O   O10       1.0  0.74397  0.59147  0.45672  1.0000
  O   O11       1.0  0.24397  0.90853  0.95672  1.0000
  O   O12       1.0  0.25603  0.40853  0.54328  1.0000
