data_image0
_chemical_formula_structural       Cd2H38C30S2N6O14
_chemical_formula_sum              "Cd2 H38 C30 S2 N6 O14"
_cell_length_a       4.93925
_cell_length_b       10.5531
_cell_length_c       17.5037
_cell_angle_alpha    93.4694
_cell_angle_beta     89.9996
_cell_angle_gamma    90.0002

_space_group_name_H-M_alt    "P 1"
_space_group_IT_number       1

loop_
  _space_group_symop_operation_xyz
  'x, y, z'

loop_
  _atom_site_type_symbol
  _atom_site_label
  _atom_site_symmetry_multiplicity
  _atom_site_fract_x
  _atom_site_fract_y
  _atom_site_fract_z
  _atom_site_occupancy
  Cd  Cd1       1.0  0.26941  0.78156  0.36222  1.0000
  Cd  Cd2       1.0  0.76941  0.21844  0.63777  1.0000
  H   H1        1.0  0.29161  0.60540  0.18550  1.0000
  H   H2        1.0  0.79161  0.39461  0.81451  1.0000
  H   H3        1.0  0.34247  0.80407  0.11863  1.0000
  H   H4        1.0  0.84251  0.19593  0.88138  1.0000
  H   H5        1.0  0.04538  0.65051  0.00040  1.0000
  H   H6        1.0  0.54542  0.34951  0.99961  1.0000
  H   H7        1.0  0.99670  0.45066  0.06681  1.0000
  H   H8        1.0  0.49667  0.54935  0.93319  1.0000
  H   H9        1.0  0.93163  0.88398  0.00208  1.0000
  H   H10       1.0  0.43166  0.11602  0.99791  1.0000
  H   H11       1.0  0.60799  0.93707  0.03634  1.0000
  H   H12       1.0  0.10801  0.06295  0.96366  1.0000
  H   H13       1.0  0.63437  0.83801  0.95122  1.0000
  H   H14       1.0  0.13443  0.16200  0.04878  1.0000
  H   H15       1.0  0.43971  0.49861  0.30303  1.0000
  H   H16       1.0  0.93973  0.50138  0.69697  1.0000
  H   H17       1.0  0.89256  0.41451  0.40818  1.0000
  H   H18       1.0  0.39255  0.58547  0.59182  1.0000
  H   H19       1.0  0.62097  0.51418  0.43724  1.0000
  H   H20       1.0  0.12097  0.48582  0.56277  1.0000
  H   H21       1.0  0.53676  0.24366  0.36567  1.0000
  H   H22       1.0  0.03674  0.75633  0.63433  1.0000
  H   H23       1.0  0.28804  0.34354  0.40866  1.0000
  H   H24       1.0  0.78803  0.65644  0.59133  1.0000
  H   H25       1.0  0.81091  0.82812  0.22155  1.0000
  H   H26       1.0  0.31092  0.17189  0.77846  1.0000
  H   H27       1.0  0.79687  0.05217  0.14353  1.0000
  H   H28       1.0  0.29685  0.94783  0.85648  1.0000
  H   H29       1.0  0.45858  0.06241  0.29756  1.0000
  H   H30       1.0  0.95857  0.93760  0.70244  1.0000
  H   H31       1.0  0.96447  0.39324  0.25061  1.0000
  H   H32       1.0  0.46445  0.60677  0.74939  1.0000
  H   H33       1.0  0.19567  0.18242  0.19784  1.0000
  H   H34       1.0  0.69566  0.81758  0.80216  1.0000
  H   H35       1.0  0.70669  0.90489  0.43965  1.0000
  H   H36       1.0  0.20669  0.09510  0.56035  1.0000
  H   H37       1.0  0.50108  0.02098  0.44543  1.0000
  H   H38       1.0  0.00108  0.97900  0.55456  1.0000
  C   C1        1.0  0.45679  0.61532  0.14497  1.0000
  C   C2        1.0  0.95680  0.38468  0.85503  1.0000
  C   C3        1.0  0.48656  0.72683  0.10683  1.0000
  C   C4        1.0  0.98656  0.27318  0.89317  1.0000
  C   C5        1.0  0.69457  0.74021  0.05345  1.0000
  C   C6        1.0  0.19459  0.25979  0.94656  1.0000
  C   C7        1.0  0.87902  0.64013  0.04038  1.0000
  C   C8        1.0  0.37904  0.35987  0.95962  1.0000
  C   C9        1.0  0.85396  0.52827  0.07778  1.0000
  C   C10       1.0  0.35395  0.47174  0.92223  1.0000
  C   C11       1.0  0.63993  0.51606  0.12923  1.0000
  C   C12       1.0  0.13993  0.48395  0.87077  1.0000
  C   C13       1.0  0.71897  0.85666  0.00892  1.0000
  C   C14       1.0  0.21900  0.14335  0.99108  1.0000
  C   C15       1.0  0.65390  0.48109  0.31532  1.0000
  C   C16       1.0  0.15390  0.51890  0.68468  1.0000
  C   C17       1.0  0.81458  0.60510  0.31330  1.0000
  C   C18       1.0  0.31458  0.39490  0.68669  1.0000
  C   C19       1.0  0.67874  0.43518  0.39679  1.0000
  C   C20       1.0  0.17873  0.56482  0.60321  1.0000
  C   C21       1.0  0.50507  0.31949  0.41062  1.0000
  C   C22       1.0  0.00505  0.68050  0.58937  1.0000
  C   C23       1.0  0.55746  0.26431  0.48752  1.0000
  C   C24       1.0  0.05746  0.73568  0.51247  1.0000
  C   C25       1.0  0.94489  0.90932  0.22435  1.0000
  C   C26       1.0  0.44490  0.09068  0.77567  1.0000
  C   C27       1.0  0.93557  0.01844  0.18547  1.0000
  C   C28       1.0  0.43560  0.98156  0.81454  1.0000
  C   C29       1.0  0.28036  0.02885  0.26648  1.0000
  C   C30       1.0  0.78034  0.97115  0.73352  1.0000
  S   S1        1.0  0.60820  0.37117  0.17451  1.0000
  S   S2        1.0  0.10818  0.62882  0.82549  1.0000
  N   N1        1.0  0.75850  0.38423  0.25826  1.0000
  N   N2        1.0  0.25849  0.61576  0.74174  1.0000
  N   N3        1.0  0.16036  0.91728  0.27463  1.0000
  N   N4        1.0  0.66036  0.08273  0.72538  1.0000
  N   N5        1.0  0.14883  0.09245  0.21293  1.0000
  N   N6        1.0  0.64882  0.90754  0.78706  1.0000
  O   O1        1.0  0.70316  0.70870  0.33659  1.0000
  O   O2        1.0  0.20317  0.29130  0.66340  1.0000
  O   O3        1.0  0.06157  0.59705  0.29305  1.0000
  O   O4        1.0  0.56158  0.40295  0.70695  1.0000
  O   O5        1.0  0.70346  0.32963  0.53548  1.0000
  O   O6        1.0  0.20346  0.67035  0.46452  1.0000
  O   O7        1.0  0.45636  0.15699  0.50116  1.0000
  O   O8        1.0  0.95638  0.84300  0.49883  1.0000
  O   O9        1.0  0.32151  0.35114  0.18968  1.0000
  O   O10       1.0  0.82149  0.64886  0.81032  1.0000
  O   O11       1.0  0.75247  0.27449  0.12868  1.0000
  O   O12       1.0  0.25243  0.72553  0.87132  1.0000
  O   O13       1.0  0.55725  0.94534  0.41243  1.0000
  O   O14       1.0  0.05724  0.05465  0.58757  1.0000
