data_image0
_chemical_formula_structural       Ni2H34C54N10O10
_chemical_formula_sum              "Ni2 H34 C54 N10 O10"
_cell_length_a       10.2148
_cell_length_b       9.97841
_cell_length_c       13.401
_cell_angle_alpha    69.0213
_cell_angle_beta     69.7179
_cell_angle_gamma    69.9881

_space_group_name_H-M_alt    "P 1"
_space_group_IT_number       1

loop_
  _space_group_symop_operation_xyz
  'x, y, z'

loop_
  _atom_site_type_symbol
  _atom_site_label
  _atom_site_symmetry_multiplicity
  _atom_site_fract_x
  _atom_site_fract_y
  _atom_site_fract_z
  _atom_site_occupancy
  Ni  Ni1       1.0  0.17164  0.68740  0.19216  1.0000
  Ni  Ni2       1.0  0.83882  0.29797  0.83717  1.0000
  H   H1        1.0  0.42060  0.38309  0.92084  1.0000
  H   H2        1.0  0.55280  0.63409  0.06843  1.0000
  H   H3        1.0  0.08478  0.22717  0.97017  1.0000
  H   H4        1.0  0.90693  0.77083  0.02787  1.0000
  H   H5        1.0  0.66334  0.63192  0.18695  1.0000
  H   H6        1.0  0.32181  0.37747  0.80978  1.0000
  H   H7        1.0  0.33227  0.67483  0.48595  1.0000
  H   H8        1.0  0.67337  0.31116  0.52674  1.0000
  H   H9        1.0  0.40351  0.70523  0.61753  1.0000
  H   H10       1.0  0.61504  0.27710  0.39065  1.0000
  H   H11       1.0  0.41279  0.63320  0.80417  1.0000
  H   H12       1.0  0.56697  0.36084  0.21045  1.0000
  H   H13       1.0  0.93998  0.40689  0.13064  1.0000
  H   H14       1.0  0.04794  0.61666  0.85263  1.0000
  H   H15       1.0  0.25339  0.08640  0.82635  1.0000
  H   H16       1.0  0.74760  0.90887  0.18898  1.0000
  H   H17       1.0  0.39885  0.91491  0.23648  1.0000
  H   H18       1.0  0.63834  0.06071  0.72467  1.0000
  H   H19       1.0  0.76579  0.68440  0.45367  1.0000
  H   H20       1.0  0.24364  0.31623  0.53586  1.0000
  H   H21       1.0  0.43734  0.07256  0.04200  1.0000
  H   H22       1.0  0.55857  0.93184  0.92463  1.0000
  H   H23       1.0  0.84438  0.37165  0.33242  1.0000
  H   H24       1.0  0.14773  0.67210  0.64958  1.0000
  H   H25       1.0  0.38396  0.90641  0.71278  1.0000
  H   H26       1.0  0.60792  0.08826  0.30199  1.0000
  H   H27       1.0  0.98921  0.89329  0.39705  1.0000
  H   H28       1.0  0.02055  0.14581  0.61504  1.0000
  H   H29       1.0  0.86695  0.12240  0.46456  1.0000
  H   H30       1.0  0.13597  0.92984  0.53177  1.0000
  H   H31       1.0  0.20484  0.30040  0.36356  1.0000
  H   H32       1.0  0.83967  0.64139  0.64242  1.0000
  H   H33       1.0  0.28822  0.02431  0.39371  1.0000
  H   H34       1.0  0.77039  0.92014  0.58600  1.0000
  C   C1        1.0  0.72912  0.65522  0.31390  1.0000
  C   C2        1.0  0.26763  0.34817  0.67973  1.0000
  C   C3        1.0  0.48628  0.65105  0.33252  1.0000
  C   C4        1.0  0.50892  0.34641  0.67322  1.0000
  C   C5        1.0  0.62862  0.64379  0.27035  1.0000
  C   C6        1.0  0.36330  0.36028  0.72776  1.0000
  C   C7        1.0  0.27595  0.33941  0.18549  1.0000
  C   C8        1.0  0.73733  0.63327  0.81462  1.0000
  C   C9        1.0  0.37656  0.64937  0.28340  1.0000
  C   C10       1.0  0.61013  0.35288  0.72992  1.0000
  C   C11       1.0  0.03110  0.02349  0.22621  1.0000
  C   C12       1.0  0.97172  0.00031  0.77986  1.0000
  C   C13       1.0  0.44394  0.67039  0.43846  1.0000
  C   C14       1.0  0.55932  0.32092  0.56887  1.0000
  C   C15       1.0  0.28703  0.66898  0.96375  1.0000
  C   C16       1.0  0.68706  0.32864  0.04928  1.0000
  C   C17       1.0  0.20368  0.91407  0.97694  1.0000
  C   C18       1.0  0.78298  0.08100  0.03689  1.0000
  C   C19       1.0  0.34204  0.27476  0.09511  1.0000
  C   C20       1.0  0.65580  0.71495  0.89409  1.0000
  C   C21       1.0  0.29514  0.51752  0.03308  1.0000
  C   C22       1.0  0.68565  0.47575  0.97704  1.0000
  C   C23       1.0  0.34977  0.71521  0.85014  1.0000
  C   C24       1.0  0.62938  0.28053  0.16307  1.0000
  C   C25       1.0  0.13129  0.99652  0.06000  1.0000
  C   C26       1.0  0.86406  0.00463  0.95238  1.0000
  C   C27       1.0  0.94835  0.29552  0.18669  1.0000
  C   C28       1.0  0.04412  0.73071  0.80232  1.0000
  C   C29       1.0  0.26143  0.96845  0.86367  1.0000
  C   C30       1.0  0.73027  0.02734  0.15059  1.0000
  C   C31       1.0  0.36445  0.03476  0.22013  1.0000
  C   C32       1.0  0.66441  0.94014  0.75200  1.0000
  C   C33       1.0  0.68727  0.67546  0.41989  1.0000
  C   C34       1.0  0.31759  0.32374  0.57466  1.0000
  C   C35       1.0  0.38648  0.12147  0.11127  1.0000
  C   C36       1.0  0.62013  0.86959  0.86376  1.0000
  C   C37       1.0  0.89470  0.27451  0.30065  1.0000
  C   C38       1.0  0.10087  0.76328  0.68813  1.0000
  C   C39       1.0  0.33484  0.86690  0.80067  1.0000
  C   C40       1.0  0.65231  0.12831  0.21346  1.0000
  C   C41       1.0  0.01642  0.16759  0.15043  1.0000
  C   C42       1.0  0.97891  0.85153  0.84728  1.0000
  C   C43       1.0  0.97601  0.00427  0.34040  1.0000
  C   C44       1.0  0.02952  0.03142  0.66526  1.0000
  C   C45       1.0  0.90767  0.13190  0.37615  1.0000
  C   C46       1.0  0.09367  0.91050  0.62103  1.0000
  C   C47       1.0  0.25432  0.25039  0.29481  1.0000
  C   C48       1.0  0.77964  0.70542  0.70232  1.0000
  C   C49       1.0  0.30036  0.09801  0.31012  1.0000
  C   C50       1.0  0.74084  0.85940  0.67274  1.0000
  C   C51       1.0  0.54385  0.68418  0.48153  1.0000
  C   C52       1.0  0.46414  0.30956  0.52002  1.0000
  C   C53       1.0  0.87962  0.65436  0.24044  1.0000
  C   C54       1.0  0.11494  0.35203  0.74986  1.0000
  N   N1        1.0  0.21513  0.76755  0.02346  1.0000
  N   N2        1.0  0.76055  0.22977  0.98815  1.0000
  N   N3        1.0  0.35102  0.39073  0.00042  1.0000
  N   N4        1.0  0.62483  0.61193  0.99518  1.0000
  N   N5        1.0  0.10409  0.92044  0.16712  1.0000
  N   N6        1.0  0.90030  0.09278  0.84841  1.0000
  N   N7        1.0  0.24786  0.49109  0.14356  1.0000
  N   N8        1.0  0.75601  0.48459  0.86978  1.0000
  N   N9        1.0  0.08140  0.14570  0.04611  1.0000
  N   N10       1.0  0.91018  0.85941  0.95482  1.0000
  O   O1        1.0  0.96831  0.66679  0.28227  1.0000
  O   O2        1.0  0.02356  0.34763  0.70592  1.0000
  O   O3        1.0  0.40961  0.66838  0.17778  1.0000
  O   O4        1.0  0.55402  0.38099  0.82377  1.0000
  O   O5        1.0  0.25201  0.63752  0.34339  1.0000
  O   O6        1.0  0.74387  0.32735  0.68419  1.0000
  O   O7        1.0  0.50481  0.70657  0.58412  1.0000
  O   O8        1.0  0.51136  0.28448  0.41754  1.0000
  O   O9        1.0  0.90605  0.64560  0.14291  1.0000
  O   O10       1.0  0.08816  0.35466  0.84908  1.0000
