data_image0
_chemical_formula_structural       CuH20C18N4O6
_chemical_formula_sum              "Cu1 H20 C18 N4 O6"
_cell_length_a       7.70605
_cell_length_b       7.94788
_cell_length_c       8.8881
_cell_angle_alpha    66.63
_cell_angle_beta     71.9485
_cell_angle_gamma    81.9108

_space_group_name_H-M_alt    "P 1"
_space_group_IT_number       1

loop_
  _space_group_symop_operation_xyz
  'x, y, z'

loop_
  _atom_site_type_symbol
  _atom_site_label
  _atom_site_symmetry_multiplicity
  _atom_site_fract_x
  _atom_site_fract_y
  _atom_site_fract_z
  _atom_site_occupancy
  Cu  Cu1       1.0  0.50000  0.00000  0.00000  1.0000
  H   H1        1.0  0.44629  0.72658  0.51457  1.0000
  H   H2        1.0  0.55371  0.27342  0.48544  1.0000
  H   H3        1.0  0.75749  0.00584  0.17836  1.0000
  H   H4        1.0  0.24251  0.99416  0.82164  1.0000
  H   H5        1.0  0.04502  0.16918  0.10847  1.0000
  H   H6        1.0  0.95498  0.83082  0.89153  1.0000
  H   H7        1.0  0.93866  0.52390  0.63102  1.0000
  H   H8        1.0  0.06134  0.47609  0.36898  1.0000
  H   H9        1.0  0.65738  0.34899  0.71991  1.0000
  H   H10       1.0  0.34263  0.65100  0.28009  1.0000
  H   H11       1.0  0.26940  0.40190  0.91061  1.0000
  H   H12       1.0  0.73060  0.59810  0.08939  1.0000
  H   H13       1.0  0.30493  0.20024  0.43356  1.0000
  H   H14       1.0  0.69507  0.79976  0.56643  1.0000
  H   H15       1.0  0.28026  0.96806  0.57514  1.0000
  H   H16       1.0  0.71973  0.03196  0.42485  1.0000
  H   H17       1.0  0.98071  0.13848  0.58558  1.0000
  H   H18       1.0  0.01929  0.86153  0.41441  1.0000
  H   H19       1.0  0.01658  0.19638  0.36614  1.0000
  H   H20       1.0  0.98342  0.80363  0.63385  1.0000
  C   C1        1.0  0.80284  0.12244  0.05928  1.0000
  C   C2        1.0  0.19716  0.87756  0.94072  1.0000
  C   C3        1.0  0.96121  0.21409  0.02003  1.0000
  C   C4        1.0  0.03878  0.78591  0.97998  1.0000
  C   C5        1.0  0.01922  0.35815  0.86126  1.0000
  C   C6        1.0  0.98079  0.64185  0.13873  1.0000
  C   C7        1.0  0.90391  0.40996  0.75358  1.0000
  C   C8        1.0  0.09609  0.59004  0.24642  1.0000
  C   C9        1.0  0.74675  0.31325  0.80232  1.0000
  C   C10       1.0  0.25325  0.68675  0.19767  1.0000
  C   C11       1.0  0.19333  0.44309  0.81510  1.0000
  C   C12       1.0  0.80668  0.55690  0.18490  1.0000
  C   C13       1.0  0.35681  0.01208  0.31118  1.0000
  C   C14       1.0  0.64319  0.98792  0.68882  1.0000
  C   C15       1.0  0.24991  0.06820  0.45878  1.0000
  C   C16       1.0  0.75008  0.93180  0.54122  1.0000
  C   C17       1.0  0.04421  0.08898  0.48093  1.0000
  C   C18       1.0  0.95579  0.91102  0.51906  1.0000
  N   N1        1.0  0.69840  0.16783  0.95158  1.0000
  N   N2        1.0  0.30161  0.83216  0.04842  1.0000
  N   N3        1.0  0.25549  0.56235  0.66256  1.0000
  N   N4        1.0  0.74451  0.43765  0.33744  1.0000
  O   O1        1.0  0.42099  0.62964  0.63629  1.0000
  O   O2        1.0  0.57901  0.37035  0.36372  1.0000
  O   O3        1.0  0.46997  0.87765  0.33155  1.0000
  O   O4        1.0  0.53003  0.12235  0.66845  1.0000
  O   O5        1.0  0.33092  0.10767  0.16440  1.0000
  O   O6        1.0  0.66908  0.89232  0.83560  1.0000
