data_image0
_chemical_formula_structural       Cu5H16C20N6O12
_chemical_formula_sum              "Cu5 H16 C20 N6 O12"
_cell_length_a       8.36111
_cell_length_b       8.30614
_cell_length_c       10.1614
_cell_angle_alpha    114.287
_cell_angle_beta     94.3747
_cell_angle_gamma    94.3889

_space_group_name_H-M_alt    "P 1"
_space_group_IT_number       1

loop_
  _space_group_symop_operation_xyz
  'x, y, z'

loop_
  _atom_site_type_symbol
  _atom_site_label
  _atom_site_symmetry_multiplicity
  _atom_site_fract_x
  _atom_site_fract_y
  _atom_site_fract_z
  _atom_site_occupancy
  Cu  Cu1       1.0  0.28933  0.23080  0.61288  1.0000
  Cu  Cu2       1.0  0.70778  0.76975  0.38735  1.0000
  Cu  Cu3       1.0  0.11432  0.84931  0.49441  1.0000
  Cu  Cu4       1.0  0.88937  0.15040  0.50468  1.0000
  Cu  Cu5       1.0  0.50181  0.50040  0.50018  1.0000
  H   H1        1.0  0.57782  0.28167  0.59915  1.0000
  H   H2        1.0  0.42345  0.71993  0.40646  1.0000
  H   H3        1.0  0.03604  0.19881  0.72936  1.0000
  H   H4        1.0  0.95888  0.80148  0.27186  1.0000
  H   H5        1.0  0.90141  0.32415  0.25818  1.0000
  H   H6        1.0  0.09971  0.67821  0.74083  1.0000
  H   H7        1.0  0.19892  0.50669  0.26118  1.0000
  H   H8        1.0  0.80283  0.49285  0.73820  1.0000
  H   H9        1.0  0.91669  0.05455  0.95805  1.0000
  H   H10       1.0  0.08388  0.94646  0.04187  1.0000
  H   H11       1.0  0.83267  0.83564  0.05768  1.0000
  H   H12       1.0  0.16886  0.16488  0.94206  1.0000
  H   H13       1.0  0.55600  0.66776  0.97813  1.0000
  H   H14       1.0  0.44557  0.33274  0.02305  1.0000
  H   H15       1.0  0.36671  0.72968  0.80867  1.0000
  H   H16       1.0  0.63419  0.26918  0.19158  1.0000
  C   C1        1.0  0.01607  0.34592  0.32356  1.0000
  C   C2        1.0  0.98443  0.65609  0.67630  1.0000
  C   C3        1.0  0.16332  0.43707  0.32598  1.0000
  C   C4        1.0  0.83765  0.56397  0.67419  1.0000
  C   C5        1.0  0.53566  0.92230  0.78658  1.0000
  C   C6        1.0  0.46517  0.07604  0.21307  1.0000
  C   C7        1.0  0.69391  0.01176  0.82564  1.0000
  C   C8        1.0  0.30638  0.98780  0.17393  1.0000
  C   C9        1.0  0.79667  0.98063  0.92590  1.0000
  C   C10       1.0  0.20412  0.01973  0.07375  1.0000
  C   C11       1.0  0.74895  0.85865  0.98124  1.0000
  C   C12       1.0  0.25227  0.14164  0.01860  1.0000
  C   C13       1.0  0.59506  0.76382  0.93621  1.0000
  C   C14       1.0  0.40623  0.23606  0.06423  1.0000
  C   C15       1.0  0.48939  0.79728  0.84033  1.0000
  C   C16       1.0  0.51154  0.20158  0.15975  1.0000
  C   C17       1.0  0.40726  0.96717  0.70139  1.0000
  C   C18       1.0  0.59456  0.03121  0.29760  1.0000
  C   C19       1.0  0.77091  0.12794  0.76030  1.0000
  C   C20       1.0  0.22528  0.87427  0.23948  1.0000
  N   N1        1.0  0.26743  0.42098  0.42779  1.0000
  N   N2        1.0  0.73259  0.58024  0.57311  1.0000
  N   N3        1.0  0.18858  0.32776  0.48555  1.0000
  N   N4        1.0  0.81204  0.67559  0.51610  1.0000
  N   N5        1.0  0.03603  0.27942  0.42435  1.0000
  N   N6        1.0  0.96251  0.72313  0.57614  1.0000
  O   O1        1.0  0.30038  0.83917  0.61980  1.0000
  O   O2        1.0  0.70303  0.15723  0.37709  1.0000
  O   O3        1.0  0.41182  0.13010  0.72411  1.0000
  O   O4        1.0  0.58918  0.86761  0.27506  1.0000
  O   O5        1.0  0.73089  0.08257  0.62221  1.0000
  O   O6        1.0  0.26471  0.92081  0.37795  1.0000
  O   O7        1.0  0.87925  0.25101  0.83879  1.0000
  O   O8        1.0  0.11462  0.75426  0.16149  1.0000
  O   O9        1.0  0.48765  0.35103  0.60122  1.0000
  O   O10       1.0  0.50954  0.64294  0.39196  1.0000
  O   O11       1.0  0.07479  0.14358  0.63216  1.0000
  O   O12       1.0  0.92389  0.84631  0.37128  1.0000
