data_image0
_chemical_formula_structural       Cu2H48C48N24Cl4
_chemical_formula_sum              "Cu2 H48 C48 N24 Cl4"
_cell_length_a       7.59041
_cell_length_b       8.46432
_cell_length_c       21.327
_cell_angle_alpha    90
_cell_angle_beta     90
_cell_angle_gamma    106.517

_space_group_name_H-M_alt    "P 1"
_space_group_IT_number       1

loop_
  _space_group_symop_operation_xyz
  'x, y, z'

loop_
  _atom_site_type_symbol
  _atom_site_label
  _atom_site_symmetry_multiplicity
  _atom_site_fract_x
  _atom_site_fract_y
  _atom_site_fract_z
  _atom_site_occupancy
  Cu  Cu1       1.0  0.50000  0.50000  0.50000  1.0000
  Cu  Cu2       1.0  0.50000  0.00000  1.00000  1.0000
  H   H1        1.0  0.84518  0.37839  0.44059  1.0000
  H   H2        1.0  0.15482  0.12160  0.94059  1.0000
  H   H3        1.0  0.15482  0.62160  0.55941  1.0000
  H   H4        1.0  0.84518  0.87840  0.05941  1.0000
  H   H5        1.0  0.34454  0.39814  0.35934  1.0000
  H   H6        1.0  0.65546  0.10186  0.85934  1.0000
  H   H7        1.0  0.65546  0.60186  0.64067  1.0000
  H   H8        1.0  0.34454  0.89815  0.14066  1.0000
  H   H9        1.0  0.74826  0.07365  0.32100  1.0000
  H   H10       1.0  0.25174  0.42635  0.82100  1.0000
  H   H11       1.0  0.25174  0.92635  0.67900  1.0000
  H   H12       1.0  0.74826  0.57365  0.17900  1.0000
  H   H13       1.0  0.93472  0.20467  0.36396  1.0000
  H   H14       1.0  0.06529  0.29533  0.86396  1.0000
  H   H15       1.0  0.06528  0.79533  0.63604  1.0000
  H   H16       1.0  0.93471  0.70467  0.13604  1.0000
  H   H17       1.0  0.72690  0.09876  0.20937  1.0000
  H   H18       1.0  0.27310  0.40124  0.70937  1.0000
  H   H19       1.0  0.27310  0.90124  0.79063  1.0000
  H   H20       1.0  0.72690  0.59877  0.29063  1.0000
  H   H21       1.0  0.88137  0.21119  0.10877  1.0000
  H   H22       1.0  0.11863  0.28880  0.60877  1.0000
  H   H23       1.0  0.11863  0.78880  0.89123  1.0000
  H   H24       1.0  0.88137  0.71120  0.39123  1.0000
  H   H25       1.0  0.28810  0.57804  0.21206  1.0000
  H   H26       1.0  0.71190  0.92196  0.71206  1.0000
  H   H27       1.0  0.71189  0.42196  0.78794  1.0000
  H   H28       1.0  0.28811  0.07804  0.28794  1.0000
  H   H29       1.0  0.13003  0.46805  0.31164  1.0000
  H   H30       1.0  0.86997  0.03196  0.81165  1.0000
  H   H31       1.0  0.86997  0.53195  0.68836  1.0000
  H   H32       1.0  0.13003  0.96805  0.18836  1.0000
  H   H33       1.0  0.08704  0.43860  0.05425  1.0000
  H   H34       1.0  0.91296  0.06140  0.55425  1.0000
  H   H35       1.0  0.91296  0.56141  0.94575  1.0000
  H   H36       1.0  0.08704  0.93859  0.44575  1.0000
  H   H37       1.0  0.25804  0.59471  0.09334  1.0000
  H   H38       1.0  0.74196  0.90529  0.59334  1.0000
  H   H39       1.0  0.74196  0.40529  0.90666  1.0000
  H   H40       1.0  0.25804  0.09471  0.40666  1.0000
  H   H41       1.0  0.16414  0.13573  0.04925  1.0000
  H   H42       1.0  0.83586  0.36427  0.54925  1.0000
  H   H43       1.0  0.83586  0.86427  0.95075  1.0000
  H   H44       1.0  0.16414  0.63573  0.45075  1.0000
  H   H45       1.0  0.73320  0.36741  0.04999  1.0000
  H   H46       1.0  0.26680  0.13259  0.54999  1.0000
  H   H47       1.0  0.26680  0.63259  0.95001  1.0000
  H   H48       1.0  0.73320  0.86741  0.45001  1.0000
  C   C1        1.0  0.72761  0.36675  0.40970  1.0000
  C   C2        1.0  0.27239  0.13325  0.90970  1.0000
  C   C3        1.0  0.27239  0.63325  0.59030  1.0000
  C   C4        1.0  0.72761  0.86675  0.09030  1.0000
  C   C5        1.0  0.47657  0.37508  0.36601  1.0000
  C   C6        1.0  0.52344  0.12492  0.86601  1.0000
  C   C7        1.0  0.52344  0.62492  0.63399  1.0000
  C   C8        1.0  0.47657  0.87508  0.13399  1.0000
  C   C9        1.0  0.83158  0.20181  0.32744  1.0000
  C   C10       1.0  0.16842  0.29819  0.82743  1.0000
  C   C11       1.0  0.16842  0.79819  0.67257  1.0000
  C   C12       1.0  0.83158  0.70181  0.17256  1.0000
  C   C13       1.0  0.92082  0.27408  0.26684  1.0000
  C   C14       1.0  0.07918  0.22592  0.76684  1.0000
  C   C15       1.0  0.07918  0.72592  0.73316  1.0000
  C   C16       1.0  0.92082  0.77408  0.23316  1.0000
  C   C17       1.0  0.84946  0.20410  0.20957  1.0000
  C   C18       1.0  0.15054  0.29590  0.70957  1.0000
  C   C19       1.0  0.15054  0.79590  0.79043  1.0000
  C   C20       1.0  0.84945  0.70410  0.29043  1.0000
  C   C21       1.0  0.93579  0.26689  0.15352  1.0000
  C   C22       1.0  0.06421  0.23310  0.65352  1.0000
  C   C23       1.0  0.06421  0.73310  0.84648  1.0000
  C   C24       1.0  0.93579  0.76690  0.34648  1.0000
  C   C25       1.0  0.09473  0.40074  0.15396  1.0000
  C   C26       1.0  0.90527  0.09925  0.65396  1.0000
  C   C27       1.0  0.90526  0.59925  0.84604  1.0000
  C   C28       1.0  0.09473  0.90075  0.34604  1.0000
  C   C29       1.0  0.16513  0.47287  0.21123  1.0000
  C   C30       1.0  0.83487  0.02713  0.71123  1.0000
  C   C31       1.0  0.83487  0.52713  0.78877  1.0000
  C   C32       1.0  0.16513  0.97287  0.28877  1.0000
  C   C33       1.0  0.07751  0.40992  0.26710  1.0000
  C   C34       1.0  0.92249  0.09008  0.76710  1.0000
  C   C35       1.0  0.92249  0.59008  0.73290  1.0000
  C   C36       1.0  0.07751  0.90992  0.23290  1.0000
  C   C37       1.0  0.18791  0.46254  0.09258  1.0000
  C   C38       1.0  0.81209  0.03746  0.59258  1.0000
  C   C39       1.0  0.81209  0.53745  0.90742  1.0000
  C   C40       1.0  0.18791  0.96254  0.40742  1.0000
  C   C41       1.0  0.29782  0.22447  0.05578  1.0000
  C   C42       1.0  0.70219  0.27553  0.55578  1.0000
  C   C43       1.0  0.70218  0.77553  0.94422  1.0000
  C   C44       1.0  0.29782  0.72447  0.44422  1.0000
  C   C45       1.0  0.58674  0.34654  0.05676  1.0000
  C   C46       1.0  0.41326  0.15346  0.55676  1.0000
  C   C47       1.0  0.41326  0.65346  0.94324  1.0000
  C   C48       1.0  0.58674  0.84654  0.44324  1.0000
  N   N1        1.0  0.57974  0.42030  0.41895  1.0000
  N   N2        1.0  0.42027  0.07971  0.91894  1.0000
  N   N3        1.0  0.42026  0.57970  0.58106  1.0000
  N   N4        1.0  0.57974  0.92030  0.08106  1.0000
  N   N5        1.0  0.55221  0.29628  0.32480  1.0000
  N   N6        1.0  0.44779  0.20372  0.82480  1.0000
  N   N7        1.0  0.44779  0.70372  0.67520  1.0000
  N   N8        1.0  0.55221  0.79628  0.17520  1.0000
  N   N9        1.0  0.71104  0.29246  0.35369  1.0000
  N   N10       1.0  0.28895  0.20754  0.85369  1.0000
  N   N11       1.0  0.28895  0.70754  0.64631  1.0000
  N   N12       1.0  0.71105  0.79246  0.14631  1.0000
  N   N13       1.0  0.32687  0.37997  0.07574  1.0000
  N   N14       1.0  0.67314  0.12003  0.57574  1.0000
  N   N15       1.0  0.67314  0.62003  0.92426  1.0000
  N   N16       1.0  0.32686  0.87997  0.42426  1.0000
  N   N17       1.0  0.46073  0.19967  0.04320  1.0000
  N   N18       1.0  0.53927  0.30033  0.54320  1.0000
  N   N19       1.0  0.53927  0.80033  0.95680  1.0000
  N   N20       1.0  0.46073  0.69967  0.45680  1.0000
  N   N21       1.0  0.51021  0.45981  0.07712  1.0000
  N   N22       1.0  0.48980  0.04019  0.57713  1.0000
  N   N23       1.0  0.48979  0.54019  0.92287  1.0000
  N   N24       1.0  0.51020  0.95981  0.42288  1.0000
  Cl  Cl1       1.0  0.87788  0.67927  0.52474  1.0000
  Cl  Cl2       1.0  0.12212  0.82074  0.02473  1.0000
  Cl  Cl3       1.0  0.12212  0.32074  0.47527  1.0000
  Cl  Cl4       1.0  0.87788  0.17926  0.97527  1.0000
