data_image0
_chemical_formula_structural       Cd4H40C8S4N40O24
_chemical_formula_sum              "Cd4 H40 C8 S4 N40 O24"
_cell_length_a       11.3628
_cell_length_b       11.2471
_cell_length_c       12.5307
_cell_angle_alpha    103.741
_cell_angle_beta     110.592
_cell_angle_gamma    111.845

_space_group_name_H-M_alt    "P 1"
_space_group_IT_number       1

loop_
  _space_group_symop_operation_xyz
  'x, y, z'

loop_
  _atom_site_type_symbol
  _atom_site_label
  _atom_site_symmetry_multiplicity
  _atom_site_fract_x
  _atom_site_fract_y
  _atom_site_fract_z
  _atom_site_occupancy
  Cd  Cd1       1.0  0.67376  0.80236  0.41302  1.0000
  Cd  Cd2       1.0  0.89180  0.26175  0.08798  1.0000
  Cd  Cd3       1.0  0.32624  0.19764  0.58699  1.0000
  Cd  Cd4       1.0  0.10820  0.73825  0.91202  1.0000
  H   H1        1.0  0.47474  0.57332  0.42042  1.0000
  H   H2        1.0  0.65155  0.04917  0.07345  1.0000
  H   H3        1.0  0.52525  0.42668  0.57958  1.0000
  H   H4        1.0  0.34845  0.95083  0.92655  1.0000
  H   H5        1.0  0.95332  0.06745  0.56453  1.0000
  H   H6        1.0  0.99983  0.38385  0.93586  1.0000
  H   H7        1.0  0.04668  0.93255  0.43547  1.0000
  H   H8        1.0  0.00017  0.61615  0.06414  1.0000
  H   H9        1.0  0.61323  0.55439  0.43851  1.0000
  H   H10       1.0  0.61549  0.17076  0.05475  1.0000
  H   H11       1.0  0.38677  0.44561  0.56150  1.0000
  H   H12       1.0  0.38451  0.82924  0.94525  1.0000
  H   H13       1.0  0.89213  0.07517  0.43288  1.0000
  H   H14       1.0  0.14629  0.45565  0.06408  1.0000
  H   H15       1.0  0.10787  0.92483  0.56712  1.0000
  H   H16       1.0  0.85371  0.54435  0.93592  1.0000
  H   H17       1.0  0.71037  0.54301  0.02025  1.0000
  H   H18       1.0  0.02553  0.69477  0.48287  1.0000
  H   H19       1.0  0.28963  0.45699  0.97975  1.0000
  H   H20       1.0  0.97447  0.30522  0.51713  1.0000
  H   H21       1.0  0.52967  0.38258  0.08055  1.0000
  H   H22       1.0  0.80132  0.44632  0.41357  1.0000
  H   H23       1.0  0.47033  0.61742  0.91945  1.0000
  H   H24       1.0  0.19868  0.55368  0.58643  1.0000
  H   H25       1.0  0.51564  0.47082  0.20868  1.0000
  H   H26       1.0  0.76120  0.30230  0.28409  1.0000
  H   H27       1.0  0.48436  0.52918  0.79132  1.0000
  H   H28       1.0  0.23880  0.69770  0.71592  1.0000
  H   H29       1.0  0.46069  0.97294  0.70168  1.0000
  H   H30       1.0  0.76860  0.75290  0.79149  1.0000
  H   H31       1.0  0.53931  0.02706  0.29832  1.0000
  H   H32       1.0  0.23140  0.24710  0.20851  1.0000
  H   H33       1.0  0.75605  0.11866  0.61960  1.0000
  H   H34       1.0  0.99705  0.14073  0.88415  1.0000
  H   H35       1.0  0.24395  0.88133  0.38039  1.0000
  H   H36       1.0  0.00295  0.85927  0.11585  1.0000
  H   H37       1.0  0.70258  0.16307  0.73056  1.0000
  H   H38       1.0  0.93118  0.97382  0.77089  1.0000
  H   H39       1.0  0.29742  0.83693  0.26943  1.0000
  H   H40       1.0  0.06882  0.02618  0.22911  1.0000
  C   C1        1.0  0.67237  0.59344  0.17853  1.0000
  C   C2        1.0  0.91561  0.49467  0.32163  1.0000
  C   C3        1.0  0.32763  0.40656  0.82148  1.0000
  C   C4        1.0  0.08440  0.50533  0.67837  1.0000
  C   C5        1.0  0.58432  0.95607  0.61055  1.0000
  C   C6        1.0  0.84527  0.97224  0.88739  1.0000
  C   C7        1.0  0.41568  0.04393  0.38944  1.0000
  C   C8        1.0  0.15473  0.02776  0.11261  1.0000
  S   S1        1.0  0.39219  0.72691  0.12584  1.0000
  S   S2        1.0  0.10095  0.26689  0.37569  1.0000
  S   S3        1.0  0.60781  0.27309  0.87416  1.0000
  S   S4        1.0  0.89905  0.73311  0.62431  1.0000
  N   N1        1.0  0.74582  0.71714  0.28175  1.0000
  N   N2        1.0  0.93615  0.46545  0.22061  1.0000
  N   N3        1.0  0.25418  0.28286  0.71825  1.0000
  N   N4        1.0  0.06384  0.53455  0.77939  1.0000
  N   N5        1.0  0.85605  0.80853  0.27137  1.0000
  N   N6        1.0  0.04006  0.58929  0.23602  1.0000
  N   N7        1.0  0.14395  0.19147  0.72864  1.0000
  N   N8        1.0  0.95994  0.41071  0.76398  1.0000
  N   N9        1.0  0.85319  0.74761  0.16877  1.0000
  N   N10       1.0  0.08283  0.69058  0.33943  1.0000
  N   N11       1.0  0.14681  0.25240  0.83123  1.0000
  N   N12       1.0  0.91717  0.30942  0.66057  1.0000
  N   N13       1.0  0.73947  0.61383  0.10865  1.0000
  N   N14       1.0  0.00789  0.63489  0.39506  1.0000
  N   N15       1.0  0.26053  0.38616  0.89136  1.0000
  N   N16       1.0  0.99211  0.36511  0.60494  1.0000
  N   N17       1.0  0.55763  0.47412  0.14912  1.0000
  N   N18       1.0  0.82404  0.40634  0.34599  1.0000
  N   N19       1.0  0.44237  0.52588  0.85088  1.0000
  N   N20       1.0  0.17596  0.59366  0.65401  1.0000
  N   N21       1.0  0.56322  0.83941  0.52724  1.0000
  N   N22       1.0  0.81289  0.03413  0.97004  1.0000
  N   N23       1.0  0.43678  0.16058  0.47275  1.0000
  N   N24       1.0  0.18711  0.96587  0.02996  1.0000
  N   N25       1.0  0.45170  0.72624  0.51760  1.0000
  N   N26       1.0  0.70962  0.92871  0.97608  1.0000
  N   N27       1.0  0.54830  0.27376  0.48240  1.0000
  N   N28       1.0  0.29038  0.07129  0.02392  1.0000
  N   N29       1.0  0.40304  0.76656  0.58929  1.0000
  N   N30       1.0  0.67751  0.80644  0.90270  1.0000
  N   N31       1.0  0.59696  0.23343  0.41070  1.0000
  N   N32       1.0  0.32249  0.19356  0.09730  1.0000
  N   N33       1.0  0.48489  0.91040  0.64911  1.0000
  N   N34       1.0  0.76066  0.83074  0.84558  1.0000
  N   N35       1.0  0.51511  0.08960  0.35088  1.0000
  N   N36       1.0  0.23934  0.16927  0.15442  1.0000
  N   N37       1.0  0.68047  0.09036  0.64862  1.0000
  N   N38       1.0  0.94123  0.03371  0.85291  1.0000
  N   N39       1.0  0.31953  0.90964  0.35137  1.0000
  N   N40       1.0  0.05878  0.96629  0.14709  1.0000
  O   O1        1.0  0.33932  0.58120  0.11988  1.0000
  O   O2        1.0  0.96058  0.21680  0.37745  1.0000
  O   O3        1.0  0.66068  0.41880  0.88012  1.0000
  O   O4        1.0  0.03942  0.78320  0.62255  1.0000
  O   O5        1.0  0.51948  0.83343  0.25298  1.0000
  O   O6        1.0  0.08060  0.26856  0.25117  1.0000
  O   O7        1.0  0.48053  0.16656  0.74702  1.0000
  O   O8        1.0  0.91941  0.73144  0.74884  1.0000
  O   O9        1.0  0.43350  0.73552  0.02667  1.0000
  O   O10       1.0  0.21055  0.41054  0.47864  1.0000
  O   O11       1.0  0.56650  0.26448  0.97333  1.0000
  O   O12       1.0  0.78945  0.58946  0.52136  1.0000
  O   O13       1.0  0.27461  0.76358  0.10855  1.0000
  O   O14       1.0  0.15465  0.16532  0.39089  1.0000
  O   O15       1.0  0.72539  0.23642  0.89145  1.0000
  O   O16       1.0  0.84535  0.83468  0.60911  1.0000
  O   O17       1.0  0.86305  0.03413  0.48708  1.0000
  O   O18       1.0  0.04722  0.37195  0.01189  1.0000
  O   O19       1.0  0.13695  0.96587  0.51293  1.0000
  O   O20       1.0  0.95279  0.62805  0.98811  1.0000
  O   O21       1.0  0.52859  0.55512  0.37783  1.0000
  O   O22       1.0  0.67700  0.14779  0.11604  1.0000
  O   O23       1.0  0.47141  0.44488  0.62217  1.0000
  O   O24       1.0  0.32300  0.85222  0.88396  1.0000
