data_image0
_chemical_formula_structural       Cd10H20C8S4N40O20
_chemical_formula_sum              "Cd10 H20 C8 S4 N40 O20"
_cell_length_a       8.86875
_cell_length_b       9.64853
_cell_length_c       13.3436
_cell_angle_alpha    90
_cell_angle_beta     102.945
_cell_angle_gamma    90

_space_group_name_H-M_alt    "P 1"
_space_group_IT_number       1

loop_
  _space_group_symop_operation_xyz
  'x, y, z'

loop_
  _atom_site_type_symbol
  _atom_site_label
  _atom_site_symmetry_multiplicity
  _atom_site_fract_x
  _atom_site_fract_y
  _atom_site_fract_z
  _atom_site_occupancy
  Cd  Cd1       1.0  0.39024  0.60946  0.09449  1.0000
  Cd  Cd2       1.0  0.60976  0.10946  0.40551  1.0000
  Cd  Cd3       1.0  0.60976  0.39054  0.90551  1.0000
  Cd  Cd4       1.0  0.39024  0.89054  0.59449  1.0000
  Cd  Cd5       1.0  1.00000  0.50000  0.00000  1.0000
  Cd  Cd6       1.0  1.00000  1.00000  0.50000  1.0000
  Cd  Cd7       1.0  0.75765  0.74039  0.80448  1.0000
  Cd  Cd8       1.0  0.24235  0.24038  0.69552  1.0000
  Cd  Cd9       1.0  0.24235  0.25962  0.19552  1.0000
  Cd  Cd10      1.0  0.75765  0.75961  0.30448  1.0000
  H   H1        1.0  0.83986  0.46504  0.80154  1.0000
  H   H2        1.0  0.16014  0.96504  0.69846  1.0000
  H   H3        1.0  0.16014  0.53496  0.19846  1.0000
  H   H4        1.0  0.83986  0.03496  0.30154  1.0000
  H   H5        1.0  0.38140  0.01486  0.88170  1.0000
  H   H6        1.0  0.61860  0.51486  0.61830  1.0000
  H   H7        1.0  0.61860  0.98514  0.11830  1.0000
  H   H8        1.0  0.38140  0.48514  0.38170  1.0000
  H   H9        1.0  0.50145  0.87542  0.93323  1.0000
  H   H10       1.0  0.49854  0.37542  0.56677  1.0000
  H   H11       1.0  0.49854  0.12458  0.06677  1.0000
  H   H12       1.0  0.50146  0.62458  0.43323  1.0000
  H   H13       1.0  0.02878  0.52004  0.61737  1.0000
  H   H14       1.0  0.97123  0.02004  0.88263  1.0000
  H   H15       1.0  0.97123  0.47996  0.38263  1.0000
  H   H16       1.0  0.02877  0.97996  0.11737  1.0000
  H   H17       1.0  0.05203  0.69050  0.59613  1.0000
  H   H18       1.0  0.94798  0.19050  0.90387  1.0000
  H   H19       1.0  0.94798  0.30950  0.40387  1.0000
  H   H20       1.0  0.05202  0.80950  0.09613  1.0000
  C   C1        1.0  0.26632  0.83674  0.89558  1.0000
  C   C2        1.0  0.73367  0.33674  0.60442  1.0000
  C   C3        1.0  0.73367  0.16326  0.10442  1.0000
  C   C4        1.0  0.26632  0.66327  0.39558  1.0000
  C   C5        1.0  0.24516  0.58994  0.67283  1.0000
  C   C6        1.0  0.75483  0.08995  0.82717  1.0000
  C   C7        1.0  0.75483  0.41005  0.32717  1.0000
  C   C8        1.0  0.24517  0.91005  0.17283  1.0000
  S   S1        1.0  0.72886  0.71993  0.04966  1.0000
  S   S2        1.0  0.27114  0.21992  0.45034  1.0000
  S   S3        1.0  0.27114  0.28008  0.95034  1.0000
  S   S4        1.0  0.72886  0.78008  0.54966  1.0000
  N   N1        1.0  0.25727  0.71690  0.94729  1.0000
  N   N2        1.0  0.74273  0.21690  0.55271  1.0000
  N   N3        1.0  0.74273  0.28310  0.05271  1.0000
  N   N4        1.0  0.25727  0.78310  0.44729  1.0000
  N   N5        1.0  0.10883  0.67634  0.91796  1.0000
  N   N6        1.0  0.89117  0.17633  0.58204  1.0000
  N   N7        1.0  0.89117  0.32366  0.08205  1.0000
  N   N8        1.0  0.10883  0.82367  0.41796  1.0000
  N   N9        1.0  0.03140  0.76577  0.85250  1.0000
  N   N10       1.0  0.96860  0.26577  0.64750  1.0000
  N   N11       1.0  0.96860  0.23423  0.14750  1.0000
  N   N12       1.0  0.03140  0.73423  0.35250  1.0000
  N   N13       1.0  0.12547  0.86823  0.83503  1.0000
  N   N14       1.0  0.87452  0.36823  0.66496  1.0000
  N   N15       1.0  0.87453  0.13177  0.16497  1.0000
  N   N16       1.0  0.12547  0.63177  0.33503  1.0000
  N   N17       1.0  0.39425  0.91271  0.90105  1.0000
  N   N18       1.0  0.60575  0.41271  0.59894  1.0000
  N   N19       1.0  0.60575  0.08729  0.09894  1.0000
  N   N20       1.0  0.39425  0.58729  0.40105  1.0000
  N   N21       1.0  0.35220  0.69306  0.69041  1.0000
  N   N22       1.0  0.64781  0.19306  0.80959  1.0000
  N   N23       1.0  0.64781  0.30694  0.30959  1.0000
  N   N24       1.0  0.35219  0.80694  0.19041  1.0000
  N   N25       1.0  0.47395  0.64251  0.76037  1.0000
  N   N26       1.0  0.52605  0.14251  0.73963  1.0000
  N   N27       1.0  0.52605  0.35749  0.23963  1.0000
  N   N28       1.0  0.47395  0.85749  0.26037  1.0000
  N   N29       1.0  0.44378  0.51557  0.78231  1.0000
  N   N30       1.0  0.55623  0.01557  0.71769  1.0000
  N   N31       1.0  0.55623  0.48443  0.21769  1.0000
  N   N32       1.0  0.44377  0.98443  0.28231  1.0000
  N   N33       1.0  0.30203  0.47744  0.72954  1.0000
  N   N34       1.0  0.69797  0.97744  0.77046  1.0000
  N   N35       1.0  0.69797  0.52256  0.27046  1.0000
  N   N36       1.0  0.30203  0.02256  0.22954  1.0000
  N   N37       1.0  0.10462  0.59577  0.60754  1.0000
  N   N38       1.0  0.89538  0.09577  0.89245  1.0000
  N   N39       1.0  0.89538  0.40423  0.39245  1.0000
  N   N40       1.0  0.10462  0.90423  0.10754  1.0000
  O   O1        1.0  0.61954  0.60169  0.02025  1.0000
  O   O2        1.0  0.38046  0.10169  0.47975  1.0000
  O   O3        1.0  0.38046  0.39831  0.97975  1.0000
  O   O4        1.0  0.61954  0.89831  0.52025  1.0000
  O   O5        1.0  0.71821  0.81591  0.96087  1.0000
  O   O6        1.0  0.28179  0.31591  0.53913  1.0000
  O   O7        1.0  0.28179  0.18409  0.03913  1.0000
  O   O8        1.0  0.71821  0.68409  0.46087  1.0000
  O   O9        1.0  0.88981  0.66960  0.08721  1.0000
  O   O10       1.0  0.11019  0.16960  0.41279  1.0000
  O   O11       1.0  0.11019  0.33040  0.91279  1.0000
  O   O12       1.0  0.88981  0.83040  0.58721  1.0000
  O   O13       1.0  0.68058  0.80073  0.13292  1.0000
  O   O14       1.0  0.31941  0.30073  0.36709  1.0000
  O   O15       1.0  0.31942  0.19927  0.86708  1.0000
  O   O16       1.0  0.68058  0.69927  0.63291  1.0000
  O   O17       1.0  0.80406  0.51393  0.85684  1.0000
  O   O18       1.0  0.19594  0.01393  0.64316  1.0000
  O   O19       1.0  0.19594  0.48608  0.14316  1.0000
  O   O20       1.0  0.80406  0.98607  0.35684  1.0000
