data_image0
_chemical_formula_structural       Cd2H12C4N20Cl4
_chemical_formula_sum              "Cd2 H12 C4 N20 Cl4"
_cell_length_a       3.78709
_cell_length_b       7.82718
_cell_length_c       16.6404
_cell_angle_alpha    89.9999
_cell_angle_beta     89.9999
_cell_angle_gamma    96.7571

_space_group_name_H-M_alt    "P 1"
_space_group_IT_number       1

loop_
  _space_group_symop_operation_xyz
  'x, y, z'

loop_
  _atom_site_type_symbol
  _atom_site_label
  _atom_site_symmetry_multiplicity
  _atom_site_fract_x
  _atom_site_fract_y
  _atom_site_fract_z
  _atom_site_occupancy
  Cd  Cd1       1.0  0.00000  0.00000  0.00000  1.0000
  Cd  Cd2       1.0  0.50000  0.50000  0.50000  1.0000
  H   H1        1.0  0.72546  0.37705  0.05302  1.0000
  H   H2        1.0  0.77454  0.12296  0.55303  1.0000
  H   H3        1.0  0.27454  0.62295  0.94698  1.0000
  H   H4        1.0  0.22546  0.87704  0.44697  1.0000
  H   H5        1.0  0.70147  0.50911  0.13891  1.0000
  H   H6        1.0  0.79853  0.99089  0.63891  1.0000
  H   H7        1.0  0.29853  0.49089  0.86109  1.0000
  H   H8        1.0  0.20147  0.00911  0.36109  1.0000
  H   H9        1.0  0.85464  0.36630  0.27878  1.0000
  H   H10       1.0  0.64536  0.13370  0.77878  1.0000
  H   H11       1.0  0.14536  0.63370  0.72122  1.0000
  H   H12       1.0  0.35464  0.86630  0.22122  1.0000
  C   C1        1.0  0.90978  0.28255  0.15565  1.0000
  C   C2        1.0  0.59021  0.21745  0.65565  1.0000
  C   C3        1.0  0.09022  0.71745  0.84435  1.0000
  C   C4        1.0  0.40979  0.78255  0.34435  1.0000
  N   N1        1.0  0.79391  0.40630  0.11137  1.0000
  N   N2        1.0  0.70610  0.09369  0.61137  1.0000
  N   N3        1.0  0.20609  0.59370  0.88863  1.0000
  N   N4        1.0  0.29390  0.90631  0.38863  1.0000
  N   N5        1.0  0.94300  0.28110  0.23699  1.0000
  N   N6        1.0  0.55700  0.21890  0.73699  1.0000
  N   N7        1.0  0.05700  0.71890  0.76301  1.0000
  N   N8        1.0  0.44300  0.78110  0.26301  1.0000
  N   N9        1.0  0.08027  0.13640  0.25917  1.0000
  N   N10       1.0  0.41974  0.36359  0.75918  1.0000
  N   N11       1.0  0.91973  0.86359  0.74082  1.0000
  N   N12       1.0  0.58027  0.63641  0.24082  1.0000
  N   N13       1.0  0.12911  0.05254  0.19398  1.0000
  N   N14       1.0  0.37088  0.44746  0.69398  1.0000
  N   N15       1.0  0.87089  0.94746  0.80602  1.0000
  N   N16       1.0  0.62912  0.55254  0.30602  1.0000
  N   N17       1.0  0.02815  0.13657  0.12842  1.0000
  N   N18       1.0  0.47186  0.36343  0.62842  1.0000
  N   N19       1.0  0.97185  0.86343  0.87158  1.0000
  N   N20       1.0  0.52815  0.63657  0.37158  1.0000
  Cl  Cl1       1.0  0.55368  0.21110  0.94703  1.0000
  Cl  Cl2       1.0  0.94632  0.28890  0.44703  1.0000
  Cl  Cl3       1.0  0.44632  0.78890  0.05297  1.0000
  Cl  Cl4       1.0  0.05368  0.71110  0.55297  1.0000
