data_image0
_chemical_formula_structural       CoH30C44O18
_chemical_formula_sum              "Co1 H30 C44 O18"
_cell_length_a       9.17896
_cell_length_b       10.0065
_cell_length_c       10.4473
_cell_angle_alpha    84.09
_cell_angle_beta     76.8451
_cell_angle_gamma    71.0268

_space_group_name_H-M_alt    "P 1"
_space_group_IT_number       1

loop_
  _space_group_symop_operation_xyz
  'x, y, z'

loop_
  _atom_site_type_symbol
  _atom_site_label
  _atom_site_symmetry_multiplicity
  _atom_site_fract_x
  _atom_site_fract_y
  _atom_site_fract_z
  _atom_site_occupancy
  Co  Co1       1.0  1.00000  1.00000  0.50000  1.0000
  H   H1        1.0  0.03836  0.94828  0.09158  1.0000
  H   H2        1.0  0.96164  0.05172  0.90842  1.0000
  H   H3        1.0  0.39120  0.17669  0.47999  1.0000
  H   H4        1.0  0.60881  0.82331  0.52002  1.0000
  H   H5        1.0  0.09416  0.29384  0.71785  1.0000
  H   H6        1.0  0.90585  0.70616  0.28215  1.0000
  H   H7        1.0  0.76102  0.02329  0.43692  1.0000
  H   H8        1.0  0.23898  0.97670  0.56308  1.0000
  H   H9        1.0  0.87035  0.05540  0.30248  1.0000
  H   H10       1.0  0.12965  0.94460  0.69752  1.0000
  H   H11       1.0  0.41990  0.99028  0.73103  1.0000
  H   H12       1.0  0.58010  0.00972  0.26897  1.0000
  H   H13       1.0  0.41584  0.79021  0.11608  1.0000
  H   H14       1.0  0.58415  0.20979  0.88392  1.0000
  H   H15       1.0  0.70584  0.69610  0.06323  1.0000
  H   H16       1.0  0.29415  0.30390  0.93677  1.0000
  H   H17       1.0  0.91129  0.67464  0.63382  1.0000
  H   H18       1.0  0.08871  0.32536  0.36618  1.0000
  H   H19       1.0  0.19339  0.54936  0.58406  1.0000
  H   H20       1.0  0.80661  0.45064  0.41594  1.0000
  H   H21       1.0  0.21944  0.60172  0.98219  1.0000
  H   H22       1.0  0.78056  0.39828  0.01781  1.0000
  H   H23       1.0  0.93842  0.73267  0.03060  1.0000
  H   H24       1.0  0.06158  0.26733  0.96940  1.0000
  H   H25       1.0  0.69202  0.23538  0.56221  1.0000
  H   H26       1.0  0.30799  0.76461  0.43779  1.0000
  H   H27       1.0  0.73291  0.51760  0.82583  1.0000
  H   H28       1.0  0.26709  0.48240  0.17417  1.0000
  H   H29       1.0  0.44513  0.63098  0.86862  1.0000
  H   H30       1.0  0.55487  0.36902  0.13138  1.0000
  C   C1        1.0  0.72899  0.92939  0.64786  1.0000
  C   C2        1.0  0.27100  0.07061  0.35214  1.0000
  C   C3        1.0  0.64789  0.87738  0.77470  1.0000
  C   C4        1.0  0.35211  0.12262  0.22530  1.0000
  C   C5        1.0  0.48314  0.92418  0.80300  1.0000
  C   C6        1.0  0.51685  0.07582  0.19700  1.0000
  C   C7        1.0  0.39829  0.89182  0.92492  1.0000
  C   C8        1.0  0.60171  0.10818  0.07508  1.0000
  C   C9        1.0  0.22428  0.93846  0.95322  1.0000
  C   C10       1.0  0.77572  0.06154  0.04677  1.0000
  C   C11       1.0  0.48073  0.81353  0.02014  1.0000
  C   C12       1.0  0.51926  0.18647  0.97985  1.0000
  C   C13       1.0  0.64397  0.76185  0.99029  1.0000
  C   C14       1.0  0.35603  0.23815  0.00971  1.0000
  C   C15       1.0  0.73131  0.78881  0.86677  1.0000
  C   C16       1.0  0.26869  0.21119  0.13323  1.0000
  C   C17       1.0  0.90252  0.71563  0.83564  1.0000
  C   C18       1.0  0.09748  0.28437  0.16437  1.0000
  C   C19       1.0  0.97795  0.66011  0.71087  1.0000
  C   C20       1.0  0.02205  0.33989  0.28913  1.0000
  C   C21       1.0  0.13763  0.58681  0.68308  1.0000
  C   C22       1.0  0.86237  0.41319  0.31692  1.0000
  C   C23       1.0  0.22880  0.56419  0.77918  1.0000
  C   C24       1.0  0.77120  0.43581  0.22082  1.0000
  C   C25       1.0  0.15308  0.61852  0.90452  1.0000
  C   C26       1.0  0.84692  0.38148  0.09548  1.0000
  C   C27       1.0  0.99307  0.69217  0.93245  1.0000
  C   C28       1.0  0.00693  0.30783  0.06755  1.0000
  C   C29       1.0  0.39999  0.49155  0.74940  1.0000
  C   C30       1.0  0.60001  0.50845  0.25060  1.0000
  C   C31       1.0  0.47312  0.37728  0.66290  1.0000
  C   C32       1.0  0.52688  0.62273  0.33710  1.0000
  C   C33       1.0  0.38419  0.29496  0.62005  1.0000
  C   C34       1.0  0.61581  0.70504  0.37995  1.0000
  C   C35       1.0  0.63706  0.32053  0.63134  1.0000
  C   C36       1.0  0.36294  0.67947  0.36867  1.0000
  C   C37       1.0  0.73132  0.36730  0.69254  1.0000
  C   C38       1.0  0.26868  0.63270  0.30746  1.0000
  C   C39       1.0  0.90362  0.29731  0.66507  1.0000
  C   C40       1.0  0.09638  0.70269  0.33494  1.0000
  C   C41       1.0  0.66006  0.47842  0.78013  1.0000
  C   C42       1.0  0.33994  0.52158  0.21987  1.0000
  C   C43       1.0  0.49793  0.54074  0.80513  1.0000
  C   C44       1.0  0.50207  0.45926  0.19487  1.0000
  O   O1        1.0  0.85025  0.96471  0.64956  1.0000
  O   O2        1.0  0.14975  0.03529  0.35045  1.0000
  O   O3        1.0  0.66862  0.94078  0.54649  1.0000
  O   O4        1.0  0.33138  0.05922  0.45351  1.0000
  O   O5        1.0  0.14492  0.99770  0.86808  1.0000
  O   O6        1.0  0.85508  0.00230  0.13191  1.0000
  O   O7        1.0  0.15946  0.91210  0.07525  1.0000
  O   O8        1.0  0.84054  0.08790  0.92475  1.0000
  O   O9        1.0  0.43603  0.25432  0.49738  1.0000
  O   O10       1.0  0.56397  0.74568  0.50262  1.0000
  O   O11       1.0  0.27927  0.25921  0.69976  1.0000
  O   O12       1.0  0.72074  0.74079  0.30024  1.0000
  O   O13       1.0  0.97507  0.21227  0.57646  1.0000
  O   O14       1.0  0.02493  0.78774  0.42355  1.0000
  O   O15       1.0  0.97606  0.33659  0.74464  1.0000
  O   O16       1.0  0.02394  0.66341  0.25537  1.0000
  O   O17       1.0  0.83724  0.07767  0.39608  1.0000
  O   O18       1.0  0.16276  0.92233  0.60393  1.0000
