data_image0
_chemical_formula_structural       NiH30C44O18
_chemical_formula_sum              "Ni1 H30 C44 O18"
_cell_length_a       9.12509
_cell_length_b       9.92439
_cell_length_c       10.5542
_cell_angle_alpha    83.7081
_cell_angle_beta     77.2026
_cell_angle_gamma    71.4595

_space_group_name_H-M_alt    "P 1"
_space_group_IT_number       1

loop_
  _space_group_symop_operation_xyz
  'x, y, z'

loop_
  _atom_site_type_symbol
  _atom_site_label
  _atom_site_symmetry_multiplicity
  _atom_site_fract_x
  _atom_site_fract_y
  _atom_site_fract_z
  _atom_site_occupancy
  Ni  Ni1       1.0  0.50000  0.00000  0.50000  1.0000
  H   H1        1.0  0.46096  0.04930  0.90856  1.0000
  H   H2        1.0  0.53904  0.95069  0.09144  1.0000
  H   H3        1.0  0.10745  0.81541  0.52082  1.0000
  H   H4        1.0  0.89254  0.18460  0.47917  1.0000
  H   H5        1.0  0.40364  0.70459  0.27521  1.0000
  H   H6        1.0  0.59636  0.29541  0.72479  1.0000
  H   H7        1.0  0.26028  0.01855  0.43807  1.0000
  H   H8        1.0  0.73971  0.98146  0.56194  1.0000
  H   H9        1.0  0.36845  0.05075  0.30341  1.0000
  H   H10       1.0  0.63154  0.94925  0.69659  1.0000
  H   H11       1.0  0.08135  0.01073  0.26866  1.0000
  H   H12       1.0  0.91864  0.98927  0.73135  1.0000
  H   H13       1.0  0.08270  0.20705  0.88430  1.0000
  H   H14       1.0  0.91730  0.79294  0.11570  1.0000
  H   H15       1.0  0.79270  0.30137  0.93627  1.0000
  H   H16       1.0  0.20731  0.69862  0.06373  1.0000
  H   H17       1.0  0.58985  0.32327  0.36250  1.0000
  H   H18       1.0  0.41015  0.67674  0.63749  1.0000
  H   H19       1.0  0.30836  0.44700  0.41157  1.0000
  H   H20       1.0  0.69165  0.55301  0.58842  1.0000
  H   H21       1.0  0.27852  0.39941  0.01728  1.0000
  H   H22       1.0  0.72149  0.60059  0.98272  1.0000
  H   H23       1.0  0.55868  0.26849  0.96995  1.0000
  H   H24       1.0  0.44132  0.73150  0.03005  1.0000
  H   H25       1.0  0.80526  0.75523  0.43697  1.0000
  H   H26       1.0  0.19474  0.24478  0.56302  1.0000
  H   H27       1.0  0.76619  0.48176  0.16582  1.0000
  H   H28       1.0  0.23381  0.51824  0.83419  1.0000
  H   H29       1.0  0.05461  0.37164  0.12357  1.0000
  H   H30       1.0  0.94539  0.62836  0.87643  1.0000
  C   C1        1.0  0.77237  0.07110  0.35139  1.0000
  C   C2        1.0  0.22762  0.92890  0.64861  1.0000
  C   C3        1.0  0.85260  0.12291  0.22456  1.0000
  C   C4        1.0  0.14740  0.87708  0.77544  1.0000
  C   C5        1.0  0.01747  0.07611  0.19663  1.0000
  C   C6        1.0  0.98253  0.92389  0.80337  1.0000
  C   C7        1.0  0.10163  0.10746  0.07501  1.0000
  C   C8        1.0  0.89837  0.89253  0.92500  1.0000
  C   C9        1.0  0.27589  0.06083  0.04699  1.0000
  C   C10       1.0  0.72411  0.93916  0.95302  1.0000
  C   C11       1.0  0.01829  0.18463  0.97988  1.0000
  C   C12       1.0  0.98171  0.81537  0.02013  1.0000
  C   C13       1.0  0.85491  0.23633  0.00934  1.0000
  C   C14       1.0  0.14510  0.76366  0.99066  1.0000
  C   C15       1.0  0.76825  0.21040  0.13234  1.0000
  C   C16       1.0  0.23176  0.78960  0.86766  1.0000
  C   C17       1.0  0.59712  0.28362  0.16277  1.0000
  C   C18       1.0  0.40288  0.71638  0.83722  1.0000
  C   C19       1.0  0.52269  0.33821  0.28596  1.0000
  C   C20       1.0  0.47731  0.66179  0.71403  1.0000
  C   C21       1.0  0.36282  0.41135  0.31334  1.0000
  C   C22       1.0  0.63718  0.58866  0.68666  1.0000
  C   C23       1.0  0.27056  0.43525  0.21806  1.0000
  C   C24       1.0  0.72944  0.56476  0.78193  1.0000
  C   C25       1.0  0.34558  0.38198  0.09422  1.0000
  C   C26       1.0  0.65442  0.61802  0.90578  1.0000
  C   C27       1.0  0.50544  0.30819  0.06690  1.0000
  C   C28       1.0  0.49456  0.69180  0.93309  1.0000
  C   C29       1.0  0.09910  0.50696  0.24717  1.0000
  C   C30       1.0  0.90090  0.49304  0.75282  1.0000
  C   C31       1.0  0.02529  0.61838  0.33522  1.0000
  C   C32       1.0  0.97471  0.38163  0.66478  1.0000
  C   C33       1.0  0.11336  0.70178  0.37959  1.0000
  C   C34       1.0  0.88664  0.29823  0.62041  1.0000
  C   C35       1.0  0.86091  0.67233  0.36675  1.0000
  C   C36       1.0  0.13909  0.32767  0.63325  1.0000
  C   C37       1.0  0.76701  0.62632  0.30372  1.0000
  C   C38       1.0  0.23299  0.37368  0.69628  1.0000
  C   C39       1.0  0.59386  0.69300  0.33267  1.0000
  C   C40       1.0  0.40615  0.30700  0.66733  1.0000
  C   C41       1.0  0.83888  0.51959  0.21355  1.0000
  C   C42       1.0  0.16112  0.48041  0.78645  1.0000
  C   C43       1.0  0.00141  0.45936  0.18879  1.0000
  C   C44       1.0  0.99859  0.54064  0.81120  1.0000
  O   O1        1.0  0.65262  0.03126  0.35004  1.0000
  O   O2        1.0  0.34737  0.96874  0.64996  1.0000
  O   O3        1.0  0.83208  0.06360  0.45161  1.0000
  O   O4        1.0  0.16791  0.93641  0.54839  1.0000
  O   O5        1.0  0.35625  0.00363  0.13198  1.0000
  O   O6        1.0  0.64375  0.99636  0.86803  1.0000
  O   O7        1.0  0.33953  0.08476  0.92527  1.0000
  O   O8        1.0  0.66047  0.91523  0.07473  1.0000
  O   O9        1.0  0.21585  0.74285  0.30179  1.0000
  O   O10       1.0  0.78414  0.25715  0.69821  1.0000
  O   O11       1.0  0.06272  0.73796  0.50208  1.0000
  O   O12       1.0  0.93727  0.26204  0.49792  1.0000
  O   O13       1.0  0.52280  0.76615  0.42780  1.0000
  O   O14       1.0  0.47719  0.23385  0.57220  1.0000
  O   O15       1.0  0.52164  0.66516  0.24608  1.0000
  O   O16       1.0  0.47836  0.33485  0.75392  1.0000
  O   O17       1.0  0.33676  0.07341  0.39574  1.0000
  O   O18       1.0  0.66324  0.92659  0.60426  1.0000
