data_image0
_chemical_formula_structural       Co2H36C44O22
_chemical_formula_sum              "Co2 H36 C44 O22"
_cell_length_a       7.78612
_cell_length_b       11.2277
_cell_length_c       13.4998
_cell_angle_alpha    114.945
_cell_angle_beta     105.421
_cell_angle_gamma    89.8299

_space_group_name_H-M_alt    "P 1"
_space_group_IT_number       1

loop_
  _space_group_symop_operation_xyz
  'x, y, z'

loop_
  _atom_site_type_symbol
  _atom_site_label
  _atom_site_symmetry_multiplicity
  _atom_site_fract_x
  _atom_site_fract_y
  _atom_site_fract_z
  _atom_site_occupancy
  Co  Co1       1.0  0.00000  0.50000  0.00000  1.0000
  Co  Co2       1.0  0.50000  0.50000  1.00000  1.0000
  H   H1        1.0  0.81592  0.43122  0.29764  1.0000
  H   H2        1.0  0.68463  0.13398  0.70195  1.0000
  H   H3        1.0  0.18407  0.56878  0.70236  1.0000
  H   H4        1.0  0.31537  0.86601  0.29805  1.0000
  H   H5        1.0  0.95230  0.31125  0.79502  1.0000
  H   H6        1.0  0.54799  0.51649  0.20506  1.0000
  H   H7        1.0  0.04770  0.68875  0.20498  1.0000
  H   H8        1.0  0.45201  0.48351  0.79494  1.0000
  H   H9        1.0  0.14896  0.31234  0.87050  1.0000
  H   H10       1.0  0.35123  0.44255  0.12951  1.0000
  H   H11       1.0  0.85104  0.68766  0.12950  1.0000
  H   H12       1.0  0.64877  0.55745  0.87049  1.0000
  H   H13       1.0  0.20609  0.59015  0.92730  1.0000
  H   H14       1.0  0.29289  0.66319  0.07251  1.0000
  H   H15       1.0  0.79391  0.40985  0.07270  1.0000
  H   H16       1.0  0.70710  0.33681  0.92749  1.0000
  H   H17       1.0  0.87920  0.48301  0.57361  1.0000
  H   H18       1.0  0.62102  0.91041  0.42577  1.0000
  H   H19       1.0  0.12080  0.51699  0.42639  1.0000
  H   H20       1.0  0.37899  0.08959  0.57424  1.0000
  H   H21       1.0  0.52157  0.74912  0.50494  1.0000
  H   H22       1.0  0.98002  0.24524  0.49696  1.0000
  H   H23       1.0  0.47843  0.25088  0.49506  1.0000
  H   H24       1.0  0.01998  0.75476  0.50304  1.0000
  H   H25       1.0  0.53418  0.86225  0.71019  1.0000
  H   H26       1.0  0.96631  0.15269  0.29163  1.0000
  H   H27       1.0  0.46582  0.13774  0.28981  1.0000
  H   H28       1.0  0.03369  0.84731  0.70836  1.0000
  H   H29       1.0  0.44864  0.80235  0.85720  1.0000
  H   H30       1.0  0.05106  0.94621  0.14349  1.0000
  H   H31       1.0  0.55136  0.19765  0.14279  1.0000
  H   H32       1.0  0.94894  0.05379  0.85651  1.0000
  H   H33       1.0  0.02534  0.84275  0.93796  1.0000
  H   H34       1.0  0.47426  0.90444  0.06270  1.0000
  H   H35       1.0  0.97466  0.15725  0.06204  1.0000
  H   H36       1.0  0.52573  0.09556  0.93730  1.0000
  C   C1        1.0  0.93423  0.58682  0.80270  1.0000
  C   C2        1.0  0.56539  0.78454  0.19704  1.0000
  C   C3        1.0  0.06576  0.41318  0.19730  1.0000
  C   C4        1.0  0.43461  0.21546  0.80296  1.0000
  C   C5        1.0  0.81562  0.63097  0.71979  1.0000
  C   C6        1.0  0.68426  0.91187  0.28019  1.0000
  C   C7        1.0  0.18438  0.36903  0.28021  1.0000
  C   C8        1.0  0.31574  0.08812  0.71981  1.0000
  C   C9        1.0  0.80516  0.56675  0.60394  1.0000
  C   C10       1.0  0.69515  0.96378  0.39601  1.0000
  C   C11       1.0  0.19484  0.43325  0.39606  1.0000
  C   C12       1.0  0.30486  0.03621  0.60399  1.0000
  C   C13       1.0  0.70140  0.61052  0.52669  1.0000
  C   C14       1.0  0.79945  0.08495  0.47390  1.0000
  C   C15       1.0  0.29860  0.38948  0.47331  1.0000
  C   C16       1.0  0.20055  0.91505  0.52610  1.0000
  C   C17       1.0  0.60208  0.71624  0.56576  1.0000
  C   C18       1.0  0.89903  0.15141  0.43558  1.0000
  C   C19       1.0  0.39792  0.28376  0.43424  1.0000
  C   C20       1.0  0.10097  0.84859  0.56442  1.0000
  C   C21       1.0  0.60952  0.77877  0.68039  1.0000
  C   C22       1.0  0.89103  0.09904  0.32093  1.0000
  C   C23       1.0  0.39048  0.22123  0.31961  1.0000
  C   C24       1.0  0.10897  0.90096  0.67907  1.0000
  C   C25       1.0  0.71878  0.73965  0.75981  1.0000
  C   C26       1.0  0.78120  0.98034  0.24082  1.0000
  C   C27       1.0  0.28121  0.26035  0.24018  1.0000
  C   C28       1.0  0.21880  0.01966  0.75918  1.0000
  C   C29       1.0  0.70310  0.55558  0.40583  1.0000
  C   C30       1.0  0.79753  0.15099  0.59471  1.0000
  C   C31       1.0  0.29690  0.44442  0.59417  1.0000
  C   C32       1.0  0.20247  0.84901  0.40529  1.0000
  C   C33       1.0  0.73496  0.81259  0.88276  1.0000
  C   C34       1.0  0.76473  0.93014  0.11795  1.0000
  C   C35       1.0  0.26504  0.18741  0.11724  1.0000
  C   C36       1.0  0.23527  0.06986  0.88205  1.0000
  C   C37       1.0  0.58089  0.83489  0.91986  1.0000
  C   C38       1.0  0.91877  0.91587  0.08088  1.0000
  C   C39       1.0  0.41911  0.16511  0.08014  1.0000
  C   C40       1.0  0.08122  0.08413  0.91912  1.0000
  C   C41       1.0  0.90384  0.85629  0.96500  1.0000
  C   C42       1.0  0.59584  0.89120  0.03574  1.0000
  C   C43       1.0  0.09616  0.14371  0.03500  1.0000
  C   C44       1.0  0.40416  0.10880  0.96426  1.0000
  O   O1        1.0  0.86546  0.55718  0.86637  1.0000
  O   O2        1.0  0.63415  0.69049  0.13285  1.0000
  O   O3        1.0  0.13454  0.44282  0.13363  1.0000
  O   O4        1.0  0.36585  0.30951  0.86715  1.0000
  O   O5        1.0  0.10090  0.58602  0.80796  1.0000
  O   O6        1.0  0.39893  0.77865  0.19214  1.0000
  O   O7        1.0  0.89910  0.41398  0.19204  1.0000
  O   O8        1.0  0.60107  0.22135  0.80786  1.0000
  O   O9        1.0  0.78799  0.44873  0.37185  1.0000
  O   O10       1.0  0.71277  0.07754  0.62752  1.0000
  O   O11       1.0  0.21201  0.55127  0.62815  1.0000
  O   O12       1.0  0.28724  0.92245  0.37248  1.0000
  O   O13       1.0  0.63521  0.60947  0.34360  1.0000
  O   O14       1.0  0.86517  0.26757  0.65786  1.0000
  O   O15       1.0  0.36479  0.39053  0.65641  1.0000
  O   O16       1.0  0.13483  0.73243  0.34214  1.0000
  O   O17       1.0  0.02388  0.32727  0.87409  1.0000
  O   O18       1.0  0.47601  0.45406  0.12571  1.0000
  O   O19       1.0  0.97612  0.67273  0.12591  1.0000
  O   O20       1.0  0.52399  0.54594  0.87429  1.0000
  O   O21       1.0  0.24952  0.57658  0.99978  1.0000
  O   O22       1.0  0.75048  0.42342  0.00022  1.0000
