data_image0
_chemical_formula_structural       Ni2H36C44O22
_chemical_formula_sum              "Ni2 H36 C44 O22"
_cell_length_a       7.73139
_cell_length_b       11.2082
_cell_length_c       13.4675
_cell_angle_alpha    114.96
_cell_angle_beta     105.679
_cell_angle_gamma    89.9284

_space_group_name_H-M_alt    "P 1"
_space_group_IT_number       1

loop_
  _space_group_symop_operation_xyz
  'x, y, z'

loop_
  _atom_site_type_symbol
  _atom_site_label
  _atom_site_symmetry_multiplicity
  _atom_site_fract_x
  _atom_site_fract_y
  _atom_site_fract_z
  _atom_site_occupancy
  Ni  Ni1       1.0  1.00000  0.50000  1.00000  1.0000
  Ni  Ni2       1.0  0.50000  0.50000  1.00000  1.0000
  H   H1        1.0  0.81423  0.43028  0.29609  1.0000
  H   H2        1.0  0.68625  0.13429  0.70338  1.0000
  H   H3        1.0  0.18578  0.56972  0.70391  1.0000
  H   H4        1.0  0.31375  0.86571  0.29662  1.0000
  H   H5        1.0  0.05176  0.68513  0.20212  1.0000
  H   H6        1.0  0.44804  0.48435  0.79620  1.0000
  H   H7        1.0  0.94824  0.31487  0.79788  1.0000
  H   H8        1.0  0.55196  0.51565  0.20380  1.0000
  H   H9        1.0  0.85536  0.68465  0.12590  1.0000
  H   H10       1.0  0.64442  0.55980  0.87172  1.0000
  H   H11       1.0  0.14464  0.31535  0.87410  1.0000
  H   H12       1.0  0.35558  0.44020  0.12828  1.0000
  H   H13       1.0  0.79355  0.41337  0.07327  1.0000
  H   H14       1.0  0.70783  0.34049  0.92782  1.0000
  H   H15       1.0  0.20645  0.58663  0.92673  1.0000
  H   H16       1.0  0.29217  0.65951  0.07218  1.0000
  H   H17       1.0  0.53257  0.86206  0.70905  1.0000
  H   H18       1.0  0.96711  0.15393  0.29241  1.0000
  H   H19       1.0  0.46743  0.13794  0.29095  1.0000
  H   H20       1.0  0.03290  0.84607  0.70759  1.0000
  H   H21       1.0  0.51987  0.74839  0.50301  1.0000
  H   H22       1.0  0.98088  0.24688  0.49844  1.0000
  H   H23       1.0  0.48013  0.25161  0.49700  1.0000
  H   H24       1.0  0.01912  0.75311  0.50156  1.0000
  H   H25       1.0  0.87736  0.48103  0.57286  1.0000
  H   H26       1.0  0.62196  0.90868  0.42603  1.0000
  H   H27       1.0  0.12264  0.51897  0.42714  1.0000
  H   H28       1.0  0.37804  0.09132  0.57397  1.0000
  H   H29       1.0  0.02763  0.84262  0.93844  1.0000
  H   H30       1.0  0.47206  0.90373  0.06197  1.0000
  H   H31       1.0  0.97236  0.15737  0.06156  1.0000
  H   H32       1.0  0.52794  0.09627  0.93803  1.0000
  H   H33       1.0  0.44576  0.80167  0.85566  1.0000
  H   H34       1.0  0.05400  0.94711  0.14482  1.0000
  H   H35       1.0  0.55424  0.19833  0.14434  1.0000
  H   H36       1.0  0.94600  0.05289  0.85518  1.0000
  C   C1        1.0  0.93381  0.58618  0.80272  1.0000
  C   C2        1.0  0.56586  0.78242  0.19622  1.0000
  C   C3        1.0  0.06618  0.41382  0.19728  1.0000
  C   C4        1.0  0.43414  0.21758  0.80378  1.0000
  C   C5        1.0  0.81482  0.63026  0.71932  1.0000
  C   C6        1.0  0.68536  0.91051  0.28020  1.0000
  C   C7        1.0  0.18518  0.36974  0.28068  1.0000
  C   C8        1.0  0.31464  0.08949  0.71980  1.0000
  C   C9        1.0  0.71808  0.73935  0.75917  1.0000
  C   C10       1.0  0.78186  0.98016  0.24112  1.0000
  C   C11       1.0  0.28192  0.26065  0.24083  1.0000
  C   C12       1.0  0.21814  0.01984  0.75888  1.0000
  C   C13       1.0  0.60793  0.77831  0.67923  1.0000
  C   C14       1.0  0.89195  0.09979  0.32176  1.0000
  C   C15       1.0  0.39206  0.22170  0.32077  1.0000
  C   C16       1.0  0.10805  0.90021  0.67825  1.0000
  C   C17       1.0  0.60036  0.71544  0.56433  1.0000
  C   C18       1.0  0.89984  0.15229  0.43666  1.0000
  C   C19       1.0  0.39964  0.28456  0.43567  1.0000
  C   C20       1.0  0.10017  0.84771  0.56334  1.0000
  C   C21       1.0  0.69998  0.60945  0.52558  1.0000
  C   C22       1.0  0.80000  0.08492  0.47468  1.0000
  C   C23       1.0  0.30002  0.39055  0.47442  1.0000
  C   C24       1.0  0.20000  0.91507  0.52532  1.0000
  C   C25       1.0  0.80378  0.56534  0.60313  1.0000
  C   C26       1.0  0.69595  0.96263  0.39632  1.0000
  C   C27       1.0  0.19622  0.43466  0.39687  1.0000
  C   C28       1.0  0.30405  0.03737  0.60369  1.0000
  C   C29       1.0  0.70286  0.55529  0.40478  1.0000
  C   C30       1.0  0.79792  0.15144  0.59574  1.0000
  C   C31       1.0  0.29714  0.44471  0.59522  1.0000
  C   C32       1.0  0.20208  0.84855  0.40426  1.0000
  C   C33       1.0  0.73468  0.81273  0.88244  1.0000
  C   C34       1.0  0.76505  0.93025  0.11798  1.0000
  C   C35       1.0  0.26532  0.18727  0.11756  1.0000
  C   C36       1.0  0.23495  0.06976  0.88202  1.0000
  C   C37       1.0  0.90526  0.85638  0.96528  1.0000
  C   C38       1.0  0.59447  0.89081  0.03516  1.0000
  C   C39       1.0  0.09474  0.14363  0.03472  1.0000
  C   C40       1.0  0.40553  0.10919  0.96484  1.0000
  C   C41       1.0  0.57919  0.83475  0.91896  1.0000
  C   C42       1.0  0.92056  0.91634  0.08150  1.0000
  C   C43       1.0  0.42081  0.16525  0.08104  1.0000
  C   C44       1.0  0.07944  0.08366  0.91850  1.0000
  O   O1        1.0  0.86368  0.55663  0.86604  1.0000
  O   O2        1.0  0.63517  0.68852  0.13175  1.0000
  O   O3        1.0  0.13632  0.44337  0.13396  1.0000
  O   O4        1.0  0.36483  0.31148  0.86825  1.0000
  O   O5        1.0  0.10183  0.58491  0.80845  1.0000
  O   O6        1.0  0.39832  0.77587  0.19115  1.0000
  O   O7        1.0  0.89817  0.41509  0.19155  1.0000
  O   O8        1.0  0.60168  0.22413  0.80885  1.0000
  O   O9        1.0  0.63790  0.61121  0.34330  1.0000
  O   O10       1.0  0.86438  0.26899  0.65876  1.0000
  O   O11       1.0  0.36210  0.38879  0.65670  1.0000
  O   O12       1.0  0.13562  0.73101  0.34124  1.0000
  O   O13       1.0  0.78547  0.44706  0.37009  1.0000
  O   O14       1.0  0.71443  0.07730  0.62899  1.0000
  O   O15       1.0  0.21453  0.55294  0.62991  1.0000
  O   O16       1.0  0.28557  0.92270  0.37101  1.0000
  O   O17       1.0  0.98244  0.67384  0.12335  1.0000
  O   O18       1.0  0.51801  0.55142  0.87501  1.0000
  O   O19       1.0  0.01756  0.32616  0.87665  1.0000
  O   O20       1.0  0.48199  0.44858  0.12499  1.0000
  O   O21       1.0  0.75061  0.42790  0.00076  1.0000
  O   O22       1.0  0.24939  0.57210  0.99924  1.0000
