data_image0
_chemical_formula_structural       Cu2Ni2H40C28N8O24
_chemical_formula_sum              "Cu2 Ni2 H40 C28 N8 O24"
_cell_length_a       7.07077
_cell_length_b       9.78442
_cell_length_c       13.9423
_cell_angle_alpha    90
_cell_angle_beta     90
_cell_angle_gamma    98.754

_space_group_name_H-M_alt    "P 1"
_space_group_IT_number       1

loop_
  _space_group_symop_operation_xyz
  'x, y, z'

loop_
  _atom_site_type_symbol
  _atom_site_label
  _atom_site_symmetry_multiplicity
  _atom_site_fract_x
  _atom_site_fract_y
  _atom_site_fract_z
  _atom_site_occupancy
  Cu  Cu1       1.0  0.50000  1.00000  0.00000  1.0000
  Cu  Cu2       1.0  0.00000  0.00000  0.50000  1.0000
  Ni  Ni1       1.0  0.50000  0.50000  0.50000  1.0000
  Ni  Ni2       1.0  1.00000  0.50000  0.00000  1.0000
  H   H1        1.0  0.86350  0.57594  0.45861  1.0000
  H   H2        1.0  0.63652  0.42401  0.95864  1.0000
  H   H3        1.0  0.13650  0.42406  0.54139  1.0000
  H   H4        1.0  0.36349  0.57599  0.04136  1.0000
  H   H5        1.0  0.84972  0.52761  0.56832  1.0000
  H   H6        1.0  0.65029  0.47237  0.06834  1.0000
  H   H7        1.0  0.15028  0.47239  0.43168  1.0000
  H   H8        1.0  0.34971  0.52763  0.93166  1.0000
  H   H9        1.0  0.18291  0.10787  0.99296  1.0000
  H   H10       1.0  0.31713  0.89221  0.49289  1.0000
  H   H11       1.0  0.81709  0.89212  0.00704  1.0000
  H   H12       1.0  0.68288  0.10779  0.50711  1.0000
  H   H13       1.0  0.19131  0.01170  0.08954  1.0000
  H   H14       1.0  0.30884  0.98837  0.58947  1.0000
  H   H15       1.0  0.80868  0.98829  0.91045  1.0000
  H   H16       1.0  0.69116  0.01163  0.41053  1.0000
  H   H17       1.0  0.75007  0.08532  0.12882  1.0000
  H   H18       1.0  0.75002  0.91457  0.62889  1.0000
  H   H19       1.0  0.24993  0.91468  0.87117  1.0000
  H   H20       1.0  0.24998  0.08543  0.37111  1.0000
  H   H21       1.0  0.72195  0.21457  0.05428  1.0000
  H   H22       1.0  0.77816  0.78533  0.55434  1.0000
  H   H23       1.0  0.27805  0.78543  0.94572  1.0000
  H   H24       1.0  0.22185  0.21467  0.44566  1.0000
  H   H25       1.0  0.22989  0.24013  0.15069  1.0000
  H   H26       1.0  0.27037  0.75998  0.65063  1.0000
  H   H27       1.0  0.77011  0.75986  0.84931  1.0000
  H   H28       1.0  0.72963  0.24002  0.34936  1.0000
  H   H29       1.0  0.37943  0.29467  0.05225  1.0000
  H   H30       1.0  0.12079  0.70538  0.55223  1.0000
  H   H31       1.0  0.62058  0.70532  0.94775  1.0000
  H   H32       1.0  0.87921  0.29462  0.44777  1.0000
  H   H33       1.0  0.58039  0.28083  0.19641  1.0000
  H   H34       1.0  0.91997  0.71920  0.69647  1.0000
  H   H35       1.0  0.41960  0.71916  0.80359  1.0000
  H   H36       1.0  0.08003  0.28080  0.30353  1.0000
  H   H37       1.0  0.47537  0.10487  0.21488  1.0000
  H   H38       1.0  0.02489  0.89520  0.71485  1.0000
  H   H39       1.0  0.52463  0.89512  0.78512  1.0000
  H   H40       1.0  0.97512  0.10481  0.28514  1.0000
  C   C1        1.0  0.49871  0.58947  0.31081  1.0000
  C   C2        1.0  0.00129  0.41053  0.81078  1.0000
  C   C3        1.0  0.50128  0.41053  0.68919  1.0000
  C   C4        1.0  0.99870  0.58947  0.18921  1.0000
  C   C5        1.0  0.48176  0.62725  0.21019  1.0000
  C   C6        1.0  0.01827  0.37275  0.71016  1.0000
  C   C7        1.0  0.51824  0.37276  0.78982  1.0000
  C   C8        1.0  0.98172  0.62726  0.28984  1.0000
  C   C9        1.0  0.43170  0.76949  0.20744  1.0000
  C   C10       1.0  0.06831  0.23053  0.70742  1.0000
  C   C11       1.0  0.56829  0.23052  0.79256  1.0000
  C   C12       1.0  0.93169  0.76948  0.29257  1.0000
  C   C13       1.0  0.43447  0.82233  0.30780  1.0000
  C   C14       1.0  0.06554  0.17766  0.80777  1.0000
  C   C15       1.0  0.56552  0.17768  0.69220  1.0000
  C   C16       1.0  0.93446  0.82234  0.19223  1.0000
  C   C17       1.0  0.46552  0.70663  0.36933  1.0000
  C   C18       1.0  0.03449  0.29337  0.86933  1.0000
  C   C19       1.0  0.53447  0.29337  0.63067  1.0000
  C   C20       1.0  0.96550  0.70663  0.13067  1.0000
  C   C21       1.0  0.34106  0.21014  0.10346  1.0000
  C   C22       1.0  0.15914  0.78992  0.60342  1.0000
  C   C23       1.0  0.65894  0.78985  0.89654  1.0000
  C   C24       1.0  0.84086  0.21008  0.39658  1.0000
  C   C25       1.0  0.51586  0.18494  0.16030  1.0000
  C   C26       1.0  0.98438  0.81508  0.66030  1.0000
  C   C27       1.0  0.48413  0.81506  0.83970  1.0000
  C   C28       1.0  0.01563  0.18492  0.33970  1.0000
  N   N1        1.0  0.27089  0.08441  0.04707  1.0000
  N   N2        1.0  0.22920  0.91566  0.54703  1.0000
  N   N3        1.0  0.72910  0.91558  0.95292  1.0000
  N   N4        1.0  0.77080  0.08434  0.45297  1.0000
  N   N5        1.0  0.65148  0.13326  0.09332  1.0000
  N   N6        1.0  0.84862  0.86667  0.59335  1.0000
  N   N7        1.0  0.34852  0.86673  0.90668  1.0000
  N   N8        1.0  0.15139  0.13333  0.40664  1.0000
  O   O1        1.0  0.53097  0.47682  0.34794  1.0000
  O   O2        1.0  0.96901  0.52316  0.84794  1.0000
  O   O3        1.0  0.46902  0.52318  0.65206  1.0000
  O   O4        1.0  0.03098  0.47684  0.15206  1.0000
  O   O5        1.0  0.49907  0.55439  0.13698  1.0000
  O   O6        1.0  0.00098  0.44562  0.63697  1.0000
  O   O7        1.0  0.50094  0.44562  0.86302  1.0000
  O   O8        1.0  0.99902  0.55439  0.36303  1.0000
  O   O9        1.0  0.39227  0.83112  0.13376  1.0000
  O   O10       1.0  0.10770  0.16886  0.63374  1.0000
  O   O11       1.0  0.60772  0.16888  0.86625  1.0000
  O   O12       1.0  0.89229  0.83114  0.36626  1.0000
  O   O13       1.0  0.41407  0.94091  0.33532  1.0000
  O   O14       1.0  0.08592  0.05909  0.83529  1.0000
  O   O15       1.0  0.58593  0.05909  0.66469  1.0000
  O   O16       1.0  0.91410  0.94092  0.16471  1.0000
  O   O17       1.0  0.46224  0.70229  0.46019  1.0000
  O   O18       1.0  0.03779  0.29775  0.96018  1.0000
  O   O19       1.0  0.53776  0.29771  0.53982  1.0000
  O   O20       1.0  0.96221  0.70226  0.03982  1.0000
  O   O21       1.0  0.78458  0.57559  0.51848  1.0000
  O   O22       1.0  0.71544  0.42440  0.01850  1.0000
  O   O23       1.0  0.21542  0.42440  0.48152  1.0000
  O   O24       1.0  0.28456  0.57560  0.98151  1.0000
