data_image0
_chemical_formula_structural       Mn2H40C52S4N8Cl4
_chemical_formula_sum              "Mn2 H40 C52 S4 N8 Cl4"
_cell_length_a       8.78857
_cell_length_b       10.8839
_cell_length_c       14.8424
_cell_angle_alpha    74.1279
_cell_angle_beta     82.7923
_cell_angle_gamma    69.053

_space_group_name_H-M_alt    "P 1"
_space_group_IT_number       1

loop_
  _space_group_symop_operation_xyz
  'x, y, z'

loop_
  _atom_site_type_symbol
  _atom_site_label
  _atom_site_symmetry_multiplicity
  _atom_site_fract_x
  _atom_site_fract_y
  _atom_site_fract_z
  _atom_site_occupancy
  Mn  Mn1       1.0  0.50000  0.49999  0.50000  1.0000
  Mn  Mn2       1.0  0.00001  0.99999  0.50000  1.0000
  H   H1        1.0  0.85874  0.45499  0.41922  1.0000
  H   H2        1.0  0.14127  0.54501  0.58078  1.0000
  H   H3        1.0  0.02251  0.57979  0.30825  1.0000
  H   H4        1.0  0.97750  0.42021  0.69176  1.0000
  H   H5        1.0  0.61033  0.94820  0.29928  1.0000
  H   H6        1.0  0.38967  0.05180  0.70072  1.0000
  H   H7        1.0  0.46621  0.80928  0.41355  1.0000
  H   H8        1.0  0.53379  0.19072  0.58645  1.0000
  H   H9        1.0  0.04820  0.78921  0.21603  1.0000
  H   H10       1.0  0.95180  0.21079  0.78397  1.0000
  H   H11       1.0  0.93019  0.93487  0.25439  1.0000
  H   H12       1.0  0.06982  0.06513  0.74561  1.0000
  H   H13       1.0  0.77946  0.75216  0.12150  1.0000
  H   H14       1.0  0.22053  0.24784  0.87850  1.0000
  H   H15       1.0  0.66512  0.85936  0.96388  1.0000
  H   H16       1.0  0.33488  0.14065  0.03612  1.0000
  H   H17       1.0  0.78167  0.21505  0.95585  1.0000
  H   H18       1.0  0.21834  0.78494  0.04415  1.0000
  H   H19       1.0  0.89112  0.10910  0.11552  1.0000
  H   H20       1.0  0.10889  0.89090  0.88448  1.0000
  H   H21       1.0  0.83908  0.78666  0.49534  1.0000
  H   H22       1.0  0.16091  0.21335  0.50466  1.0000
  H   H23       1.0  0.68880  0.64311  0.59892  1.0000
  H   H24       1.0  0.31120  0.35689  0.40109  1.0000
  H   H25       1.0  0.71925  0.81785  0.82156  1.0000
  H   H26       1.0  0.28077  0.18214  0.17845  1.0000
  H   H27       1.0  0.86489  0.95609  0.70822  1.0000
  H   H28       1.0  0.13512  0.04391  0.29178  1.0000
  H   H29       1.0  0.60550  0.54880  0.75610  1.0000
  H   H30       1.0  0.39450  0.45120  0.24389  1.0000
  H   H31       1.0  0.46881  0.69571  0.78625  1.0000
  H   H32       1.0  0.53118  0.30429  0.21375  1.0000
  H   H33       1.0  0.45770  0.72216  0.94080  1.0000
  H   H34       1.0  0.54229  0.27785  0.05919  1.0000
  H   H35       1.0  0.55533  0.63430  0.10369  1.0000
  H   H36       1.0  0.44466  0.36571  0.89630  1.0000
  H   H37       1.0  0.97670  0.33607  0.01308  1.0000
  H   H38       1.0  0.02328  0.66393  0.98692  1.0000
  H   H39       1.0  0.87812  0.42453  0.85066  1.0000
  H   H40       1.0  0.12186  0.57546  0.14934  1.0000
  C   C1        1.0  0.82188  0.24556  0.60068  1.0000
  C   C2        1.0  0.17814  0.75442  0.39932  1.0000
  C   C3        1.0  0.32561  0.74747  0.59734  1.0000
  C   C4        1.0  0.67440  0.25252  0.40266  1.0000
  C   C5        1.0  0.80850  0.56477  0.39150  1.0000
  C   C6        1.0  0.19150  0.43523  0.60850  1.0000
  C   C7        1.0  0.89843  0.63487  0.32843  1.0000
  C   C8        1.0  0.10157  0.36514  0.67157  1.0000
  C   C9        1.0  0.82969  0.77524  0.29293  1.0000
  C   C10       1.0  0.17031  0.22476  0.70707  1.0000
  C   C11       1.0  0.67055  0.83896  0.32394  1.0000
  C   C12       1.0  0.32945  0.16104  0.67606  1.0000
  C   C13       1.0  0.58939  0.76197  0.38761  1.0000
  C   C14       1.0  0.41062  0.23803  0.61239  1.0000
  C   C15       1.0  0.92166  0.85572  0.22436  1.0000
  C   C16       1.0  0.07834  0.14428  0.77564  1.0000
  C   C17       1.0  0.84587  0.92218  0.12944  1.0000
  C   C18       1.0  0.15414  0.07782  0.87056  1.0000
  C   C19       1.0  0.78172  0.85342  0.08540  1.0000
  C   C20       1.0  0.21828  0.14658  0.91460  1.0000
  C   C21       1.0  0.71758  0.91302  0.99628  1.0000
  C   C22       1.0  0.28243  0.08698  0.00372  1.0000
  C   C23       1.0  0.71880  0.04292  0.95007  1.0000
  C   C24       1.0  0.28121  0.95708  0.04993  1.0000
  C   C25       1.0  0.78143  0.11369  0.99246  1.0000
  C   C26       1.0  0.21858  0.88631  0.00753  1.0000
  C   C27       1.0  0.84306  0.05331  0.08212  1.0000
  C   C28       1.0  0.15695  0.94668  0.91788  1.0000
  C   C29       1.0  0.80920  0.79089  0.56825  1.0000
  C   C30       1.0  0.19079  0.20912  0.43176  1.0000
  C   C31       1.0  0.72582  0.71073  0.62655  1.0000
  C   C32       1.0  0.27418  0.28928  0.37345  1.0000
  C   C33       1.0  0.69052  0.71784  0.72002  1.0000
  C   C34       1.0  0.30947  0.28216  0.27998  1.0000
  C   C35       1.0  0.74160  0.80812  0.74958  1.0000
  C   C36       1.0  0.25841  0.19188  0.25043  1.0000
  C   C37       1.0  0.82400  0.88506  0.68687  1.0000
  C   C38       1.0  0.17600  0.11494  0.31313  1.0000
  C   C39       1.0  0.59895  0.63307  0.78544  1.0000
  C   C40       1.0  0.40104  0.36693  0.21455  1.0000
  C   C41       1.0  0.65961  0.57938  0.88414  1.0000
  C   C42       1.0  0.34038  0.42062  0.11586  1.0000
  C   C43       1.0  0.57202  0.63776  0.95624  1.0000
  C   C44       1.0  0.42796  0.36224  0.04376  1.0000
  C   C45       1.0  0.62599  0.58886  0.04802  1.0000
  C   C46       1.0  0.37400  0.41115  0.95198  1.0000
  C   C47       1.0  0.77119  0.47960  0.06783  1.0000
  C   C48       1.0  0.22880  0.52040  0.93217  1.0000
  C   C49       1.0  0.86268  0.42048  0.99697  1.0000
  C   C50       1.0  0.13731  0.57952  0.00303  1.0000
  C   C51       1.0  0.80616  0.47075  0.90584  1.0000
  C   C52       1.0  0.19383  0.52925  0.09416  1.0000
  S   S1        1.0  0.70173  0.37620  0.63685  1.0000
  S   S2        1.0  0.29827  0.62379  0.36315  1.0000
  S   S3        1.0  0.23927  0.89378  0.62169  1.0000
  S   S4        1.0  0.76075  0.10621  0.37832  1.0000
  N   N1        1.0  0.90931  0.14935  0.57463  1.0000
  N   N2        1.0  0.09069  0.85064  0.42538  1.0000
  N   N3        1.0  0.38935  0.64073  0.57888  1.0000
  N   N4        1.0  0.61065  0.35927  0.42113  1.0000
  N   N5        1.0  0.65612  0.62651  0.42088  1.0000
  N   N6        1.0  0.34389  0.37349  0.57911  1.0000
  N   N7        1.0  0.85864  0.87692  0.59733  1.0000
  N   N8        1.0  0.14137  0.12309  0.40268  1.0000
  Cl  Cl1       1.0  0.64077  0.11899  0.83878  1.0000
  Cl  Cl2       1.0  0.35923  0.88101  0.16122  1.0000
  Cl  Cl3       1.0  0.83820  0.41554  0.18185  1.0000
  Cl  Cl4       1.0  0.16178  0.58447  0.81815  1.0000
