data_image0
_chemical_formula_structural       Ni2H40C52S4N8Cl4
_chemical_formula_sum              "Ni2 H40 C52 S4 N8 Cl4"
_cell_length_a       8.71203
_cell_length_b       10.7465
_cell_length_c       14.9511
_cell_angle_alpha    73.0851
_cell_angle_beta     83.2686
_cell_angle_gamma    68.5315

_space_group_name_H-M_alt    "P 1"
_space_group_IT_number       1

loop_
  _space_group_symop_operation_xyz
  'x, y, z'

loop_
  _atom_site_type_symbol
  _atom_site_label
  _atom_site_symmetry_multiplicity
  _atom_site_fract_x
  _atom_site_fract_y
  _atom_site_fract_z
  _atom_site_occupancy
  Ni  Ni1       1.0  0.50000  0.50000  0.50000  1.0000
  Ni  Ni2       1.0  1.00000  1.00000  0.50000  1.0000
  H   H1        1.0  0.84754  0.43988  0.42137  1.0000
  H   H2        1.0  0.15246  0.56011  0.57862  1.0000
  H   H3        1.0  0.01538  0.56701  0.31426  1.0000
  H   H4        1.0  0.98463  0.43299  0.68574  1.0000
  H   H5        1.0  0.60003  0.94595  0.30156  1.0000
  H   H6        1.0  0.39997  0.05404  0.69844  1.0000
  H   H7        1.0  0.45159  0.80402  0.41119  1.0000
  H   H8        1.0  0.54841  0.19598  0.58881  1.0000
  H   H9        1.0  0.04442  0.78166  0.22522  1.0000
  H   H10       1.0  0.95558  0.21834  0.77478  1.0000
  H   H11       1.0  0.92140  0.93038  0.26030  1.0000
  H   H12       1.0  0.07860  0.06961  0.73971  1.0000
  H   H13       1.0  0.77248  0.74890  0.12567  1.0000
  H   H14       1.0  0.22753  0.25110  0.87433  1.0000
  H   H15       1.0  0.66601  0.85995  0.96483  1.0000
  H   H16       1.0  0.33400  0.14005  0.03517  1.0000
  H   H17       1.0  0.78938  0.21638  0.95744  1.0000
  H   H18       1.0  0.21061  0.78363  0.04257  1.0000
  H   H19       1.0  0.89228  0.10630  0.11970  1.0000
  H   H20       1.0  0.10773  0.89370  0.88031  1.0000
  H   H21       1.0  0.83279  0.80599  0.48686  1.0000
  H   H22       1.0  0.16722  0.19401  0.51314  1.0000
  H   H23       1.0  0.68341  0.65913  0.59003  1.0000
  H   H24       1.0  0.31659  0.34087  0.40998  1.0000
  H   H25       1.0  0.74417  0.81204  0.81556  1.0000
  H   H26       1.0  0.25583  0.18796  0.18444  1.0000
  H   H27       1.0  0.89008  0.95306  0.70259  1.0000
  H   H28       1.0  0.10992  0.04694  0.29741  1.0000
  H   H29       1.0  0.47535  0.69882  0.77377  1.0000
  H   H30       1.0  0.52464  0.30119  0.22623  1.0000
  H   H31       1.0  0.61954  0.54837  0.74953  1.0000
  H   H32       1.0  0.38045  0.45164  0.25047  1.0000
  H   H33       1.0  0.45245  0.72968  0.92656  1.0000
  H   H34       1.0  0.54754  0.27032  0.07344  1.0000
  H   H35       1.0  0.54091  0.64143  0.09214  1.0000
  H   H36       1.0  0.45908  0.35857  0.90786  1.0000
  H   H37       1.0  0.97925  0.33651  0.01655  1.0000
  H   H38       1.0  0.02075  0.66349  0.98345  1.0000
  H   H39       1.0  0.89026  0.42533  0.85143  1.0000
  H   H40       1.0  0.10974  0.57467  0.14856  1.0000
  C   C1        1.0  0.82700  0.24612  0.59157  1.0000
  C   C2        1.0  0.17300  0.75387  0.40843  1.0000
  C   C3        1.0  0.33028  0.74694  0.59035  1.0000
  C   C4        1.0  0.66972  0.25306  0.40965  1.0000
  C   C5        1.0  0.79731  0.55224  0.39320  1.0000
  C   C6        1.0  0.20269  0.44776  0.60680  1.0000
  C   C7        1.0  0.88942  0.62389  0.33238  1.0000
  C   C8        1.0  0.11058  0.37611  0.66762  1.0000
  C   C9        1.0  0.82122  0.76797  0.29697  1.0000
  C   C10       1.0  0.17879  0.23203  0.70303  1.0000
  C   C11       1.0  0.66021  0.83381  0.32595  1.0000
  C   C12       1.0  0.33979  0.16619  0.67405  1.0000
  C   C13       1.0  0.57627  0.75530  0.38710  1.0000
  C   C14       1.0  0.42373  0.24469  0.61290  1.0000
  C   C15       1.0  0.91556  0.84986  0.23057  1.0000
  C   C16       1.0  0.08445  0.15014  0.76944  1.0000
  C   C17       1.0  0.84271  0.91871  0.13395  1.0000
  C   C18       1.0  0.15730  0.08129  0.86606  1.0000
  C   C19       1.0  0.77826  0.85100  0.08908  1.0000
  C   C20       1.0  0.22175  0.14900  0.91092  1.0000
  C   C21       1.0  0.71841  0.91270  0.99822  1.0000
  C   C22       1.0  0.28159  0.08730  0.00178  1.0000
  C   C23       1.0  0.72401  0.04383  0.95125  1.0000
  C   C24       1.0  0.27598  0.95618  0.04875  1.0000
  C   C25       1.0  0.78619  0.11388  0.99457  1.0000
  C   C26       1.0  0.21381  0.88612  0.00543  1.0000
  C   C27       1.0  0.84387  0.05130  0.08575  1.0000
  C   C28       1.0  0.15614  0.94870  0.91425  1.0000
  C   C29       1.0  0.81018  0.80434  0.56028  1.0000
  C   C30       1.0  0.18982  0.19566  0.43972  1.0000
  C   C31       1.0  0.72711  0.72245  0.61846  1.0000
  C   C32       1.0  0.27289  0.27755  0.38154  1.0000
  C   C33       1.0  0.70022  0.72241  0.71265  1.0000
  C   C34       1.0  0.29977  0.27760  0.28735  1.0000
  C   C35       1.0  0.75973  0.80757  0.74308  1.0000
  C   C36       1.0  0.24027  0.19243  0.25692  1.0000
  C   C37       1.0  0.84198  0.88649  0.68059  1.0000
  C   C38       1.0  0.15802  0.11351  0.31941  1.0000
  C   C39       1.0  0.60795  0.63581  0.77712  1.0000
  C   C40       1.0  0.39204  0.36419  0.22288  1.0000
  C   C41       1.0  0.66344  0.58316  0.87722  1.0000
  C   C42       1.0  0.33655  0.41684  0.12278  1.0000
  C   C43       1.0  0.56850  0.64379  0.94582  1.0000
  C   C44       1.0  0.43150  0.35621  0.05418  1.0000
  C   C45       1.0  0.61718  0.59477  0.03904  1.0000
  C   C46       1.0  0.38281  0.40523  0.96096  1.0000
  C   C47       1.0  0.76441  0.48334  0.06387  1.0000
  C   C48       1.0  0.23559  0.51666  0.93613  1.0000
  C   C49       1.0  0.86365  0.42254  0.99654  1.0000
  C   C50       1.0  0.13636  0.57746  0.00346  1.0000
  C   C51       1.0  0.81229  0.47288  0.90387  1.0000
  C   C52       1.0  0.18771  0.52713  0.09612  1.0000
  S   S1        1.0  0.70973  0.38287  0.62455  1.0000
  S   S2        1.0  0.29026  0.61712  0.37545  1.0000
  S   S3        1.0  0.23333  0.89432  0.61507  1.0000
  S   S4        1.0  0.76667  0.10568  0.38493  1.0000
  N   N1        1.0  0.90876  0.14711  0.56627  1.0000
  N   N2        1.0  0.09124  0.85289  0.43373  1.0000
  N   N3        1.0  0.39936  0.64083  0.57075  1.0000
  N   N4        1.0  0.60064  0.35917  0.42925  1.0000
  N   N5        1.0  0.64271  0.61630  0.42007  1.0000
  N   N6        1.0  0.35730  0.38369  0.57993  1.0000
  N   N7        1.0  0.86808  0.88505  0.59041  1.0000
  N   N8        1.0  0.13192  0.11494  0.40959  1.0000
  Cl  Cl1       1.0  0.65236  0.12202  0.83753  1.0000
  Cl  Cl2       1.0  0.34764  0.87798  0.16248  1.0000
  Cl  Cl3       1.0  0.82389  0.41829  0.17998  1.0000
  Cl  Cl4       1.0  0.17610  0.58171  0.82001  1.0000
