data_image0
_chemical_formula_structural       Dy4Cu2H28C20S2N8O36
_chemical_formula_sum              "Dy4 Cu2 H28 C20 S2 N8 O36"
_cell_length_a       6.99621
_cell_length_b       10.2216
_cell_length_c       15.4133
_cell_angle_alpha    80.8793
_cell_angle_beta     80.205
_cell_angle_gamma    77.8083

_space_group_name_H-M_alt    "P 1"
_space_group_IT_number       1

loop_
  _space_group_symop_operation_xyz
  'x, y, z'

loop_
  _atom_site_type_symbol
  _atom_site_label
  _atom_site_symmetry_multiplicity
  _atom_site_fract_x
  _atom_site_fract_y
  _atom_site_fract_z
  _atom_site_occupancy
  Dy  Dy1       1.0  0.35226  0.21434  0.26463  1.0000
  Dy  Dy2       1.0  0.64774  0.78566  0.73537  1.0000
  Dy  Dy3       1.0  0.74083  0.81075  0.37060  1.0000
  Dy  Dy4       1.0  0.25917  0.18925  0.62940  1.0000
  Cu  Cu1       1.0  0.38984  0.36770  0.96981  1.0000
  Cu  Cu2       1.0  0.61016  0.63230  0.03019  1.0000
  H   H1        1.0  0.95081  0.71763  0.14074  1.0000
  H   H2        1.0  0.04919  0.28238  0.85926  1.0000
  H   H3        1.0  0.85349  0.92486  0.00752  1.0000
  H   H4        1.0  0.14651  0.07514  0.99249  1.0000
  H   H5        1.0  0.69690  0.30997  0.29675  1.0000
  H   H6        1.0  0.30309  0.69003  0.70325  1.0000
  H   H7        1.0  0.67089  0.38034  0.19509  1.0000
  H   H8        1.0  0.32910  0.61966  0.80491  1.0000
  H   H9        1.0  0.03645  0.20686  0.15499  1.0000
  H   H10       1.0  0.96354  0.79314  0.84501  1.0000
  H   H11       1.0  0.14425  0.05880  0.18779  1.0000
  H   H12       1.0  0.85574  0.94119  0.81221  1.0000
  H   H13       1.0  0.00857  0.14238  0.39096  1.0000
  H   H14       1.0  0.99143  0.85762  0.60904  1.0000
  H   H15       1.0  0.19908  0.06961  0.43720  1.0000
  H   H16       1.0  0.80092  0.93038  0.56279  1.0000
  H   H17       1.0  0.51484  0.70086  0.25187  1.0000
  H   H18       1.0  0.48517  0.29914  0.74812  1.0000
  H   H19       1.0  0.39071  0.72634  0.34592  1.0000
  H   H20       1.0  0.60929  0.27366  0.65408  1.0000
  H   H21       1.0  0.13078  0.85580  0.28026  1.0000
  H   H22       1.0  0.86922  0.14420  0.71973  1.0000
  H   H23       1.0  0.09397  0.93646  0.36257  1.0000
  H   H24       1.0  0.90603  0.06353  0.63743  1.0000
  H   H25       1.0  0.85418  0.64507  0.55698  1.0000
  H   H26       1.0  0.14582  0.35493  0.44302  1.0000
  H   H27       1.0  0.94722  0.60066  0.45910  1.0000
  H   H28       1.0  0.05278  0.39934  0.54090  1.0000
  C   C1        1.0  0.06699  0.50560  0.29559  1.0000
  C   C2        1.0  0.93301  0.49440  0.70441  1.0000
  C   C3        1.0  0.11355  0.51976  0.19821  1.0000
  C   C4        1.0  0.88645  0.48024  0.80179  1.0000
  C   C5        1.0  0.05104  0.62282  0.13202  1.0000
  C   C6        1.0  0.94896  0.37719  0.86798  1.0000
  C   C7        1.0  0.15001  0.57481  0.05382  1.0000
  C   C8        1.0  0.84998  0.42520  0.94618  1.0000
  C   C9        1.0  0.15103  0.62378  0.95917  1.0000
  C   C10       1.0  0.84897  0.37622  0.04083  1.0000
  C   C11       1.0  0.64789  0.16812  0.88090  1.0000
  C   C12       1.0  0.35211  0.83188  0.11910  1.0000
  C   C13       1.0  0.64851  0.12105  0.97619  1.0000
  C   C14       1.0  0.35150  0.87895  0.02381  1.0000
  C   C15       1.0  0.74438  0.01062  0.02863  1.0000
  C   C16       1.0  0.25563  0.98938  0.97137  1.0000
  C   C17       1.0  0.66248  0.03596  0.11564  1.0000
  C   C18       1.0  0.33752  0.96404  0.88436  1.0000
  C   C19       1.0  0.68932  0.96103  0.20279  1.0000
  C   C20       1.0  0.31068  0.03897  0.79721  1.0000
  S   S1        1.0  0.63821  0.14311  0.44835  1.0000
  S   S2        1.0  0.36179  0.85689  0.55165  1.0000
  N   N1        1.0  0.24216  0.41589  0.16108  1.0000
  N   N2        1.0  0.75783  0.58411  0.83892  1.0000
  N   N3        1.0  0.26288  0.45129  0.07386  1.0000
  N   N4        1.0  0.73711  0.54871  0.92614  1.0000
  N   N5        1.0  0.52100  0.20348  0.03054  1.0000
  N   N6        1.0  0.47901  0.79652  0.96946  1.0000
  N   N7        1.0  0.52742  0.15402  0.11487  1.0000
  N   N8        1.0  0.47258  0.84598  0.88513  1.0000
  O   O1        1.0  0.95878  0.59995  0.33501  1.0000
  O   O2        1.0  0.04122  0.40005  0.66499  1.0000
  O   O3        1.0  0.14592  0.39135  0.33627  1.0000
  O   O4        1.0  0.85407  0.60865  0.66373  1.0000
  O   O5        1.0  0.04897  0.73501  0.93447  1.0000
  O   O6        1.0  0.95104  0.26499  0.06553  1.0000
  O   O7        1.0  0.26332  0.54184  0.90556  1.0000
  O   O8        1.0  0.73669  0.45817  0.09444  1.0000
  O   O9        1.0  0.52555  0.28068  0.86176  1.0000
  O   O10       1.0  0.47445  0.71932  0.13825  1.0000
  O   O11       1.0  0.75709  0.10342  0.82230  1.0000
  O   O12       1.0  0.24290  0.89657  0.17770  1.0000
  O   O13       1.0  0.81684  0.85441  0.21362  1.0000
  O   O14       1.0  0.18316  0.14559  0.78638  1.0000
  O   O15       1.0  0.57562  0.00612  0.27196  1.0000
  O   O16       1.0  0.42437  0.99388  0.72804  1.0000
  O   O17       1.0  0.61132  0.32857  0.24993  1.0000
  O   O18       1.0  0.38867  0.67143  0.75007  1.0000
  O   O19       1.0  0.10584  0.15180  0.20479  1.0000
  O   O20       1.0  0.89416  0.84819  0.79520  1.0000
  O   O21       1.0  0.14706  0.08817  0.37985  1.0000
  O   O22       1.0  0.85294  0.91183  0.62015  1.0000
  O   O23       1.0  0.46461  0.17686  0.40072  1.0000
  O   O24       1.0  0.53539  0.82314  0.59927  1.0000
  O   O25       1.0  0.57131  0.16757  0.54244  1.0000
  O   O26       1.0  0.42869  0.83243  0.45756  1.0000
  O   O27       1.0  0.78592  0.22664  0.40545  1.0000
  O   O28       1.0  0.21408  0.77336  0.59455  1.0000
  O   O29       1.0  0.73146  0.99592  0.44778  1.0000
  O   O30       1.0  0.26854  0.00407  0.55222  1.0000
  O   O31       1.0  0.52551  0.70330  0.31521  1.0000
  O   O32       1.0  0.47450  0.29670  0.68479  1.0000
  O   O33       1.0  0.06566  0.85451  0.34318  1.0000
  O   O34       1.0  0.93435  0.14548  0.65682  1.0000
  O   O35       1.0  0.85217  0.66780  0.49116  1.0000
  O   O36       1.0  0.14783  0.33220  0.50884  1.0000
