data_image0
_chemical_formula_structural       ZnCuH20C14N4O12
_chemical_formula_sum              "Zn1 Cu1 H20 C14 N4 O12"
_cell_length_a       7.2224
_cell_length_b       8.49964
_cell_length_c       9.32927
_cell_angle_alpha    101.252
_cell_angle_beta     107.301
_cell_angle_gamma    110.746

_space_group_name_H-M_alt    "P 1"
_space_group_IT_number       1

loop_
  _space_group_symop_operation_xyz
  'x, y, z'

loop_
  _atom_site_type_symbol
  _atom_site_label
  _atom_site_symmetry_multiplicity
  _atom_site_fract_x
  _atom_site_fract_y
  _atom_site_fract_z
  _atom_site_occupancy
  Zn  Zn1       1.0  0.99999  0.50000  0.50000  1.0000
  Cu  Cu1       1.0  1.00000  0.00000  0.00000  1.0000
  H   H1        1.0  0.26300  0.36914  0.43809  1.0000
  H   H2        1.0  0.73699  0.63086  0.56191  1.0000
  H   H3        1.0  0.31955  0.54949  0.40166  1.0000
  H   H4        1.0  0.68044  0.45051  0.59834  1.0000
  H   H5        1.0  0.99131  0.71653  0.84199  1.0000
  H   H6        1.0  0.00868  0.28347  0.15801  1.0000
  H   H7        1.0  0.13936  0.76536  0.03510  1.0000
  H   H8        1.0  0.86064  0.23464  0.96490  1.0000
  H   H9        1.0  0.58169  0.89983  0.88635  1.0000
  H   H10       1.0  0.41830  0.10017  0.11366  1.0000
  H   H11       1.0  0.67557  0.88986  0.06770  1.0000
  H   H12       1.0  0.32443  0.11014  0.93230  1.0000
  H   H13       1.0  0.83762  0.64877  0.09226  1.0000
  H   H14       1.0  0.16238  0.35123  0.90775  1.0000
  H   H15       1.0  0.76619  0.48956  0.90540  1.0000
  H   H16       1.0  0.23380  0.51044  0.09460  1.0000
  H   H17       1.0  0.47154  0.58689  0.90249  1.0000
  H   H18       1.0  0.52846  0.41311  0.09751  1.0000
  H   H19       1.0  0.57641  0.63893  0.76041  1.0000
  H   H20       1.0  0.42359  0.36107  0.23959  1.0000
  C   C1        1.0  0.26947  0.86896  0.59965  1.0000
  C   C2        1.0  0.73054  0.13103  0.40036  1.0000
  C   C3        1.0  0.11014  0.82523  0.44057  1.0000
  C   C4        1.0  0.88987  0.17476  0.55942  1.0000
  C   C5        1.0  0.14959  0.99010  0.40137  1.0000
  C   C6        1.0  0.85044  0.00990  0.59861  1.0000
  C   C7        1.0  0.34540  0.13316  0.53698  1.0000
  C   C8        1.0  0.65461  0.86684  0.46302  1.0000
  C   C9        1.0  0.41768  0.05990  0.66247  1.0000
  C   C10       1.0  0.58234  0.94010  0.33753  1.0000
  C   C11       1.0  0.80505  0.62916  0.96575  1.0000
  C   C12       1.0  0.19494  0.37084  0.03425  1.0000
  C   C13       1.0  0.61733  0.66902  0.88866  1.0000
  C   C14       1.0  0.38267  0.33098  0.11134  1.0000
  N   N1        1.0  0.99966  0.75687  0.95609  1.0000
  N   N2        1.0  0.00033  0.24313  0.04391  1.0000
  N   N3        1.0  0.68381  0.86237  0.95852  1.0000
  N   N4        1.0  0.31618  0.13763  0.04148  1.0000
  O   O1        1.0  0.26847  0.75436  0.66832  1.0000
  O   O2        1.0  0.73153  0.24564  0.33168  1.0000
  O   O3        1.0  0.96282  0.66868  0.35962  1.0000
  O   O4        1.0  0.03719  0.33133  0.64038  1.0000
  O   O5        1.0  0.04010  0.01171  0.28202  1.0000
  O   O6        1.0  0.95993  0.98829  0.71797  1.0000
  O   O7        1.0  0.42802  0.29328  0.54346  1.0000
  O   O8        1.0  0.57198  0.70672  0.45655  1.0000
  O   O9        1.0  0.56795  0.14368  0.79805  1.0000
  O   O10       1.0  0.43205  0.85633  0.20196  1.0000
  O   O11       1.0  0.19450  0.44152  0.39140  1.0000
  O   O12       1.0  0.80549  0.55848  0.60860  1.0000
