data_image0
_chemical_formula_structural       Li4H20C32O16
_chemical_formula_sum              "Li4 H20 C32 O16"
_cell_length_a       5.09018
_cell_length_b       8.36313
_cell_length_c       16.2328
_cell_angle_alpha    90.001
_cell_angle_beta     89.9993
_cell_angle_gamma    89.6414

_space_group_name_H-M_alt    "P 1"
_space_group_IT_number       1

loop_
  _space_group_symop_operation_xyz
  'x, y, z'

loop_
  _atom_site_type_symbol
  _atom_site_label
  _atom_site_symmetry_multiplicity
  _atom_site_fract_x
  _atom_site_fract_y
  _atom_site_fract_z
  _atom_site_occupancy
  Li  Li1       1.0  0.20270  0.53416  0.55242  1.0000
  Li  Li2       1.0  0.79730  0.96584  0.05242  1.0000
  Li  Li3       1.0  0.79729  0.46584  0.44758  1.0000
  Li  Li4       1.0  0.20270  0.03417  0.94758  1.0000
  H   H1        1.0  0.44631  0.31117  0.76049  1.0000
  H   H2        1.0  0.55368  0.18884  0.26050  1.0000
  H   H3        1.0  0.55368  0.68884  0.23951  1.0000
  H   H4        1.0  0.44631  0.81115  0.73950  1.0000
  H   H5        1.0  0.95389  0.52766  0.94075  1.0000
  H   H6        1.0  0.04610  0.97234  0.44076  1.0000
  H   H7        1.0  0.04613  0.47234  0.05924  1.0000
  H   H8        1.0  0.95389  0.02766  0.55925  1.0000
  H   H9        1.0  0.19348  0.66706  0.82987  1.0000
  H   H10       1.0  0.80651  0.83295  0.32986  1.0000
  H   H11       1.0  0.80652  0.33294  0.17013  1.0000
  H   H12       1.0  0.19348  0.16706  0.67014  1.0000
  H   H13       1.0  0.07067  0.62430  0.68439  1.0000
  H   H14       1.0  0.92933  0.87570  0.18439  1.0000
  H   H15       1.0  0.92933  0.37570  0.31560  1.0000
  H   H16       1.0  0.07067  0.12429  0.81561  1.0000
  H   H17       1.0  0.58038  0.24909  0.03801  1.0000
  H   H18       1.0  0.41962  0.25092  0.53802  1.0000
  H   H19       1.0  0.41962  0.75092  0.96199  1.0000
  H   H20       1.0  0.58038  0.74908  0.46198  1.0000
  C   C1        1.0  0.75042  0.46354  0.71232  1.0000
  C   C2        1.0  0.24958  0.03646  0.21232  1.0000
  C   C3        1.0  0.24957  0.53646  0.28768  1.0000
  C   C4        1.0  0.75042  0.96353  0.78768  1.0000
  C   C5        1.0  0.60998  0.38886  0.77542  1.0000
  C   C6        1.0  0.39002  0.11115  0.27543  1.0000
  C   C7        1.0  0.39002  0.61115  0.22458  1.0000
  C   C8        1.0  0.60998  0.88885  0.72457  1.0000
  C   C9        1.0  0.68439  0.40973  0.85775  1.0000
  C   C10       1.0  0.31561  0.09028  0.35775  1.0000
  C   C11       1.0  0.31561  0.59028  0.14225  1.0000
  C   C12       1.0  0.68439  0.90972  0.64225  1.0000
  C   C13       1.0  0.89555  0.51017  0.87703  1.0000
  C   C14       1.0  0.10445  0.98983  0.37704  1.0000
  C   C15       1.0  0.10446  0.48983  0.12297  1.0000
  C   C16       1.0  0.89555  0.01017  0.62296  1.0000
  C   C17       1.0  0.03201  0.58747  0.81453  1.0000
  C   C18       1.0  0.96799  0.91253  0.31453  1.0000
  C   C19       1.0  0.96800  0.41252  0.18546  1.0000
  C   C20       1.0  0.03200  0.08747  0.68547  1.0000
  C   C21       1.0  0.96224  0.56281  0.73256  1.0000
  C   C22       1.0  0.03776  0.93719  0.23256  1.0000
  C   C23       1.0  0.03775  0.43719  0.26744  1.0000
  C   C24       1.0  0.96224  0.06280  0.76744  1.0000
  C   C25       1.0  0.67896  0.43615  0.62404  1.0000
  C   C26       1.0  0.32104  0.06385  0.12404  1.0000
  C   C27       1.0  0.32103  0.56385  0.37596  1.0000
  C   C28       1.0  0.67896  0.93614  0.87596  1.0000
  C   C29       1.0  0.54975  0.31692  0.92301  1.0000
  C   C30       1.0  0.45025  0.18309  0.42301  1.0000
  C   C31       1.0  0.45027  0.68310  0.07700  1.0000
  C   C32       1.0  0.54974  0.81690  0.57699  1.0000
  O   O1        1.0  0.84138  0.47611  0.56825  1.0000
  O   O2        1.0  0.15861  0.02391  0.06825  1.0000
  O   O3        1.0  0.15861  0.52389  0.43175  1.0000
  O   O4        1.0  0.84139  0.97610  0.93175  1.0000
  O   O5        1.0  0.45329  0.37599  0.60785  1.0000
  O   O6        1.0  0.54670  0.12402  0.10785  1.0000
  O   O7        1.0  0.54670  0.62401  0.39215  1.0000
  O   O8        1.0  0.45330  0.87598  0.89215  1.0000
  O   O9        1.0  0.65469  0.33201  0.99729  1.0000
  O   O10       1.0  0.34531  0.16800  0.49729  1.0000
  O   O11       1.0  0.34531  0.66801  0.00272  1.0000
  O   O12       1.0  0.65470  0.83200  0.50271  1.0000
  O   O13       1.0  0.35946  0.22876  0.90840  1.0000
  O   O14       1.0  0.64053  0.27125  0.40841  1.0000
  O   O15       1.0  0.64054  0.77124  0.09160  1.0000
  O   O16       1.0  0.35947  0.72876  0.59159  1.0000
