data_image0
_chemical_formula_structural       Cd4H44C40S4N8O22
_chemical_formula_sum              "Cd4 H44 C40 S4 N8 O22"
_cell_length_a       9.54938
_cell_length_b       13.2174
_cell_length_c       13.5956
_cell_angle_alpha    118.363
_cell_angle_beta     90
_cell_angle_gamma    111.176

_space_group_name_H-M_alt    "P 1"
_space_group_IT_number       1

loop_
  _space_group_symop_operation_xyz
  'x, y, z'

loop_
  _atom_site_type_symbol
  _atom_site_label
  _atom_site_symmetry_multiplicity
  _atom_site_fract_x
  _atom_site_fract_y
  _atom_site_fract_z
  _atom_site_occupancy
  Cd  Cd1       1.0  0.17905  0.50441  0.85461  1.0000
  Cd  Cd2       1.0  0.67469  0.49555  0.14536  1.0000
  Cd  Cd3       1.0  0.68090  0.49271  0.61432  1.0000
  Cd  Cd4       1.0  0.18818  0.50727  0.38566  1.0000
  H   H1        1.0  0.42573  0.80232  0.98359  1.0000
  H   H2        1.0  0.62327  0.19761  0.01651  1.0000
  H   H3        1.0  0.43459  0.01476  0.10422  1.0000
  H   H4        1.0  0.41971  0.98516  0.89582  1.0000
  H   H5        1.0  0.94514  0.83687  0.08068  1.0000
  H   H6        1.0  0.10815  0.16303  0.91927  1.0000
  H   H7        1.0  0.96111  0.63144  0.97152  1.0000
  H   H8        1.0  0.32953  0.36845  0.02844  1.0000
  H   H9        1.0  0.43570  0.18229  0.20939  1.0000
  H   H10       1.0  0.25318  0.81767  0.79068  1.0000
  H   H11       1.0  0.41807  0.38652  0.29475  1.0000
  H   H12       1.0  0.03129  0.61344  0.70528  1.0000
  H   H13       1.0  0.94162  0.22055  0.22004  1.0000
  H   H14       1.0  0.72085  0.77945  0.77996  1.0000
  H   H15       1.0  0.93641  0.00573  0.12267  1.0000
  H   H16       1.0  0.93050  0.99429  0.87734  1.0000
  H   H17       1.0  0.42268  0.37905  0.77871  1.0000
  H   H18       1.0  0.04400  0.62114  0.22133  1.0000
  H   H19       1.0  0.43591  0.17576  0.69521  1.0000
  H   H20       1.0  0.26035  0.82450  0.30489  1.0000
  H   H21       1.0  0.93613  0.00459  0.62107  1.0000
  H   H22       1.0  0.93143  0.99534  0.37871  1.0000
  H   H23       1.0  0.94422  0.21876  0.71077  1.0000
  H   H24       1.0  0.72549  0.78110  0.28902  1.0000
  H   H25       1.0  0.94616  0.62871  0.46727  1.0000
  H   H26       1.0  0.31748  0.37142  0.53282  1.0000
  H   H27       1.0  0.93543  0.83543  0.56155  1.0000
  H   H28       1.0  0.09991  0.16473  0.43856  1.0000
  H   H29       1.0  0.43373  0.00337  0.61665  1.0000
  H   H30       1.0  0.43018  0.99667  0.38328  1.0000
  H   H31       1.0  0.42121  0.78609  0.52107  1.0000
  H   H32       1.0  0.63500  0.21388  0.47887  1.0000
  H   H33       1.0  0.20130  0.50919  0.08369  1.0000
  H   H34       1.0  0.69198  0.49076  0.91627  1.0000
  H   H35       1.0  0.03635  0.43878  0.01126  1.0000
  H   H36       1.0  0.59729  0.56103  0.98864  1.0000
  H   H37       1.0  0.49309  0.68125  0.98928  1.0000
  H   H38       1.0  0.81180  0.31867  0.01074  1.0000
  H   H39       1.0  0.49596  0.60011  0.85634  1.0000
  H   H40       1.0  0.89585  0.39992  0.14368  1.0000
  H   H41       1.0  0.65989  0.54654  0.43417  1.0000
  H   H42       1.0  0.11351  0.45347  0.56589  1.0000
  H   H43       1.0  0.56366  0.60428  0.52483  1.0000
  H   H44       1.0  0.95951  0.39569  0.47526  1.0000
  C   C1        1.0  0.32264  0.81335  0.01157  1.0000
  C   C2        1.0  0.50912  0.18655  0.98849  1.0000
  C   C3        1.0  0.32595  0.93316  0.07636  1.0000
  C   C4        1.0  0.39261  0.06675  0.92368  1.0000
  C   C5        1.0  0.18860  0.94665  0.10025  1.0000
  C   C6        1.0  0.24179  0.05327  0.89977  1.0000
  C   C7        1.0  0.05572  0.83545  0.06284  1.0000
  C   C8        1.0  0.22014  0.16448  0.93715  1.0000
  C   C9        1.0  0.06302  0.71888  0.00167  1.0000
  C   C10       1.0  0.34401  0.28103  0.99834  1.0000
  C   C11       1.0  0.18572  0.07272  0.15766  1.0000
  C   C12       1.0  0.11280  0.92725  0.84236  1.0000
  C   C13       1.0  0.32194  0.18301  0.20731  1.0000
  C   C14       1.0  0.13868  0.81695  0.79272  1.0000
  C   C15       1.0  0.31404  0.29953  0.25730  1.0000
  C   C16       1.0  0.01427  0.70046  0.74273  1.0000
  C   C17       1.0  0.04812  0.20702  0.21486  1.0000
  C   C18       1.0  0.84089  0.79300  0.78514  1.0000
  C   C19       1.0  0.04668  0.08710  0.16138  1.0000
  C   C20       1.0  0.95938  0.91291  0.83863  1.0000
  C   C21       1.0  0.31638  0.29453  0.74448  1.0000
  C   C22       1.0  0.02208  0.70557  0.25550  1.0000
  C   C23       1.0  0.32257  0.17749  0.69643  1.0000
  C   C24       1.0  0.14523  0.82267  0.30360  1.0000
  C   C25       1.0  0.18536  0.06810  0.65082  1.0000
  C   C26       1.0  0.11725  0.93199  0.34916  1.0000
  C   C27       1.0  0.04757  0.08457  0.65611  1.0000
  C   C28       1.0  0.96296  0.91543  0.34375  1.0000
  C   C29       1.0  0.05063  0.20483  0.70612  1.0000
  C   C30       1.0  0.84586  0.79510  0.29371  1.0000
  C   C31       1.0  0.05151  0.71428  0.50199  1.0000
  C   C32       1.0  0.33721  0.28583  0.49808  1.0000
  C   C33       1.0  0.04736  0.83201  0.55520  1.0000
  C   C34       1.0  0.21525  0.16811  0.44489  1.0000
  C   C35       1.0  0.18491  0.94095  0.59782  1.0000
  C   C36       1.0  0.24388  0.05917  0.40220  1.0000
  C   C37       1.0  0.32219  0.92390  0.58645  1.0000
  C   C38       1.0  0.39817  0.07617  0.41354  1.0000
  C   C39       1.0  0.31726  0.80284  0.53297  1.0000
  C   C40       1.0  0.51434  0.19720  0.46702  1.0000
  S   S1        1.0  0.39634  0.62555  0.69872  1.0000
  S   S2        1.0  0.77087  0.37452  0.30133  1.0000
  S   S3        1.0  0.78473  0.36601  0.72855  1.0000
  S   S4        1.0  0.41871  0.63395  0.27142  1.0000
  N   N1        1.0  0.19403  0.70740  0.97402  1.0000
  N   N2        1.0  0.48648  0.29252  0.02602  1.0000
  N   N3        1.0  0.18007  0.31181  0.26207  1.0000
  N   N4        1.0  0.86803  0.68820  0.73795  1.0000
  N   N5        1.0  0.18351  0.30883  0.75022  1.0000
  N   N6        1.0  0.87488  0.69119  0.24969  1.0000
  N   N7        1.0  0.18394  0.69959  0.49023  1.0000
  N   N8        1.0  0.48429  0.30046  0.50979  1.0000
  O   O1        1.0  0.23686  0.55073  0.70508  1.0000
  O   O2        1.0  0.68606  0.44922  0.29492  1.0000
  O   O3        1.0  0.44653  0.76087  0.78116  1.0000
  O   O4        1.0  0.68586  0.23917  0.21892  1.0000
  O   O5        1.0  0.50485  0.57897  0.72878  1.0000
  O   O6        1.0  0.92592  0.42118  0.27126  1.0000
  O   O7        1.0  0.39328  0.59693  0.57884  1.0000
  O   O8        1.0  0.79648  0.40317  0.42122  1.0000
  O   O9        1.0  0.83935  0.39989  0.63984  1.0000
  O   O10       1.0  0.43945  0.60012  0.36016  1.0000
  O   O11       1.0  0.71270  0.22869  0.67958  1.0000
  O   O12       1.0  0.48403  0.77127  0.32035  1.0000
  O   O13       1.0  0.67362  0.42485  0.77613  1.0000
  O   O14       1.0  0.24877  0.57515  0.22384  1.0000
  O   O15       1.0  0.91838  0.42471  0.82506  1.0000
  O   O16       1.0  0.49366  0.57521  0.17491  1.0000
  O   O17       1.0  0.14346  0.45700  0.00195  1.0000
  O   O18       1.0  0.68621  0.54287  0.99799  1.0000
  O   O19       1.0  0.46113  0.59554  0.92551  1.0000
  O   O20       1.0  0.86557  0.40441  0.07447  1.0000
  O   O21       1.0  0.66243  0.59542  0.51697  1.0000
  O   O22       1.0  0.06716  0.40457  0.48309  1.0000
