data_image0
_chemical_formula_structural       CoH26C34N14Cl2
_chemical_formula_sum              "Co1 H26 C34 N14 Cl2"
_cell_length_a       8.29133
_cell_length_b       8.69394
_cell_length_c       11.9444
_cell_angle_alpha    81.7543
_cell_angle_beta     87.9697
_cell_angle_gamma    66.9791

_space_group_name_H-M_alt    "P 1"
_space_group_IT_number       1

loop_
  _space_group_symop_operation_xyz
  'x, y, z'

loop_
  _atom_site_type_symbol
  _atom_site_label
  _atom_site_symmetry_multiplicity
  _atom_site_fract_x
  _atom_site_fract_y
  _atom_site_fract_z
  _atom_site_occupancy
  Co  Co1       1.0  0.00000  0.00000  0.50000  1.0000
  H   H1        1.0  0.16846  0.62658  0.58449  1.0000
  H   H2        1.0  0.83154  0.37342  0.41551  1.0000
  H   H3        1.0  0.26355  0.38007  0.30360  1.0000
  H   H4        1.0  0.73645  0.61993  0.69640  1.0000
  H   H5        1.0  0.05210  0.92566  0.27065  1.0000
  H   H6        1.0  0.94790  0.07434  0.72935  1.0000
  H   H7        1.0  0.88391  0.90028  0.13338  1.0000
  H   H8        1.0  0.11610  0.09972  0.86661  1.0000
  H   H9        1.0  0.82401  0.91067  0.93011  1.0000
  H   H10       1.0  0.17600  0.08933  0.06989  1.0000
  H   H11       1.0  0.01472  0.68514  0.82459  1.0000
  H   H12       1.0  0.98528  0.31486  0.17541  1.0000
  H   H13       1.0  0.33965  0.43932  0.12345  1.0000
  H   H14       1.0  0.66034  0.56067  0.87655  1.0000
  H   H15       1.0  0.61055  0.14028  0.66367  1.0000
  H   H16       1.0  0.38945  0.85972  0.33633  1.0000
  H   H17       1.0  0.40574  0.29788  0.60337  1.0000
  H   H18       1.0  0.59426  0.70212  0.39663  1.0000
  H   H19       1.0  0.52843  0.92420  0.84057  1.0000
  H   H20       1.0  0.47157  0.07580  0.15944  1.0000
  H   H21       1.0  0.39366  0.71170  0.84733  1.0000
  H   H22       1.0  0.60634  0.28830  0.15267  1.0000
  H   H23       1.0  0.18542  0.73937  0.69485  1.0000
  H   H24       1.0  0.81459  0.26063  0.30515  1.0000
  H   H25       1.0  0.24490  0.16373  0.52393  1.0000
  H   H26       1.0  0.75510  0.83627  0.47607  1.0000
  C   C1        1.0  0.17088  0.63538  0.49289  1.0000
  C   C2        1.0  0.82912  0.36462  0.50711  1.0000
  C   C3        1.0  0.22038  0.50037  0.33646  1.0000
  C   C4        1.0  0.77961  0.49963  0.66354  1.0000
  C   C5        1.0  0.14652  0.65536  0.26550  1.0000
  C   C6        1.0  0.85348  0.34464  0.73450  1.0000
  C   C7        1.0  0.09747  0.79953  0.31861  1.0000
  C   C8        1.0  0.90254  0.20047  0.68139  1.0000
  C   C9        1.0  0.11562  0.66751  0.14330  1.0000
  C   C10       1.0  0.88438  0.33249  0.85670  1.0000
  C   C11       1.0  0.97175  0.80183  0.08711  1.0000
  C   C12       1.0  0.02826  0.19817  0.91288  1.0000
  C   C13       1.0  0.93718  0.80730  0.97295  1.0000
  C   C14       1.0  0.06282  0.19271  0.02704  1.0000
  C   C15       1.0  0.04584  0.68033  0.91322  1.0000
  C   C16       1.0  0.95416  0.31967  0.08678  1.0000
  C   C17       1.0  0.19322  0.54874  0.96695  1.0000
  C   C18       1.0  0.80678  0.45126  0.03306  1.0000
  C   C19       1.0  0.22594  0.54242  0.08201  1.0000
  C   C20       1.0  0.77405  0.45757  0.91799  1.0000
  C   C21       1.0  0.31355  0.41879  0.90454  1.0000
  C   C22       1.0  0.68644  0.58120  0.09546  1.0000
  C   C23       1.0  0.46776  0.19735  0.67382  1.0000
  C   C24       1.0  0.53224  0.80264  0.32618  1.0000
  C   C25       1.0  0.39664  0.06075  0.68099  1.0000
  C   C26       1.0  0.60336  0.93925  0.31901  1.0000
  C   C27       1.0  0.44188  0.93010  0.77209  1.0000
  C   C28       1.0  0.55812  0.06990  0.22791  1.0000
  C   C29       1.0  0.36842  0.81088  0.77547  1.0000
  C   C30       1.0  0.63158  0.18912  0.22453  1.0000
  C   C31       1.0  0.25280  0.82477  0.68945  1.0000
  C   C32       1.0  0.74720  0.17523  0.31055  1.0000
  C   C33       1.0  0.28225  0.06503  0.59688  1.0000
  C   C34       1.0  0.71775  0.93497  0.40312  1.0000
  N   N1        1.0  0.10535  0.79129  0.43237  1.0000
  N   N2        1.0  0.89466  0.20871  0.56763  1.0000
  N   N3        1.0  0.23384  0.49135  0.44893  1.0000
  N   N4        1.0  0.76616  0.50865  0.55107  1.0000
  N   N5        1.0  0.29548  0.41021  0.79427  1.0000
  N   N6        1.0  0.70451  0.58978  0.20573  1.0000
  N   N7        1.0  0.43652  0.27350  0.77818  1.0000
  N   N8        1.0  0.56348  0.72650  0.22182  1.0000
  N   N9        1.0  0.53754  0.19933  0.87126  1.0000
  N   N10       1.0  0.46246  0.80067  0.12875  1.0000
  N   N11       1.0  0.46155  0.29028  0.95175  1.0000
  N   N12       1.0  0.53844  0.70971  0.04825  1.0000
  N   N13       1.0  0.20823  0.94998  0.60094  1.0000
  N   N14       1.0  0.79177  0.05003  0.39906  1.0000
  Cl  Cl1       1.0  0.14093  0.14108  0.34536  1.0000
  Cl  Cl2       1.0  0.85907  0.85892  0.65464  1.0000
