data_image0
_chemical_formula_structural       MnH20C24N18O4
_chemical_formula_sum              "Mn1 H20 C24 N18 O4"
_cell_length_a       7.34615
_cell_length_b       7.35643
_cell_length_c       14.2637
_cell_angle_alpha    76.7698
_cell_angle_beta     79.5787
_cell_angle_gamma    63.6099

_space_group_name_H-M_alt    "P 1"
_space_group_IT_number       1

loop_
  _space_group_symop_operation_xyz
  'x, y, z'

loop_
  _atom_site_type_symbol
  _atom_site_label
  _atom_site_symmetry_multiplicity
  _atom_site_fract_x
  _atom_site_fract_y
  _atom_site_fract_z
  _atom_site_occupancy
  Mn  Mn1       1.0  0.50448  0.99921  0.98891  1.0000
  H   H1        1.0  0.62955  0.60341  0.53692  1.0000
  H   H2        1.0  0.37238  0.39411  0.46554  1.0000
  H   H3        1.0  0.41152  0.83583  0.50787  1.0000
  H   H4        1.0  0.58890  0.16165  0.49625  1.0000
  H   H5        1.0  0.65194  0.73380  0.19792  1.0000
  H   H6        1.0  0.34798  0.27088  0.80269  1.0000
  H   H7        1.0  0.20270  0.32575  0.12774  1.0000
  H   H8        1.0  0.79097  0.67204  0.87443  1.0000
  H   H9        1.0  0.10133  0.34496  0.30472  1.0000
  H   H10       1.0  0.89446  0.65459  0.69963  1.0000
  H   H11       1.0  0.91011  0.37077  0.45165  1.0000
  H   H12       1.0  0.09001  0.62872  0.54927  1.0000
  H   H13       1.0  0.12653  0.13792  0.48212  1.0000
  H   H14       1.0  0.87320  0.86099  0.51933  1.0000
  H   H15       1.0  0.86576  0.21483  0.79065  1.0000
  H   H16       1.0  0.13385  0.78287  0.20960  1.0000
  H   H17       1.0  0.34062  0.63605  0.85544  1.0000
  H   H18       1.0  0.66204  0.36277  0.14385  1.0000
  H   H19       1.0  0.45092  0.63504  0.67908  1.0000
  H   H20       1.0  0.54987  0.36463  0.32063  1.0000
  C   C1        1.0  0.27048  0.72922  0.03083  1.0000
  C   C2        1.0  0.73114  0.27243  0.96343  1.0000
  C   C3        1.0  0.95266  0.74189  0.03018  1.0000
  C   C4        1.0  0.04905  0.25986  0.96462  1.0000
  C   C5        1.0  0.47659  0.88409  0.31966  1.0000
  C   C6        1.0  0.52294  0.11657  0.68320  1.0000
  C   C7        1.0  0.52838  0.87074  0.22144  1.0000
  C   C8        1.0  0.47061  0.13228  0.78059  1.0000
  C   C9        1.0  0.27877  0.19689  0.18331  1.0000
  C   C10       1.0  0.71686  0.80267  0.81947  1.0000
  C   C11       1.0  0.22517  0.20678  0.28165  1.0000
  C   C12       1.0  0.77093  0.79408  0.72162  1.0000
  C   C13       1.0  0.60333  0.71010  0.39211  1.0000
  C   C14       1.0  0.39610  0.29040  0.61075  1.0000
  C   C15       1.0  0.05546  0.08191  0.66821  1.0000
  C   C16       1.0  0.94483  0.91732  0.33214  1.0000
  C   C17       1.0  0.99748  0.08314  0.76708  1.0000
  C   C18       1.0  0.00296  0.91514  0.23324  1.0000
  C   C19       1.0  0.25766  0.76692  0.80178  1.0000
  C   C20       1.0  0.74379  0.23208  0.19794  1.0000
  C   C21       1.0  0.31845  0.76575  0.70318  1.0000
  C   C22       1.0  0.68234  0.23383  0.29650  1.0000
  C   C23       1.0  0.93064  0.26009  0.59683  1.0000
  C   C24       1.0  0.06945  0.73954  0.40402  1.0000
  N   N1        1.0  0.42824  0.02679  0.15356  1.0000
  N   N2        1.0  0.56858  0.97567  0.85097  1.0000
  N   N3        1.0  0.32173  0.05020  0.35034  1.0000
  N   N4        1.0  0.67786  0.95037  0.65158  1.0000
  N   N5        1.0  0.54277  0.71963  0.48521  1.0000
  N   N6        1.0  0.45770  0.27893  0.51769  1.0000
  N   N7        1.0  0.77790  0.80751  0.01903  1.0000
  N   N8        1.0  0.22621  0.19310  0.97052  1.0000
  N   N9        1.0  0.14124  0.64854  0.04817  1.0000
  N   N10       1.0  0.85694  0.35517  0.95405  1.0000
  N   N11       1.0  0.40025  0.78754  0.01873  1.0000
  N   N12       1.0  0.60418  0.21252  0.96901  1.0000
  N   N13       1.0  0.99486  0.25444  0.50364  1.0000
  N   N14       1.0  0.00488  0.74498  0.49715  1.0000
  N   N15       1.0  0.21820  0.92352  0.63594  1.0000
  N   N16       1.0  0.78212  0.07616  0.36398  1.0000
  N   N17       1.0  0.09802  0.92633  0.83438  1.0000
  N   N18       1.0  0.90309  0.07183  0.16570  1.0000
  O   O1        1.0  0.76200  0.56796  0.36150  1.0000
  O   O2        1.0  0.23716  0.43413  0.63999  1.0000
  O   O3        1.0  0.77226  0.40252  0.62732  1.0000
  O   O4        1.0  0.22860  0.59766  0.37352  1.0000
