data_image0
_chemical_formula_structural       Cu4H28C28N16O4
_chemical_formula_sum              "Cu4 H28 C28 N16 O4"
_cell_length_a       4.82364
_cell_length_b       8.72381
_cell_length_c       19.3618
_cell_angle_alpha    89.9995
_cell_angle_beta     92.132
_cell_angle_gamma    90.0008

_space_group_name_H-M_alt    "P 1"
_space_group_IT_number       1

loop_
  _space_group_symop_operation_xyz
  'x, y, z'

loop_
  _atom_site_type_symbol
  _atom_site_label
  _atom_site_symmetry_multiplicity
  _atom_site_fract_x
  _atom_site_fract_y
  _atom_site_fract_z
  _atom_site_occupancy
  Cu  Cu1       1.0  0.26992  0.74429  0.26774  1.0000
  Cu  Cu2       1.0  0.73009  0.24429  0.23226  1.0000
  Cu  Cu3       1.0  0.73007  0.25571  0.73226  1.0000
  Cu  Cu4       1.0  0.26990  0.75570  0.76774  1.0000
  H   H1        1.0  0.36877  0.91922  0.39608  1.0000
  H   H2        1.0  0.63125  0.41923  0.10392  1.0000
  H   H3        1.0  0.63123  0.08077  0.60392  1.0000
  H   H4        1.0  0.36876  0.58078  0.89608  1.0000
  H   H5        1.0  0.23646  0.90509  0.51965  1.0000
  H   H6        1.0  0.76356  0.40509  0.98035  1.0000
  H   H7        1.0  0.76355  0.09490  0.48035  1.0000
  H   H8        1.0  0.23646  0.59491  0.01965  1.0000
  H   H9        1.0  0.63735  0.55784  0.45778  1.0000
  H   H10       1.0  0.36264  0.05784  0.04222  1.0000
  H   H11       1.0  0.36264  0.44216  0.54222  1.0000
  H   H12       1.0  0.63736  0.94216  0.95778  1.0000
  H   H13       1.0  0.80053  0.58289  0.33824  1.0000
  H   H14       1.0  0.19948  0.08289  0.16176  1.0000
  H   H15       1.0  0.19947  0.41711  0.66176  1.0000
  H   H16       1.0  0.80052  0.91711  0.83824  1.0000
  H   H17       1.0  0.22260  0.73559  0.61513  1.0000
  H   H18       1.0  0.77738  0.23559  0.88487  1.0000
  H   H19       1.0  0.77739  0.26441  0.38487  1.0000
  H   H20       1.0  0.22262  0.76441  0.11513  1.0000
  H   H21       1.0  0.83650  0.61757  0.69793  1.0000
  H   H22       1.0  0.16347  0.11757  0.80207  1.0000
  H   H23       1.0  0.16350  0.38243  0.30207  1.0000
  H   H24       1.0  0.83652  0.88243  0.19793  1.0000
  H   H25       1.0  0.78299  0.80141  0.70103  1.0000
  H   H26       1.0  0.21700  0.30142  0.79896  1.0000
  H   H27       1.0  0.21701  0.19858  0.29897  1.0000
  H   H28       1.0  0.78300  0.69858  0.20104  1.0000
  C   C1        1.0  0.20996  0.83947  0.41262  1.0000
  C   C2        1.0  0.79005  0.33947  0.08738  1.0000
  C   C3        1.0  0.79004  0.16053  0.58738  1.0000
  C   C4        1.0  0.20996  0.66053  0.91262  1.0000
  C   C5        1.0  0.13510  0.83105  0.48117  1.0000
  C   C6        1.0  0.86491  0.33106  0.01883  1.0000
  C   C7        1.0  0.86491  0.16894  0.51883  1.0000
  C   C8        1.0  0.13509  0.66895  0.98117  1.0000
  C   C9        1.0  0.92611  0.72863  0.49921  1.0000
  C   C10       1.0  0.07389  0.22863  0.00079  1.0000
  C   C11       1.0  0.07389  0.27137  0.50079  1.0000
  C   C12       1.0  0.92612  0.77137  0.99921  1.0000
  C   C13       1.0  0.80136  0.63904  0.44679  1.0000
  C   C14       1.0  0.19864  0.13904  0.05321  1.0000
  C   C15       1.0  0.19863  0.36096  0.55321  1.0000
  C   C16       1.0  0.80136  0.86097  0.94679  1.0000
  C   C17       1.0  0.89294  0.65209  0.37986  1.0000
  C   C18       1.0  0.10706  0.15210  0.12013  1.0000
  C   C19       1.0  0.10705  0.34790  0.62013  1.0000
  C   C20       1.0  0.89294  0.84790  0.87987  1.0000
  C   C21       1.0  0.82361  0.71485  0.57083  1.0000
  C   C22       1.0  0.17639  0.21485  0.92916  1.0000
  C   C23       1.0  0.17640  0.28515  0.42917  1.0000
  C   C24       1.0  0.82361  0.78516  0.07084  1.0000
  C   C25       1.0  0.43819  0.56122  0.24408  1.0000
  C   C26       1.0  0.56183  0.06122  0.25591  1.0000
  C   C27       1.0  0.56181  0.43878  0.75591  1.0000
  C   C28       1.0  0.43817  0.93879  0.74408  1.0000
  N   N1        1.0  0.09469  0.75049  0.36232  1.0000
  N   N2        1.0  0.90533  0.25050  0.13768  1.0000
  N   N3        1.0  0.90532  0.24951  0.63768  1.0000
  N   N4        1.0  0.09467  0.74951  0.86232  1.0000
  N   N5        1.0  0.01323  0.73644  0.62308  1.0000
  N   N6        1.0  0.98676  0.23644  0.87692  1.0000
  N   N7        1.0  0.98677  0.26355  0.37692  1.0000
  N   N8        1.0  0.01324  0.76356  0.12308  1.0000
  N   N9        1.0  0.93460  0.72130  0.69225  1.0000
  N   N10       1.0  0.06538  0.22130  0.80775  1.0000
  N   N11       1.0  0.06540  0.27869  0.30775  1.0000
  N   N12       1.0  0.93462  0.77870  0.19225  1.0000
  N   N13       1.0  0.55082  0.44388  0.23300  1.0000
  N   N14       1.0  0.44920  0.94387  0.26700  1.0000
  N   N15       1.0  0.44919  0.55612  0.76700  1.0000
  N   N16       1.0  0.55078  0.05612  0.73300  1.0000
  O   O1        1.0  0.57492  0.68538  0.58104  1.0000
  O   O2        1.0  0.42507  0.18538  0.91896  1.0000
  O   O3        1.0  0.42507  0.31461  0.41896  1.0000
  O   O4        1.0  0.57494  0.81463  0.08104  1.0000
