data_image0
_chemical_formula_structural       K8Pr8H8C32O68
_chemical_formula_sum              "K8 Pr8 H8 C32 O68"
_cell_length_a       8.51998
_cell_length_b       12.2064
_cell_length_c       15.776
_cell_angle_alpha    93.1962
_cell_angle_beta     90
_cell_angle_gamma    90

_space_group_name_H-M_alt    "P 1"
_space_group_IT_number       1

loop_
  _space_group_symop_operation_xyz
  'x, y, z'

loop_
  _atom_site_type_symbol
  _atom_site_label
  _atom_site_symmetry_multiplicity
  _atom_site_fract_x
  _atom_site_fract_y
  _atom_site_fract_z
  _atom_site_occupancy
  K   K1        1.0  0.15344  0.24867  0.14590  1.0000
  K   K2        1.0  0.65344  0.25133  0.35411  1.0000
  K   K3        1.0  0.84656  0.75134  0.85410  1.0000
  K   K4        1.0  0.34656  0.74867  0.64589  1.0000
  K   K5        1.0  0.25331  0.25605  0.73514  1.0000
  K   K6        1.0  0.75331  0.24395  0.76486  1.0000
  K   K7        1.0  0.74669  0.74395  0.26486  1.0000
  K   K8        1.0  0.24669  0.75605  0.23514  1.0000
  Pr  Pr1       1.0  0.32545  0.54721  0.90849  1.0000
  Pr  Pr2       1.0  0.82545  0.95279  0.59151  1.0000
  Pr  Pr3       1.0  0.67455  0.45279  0.09151  1.0000
  Pr  Pr4       1.0  0.17455  0.04721  0.40849  1.0000
  Pr  Pr5       1.0  0.83152  0.48244  0.60089  1.0000
  Pr  Pr6       1.0  0.33152  0.01756  0.89911  1.0000
  Pr  Pr7       1.0  0.16848  0.51756  0.39911  1.0000
  Pr  Pr8       1.0  0.66848  0.98244  0.10089  1.0000
  H   H1        1.0  0.40720  0.23591  0.53546  1.0000
  H   H2        1.0  0.90720  0.26409  0.96454  1.0000
  H   H3        1.0  0.59280  0.76409  0.46454  1.0000
  H   H4        1.0  0.09280  0.73591  0.03546  1.0000
  H   H5        1.0  0.48038  0.31021  0.60979  1.0000
  H   H6        1.0  0.98039  0.18979  0.89021  1.0000
  H   H7        1.0  0.51961  0.68979  0.39021  1.0000
  H   H8        1.0  0.01962  0.81021  0.10979  1.0000
  C   C1        1.0  0.63336  0.56130  0.77615  1.0000
  C   C2        1.0  0.13337  0.93870  0.72386  1.0000
  C   C3        1.0  0.36664  0.43870  0.22385  1.0000
  C   C4        1.0  0.86663  0.06130  0.27614  1.0000
  C   C5        1.0  0.54808  0.45560  0.74336  1.0000
  C   C6        1.0  0.04808  0.04440  0.75664  1.0000
  C   C7        1.0  0.45192  0.54440  0.25664  1.0000
  C   C8        1.0  0.95192  0.95560  0.24336  1.0000
  C   C9        1.0  0.46368  0.28296  0.95466  1.0000
  C   C10       1.0  0.96368  0.21704  0.54534  1.0000
  C   C11       1.0  0.53632  0.71704  0.04534  1.0000
  C   C12       1.0  0.03632  0.78296  0.45466  1.0000
  C   C13       1.0  0.56810  0.20774  0.00702  1.0000
  C   C14       1.0  0.06810  0.29226  0.49298  1.0000
  C   C15       1.0  0.43189  0.79226  0.99298  1.0000
  C   C16       1.0  0.93190  0.70773  0.50702  1.0000
  C   C17       1.0  0.03800  0.44955  0.01960  1.0000
  C   C18       1.0  0.53801  0.05045  0.48040  1.0000
  C   C19       1.0  0.96199  0.55045  0.98040  1.0000
  C   C20       1.0  0.46200  0.94955  0.51960  1.0000
  C   C21       1.0  0.05992  0.45793  0.76788  1.0000
  C   C22       1.0  0.55992  0.04207  0.73212  1.0000
  C   C23       1.0  0.94008  0.54207  0.23212  1.0000
  C   C24       1.0  0.44008  0.95793  0.26788  1.0000
  C   C25       1.0  0.11768  0.56652  0.73156  1.0000
  C   C26       1.0  0.61767  0.93349  0.76844  1.0000
  C   C27       1.0  0.88233  0.43348  0.26844  1.0000
  C   C28       1.0  0.38233  0.06651  0.23156  1.0000
  C   C29       1.0  0.52485  0.45019  0.47081  1.0000
  C   C30       1.0  0.02485  0.04981  0.02919  1.0000
  C   C31       1.0  0.47515  0.54981  0.52919  1.0000
  C   C32       1.0  0.97515  0.95019  0.97081  1.0000
  O   O1        1.0  0.42487  0.42979  0.78169  1.0000
  O   O2        1.0  0.92487  0.07021  0.71832  1.0000
  O   O3        1.0  0.57512  0.57021  0.21831  1.0000
  O   O4        1.0  0.07513  0.92979  0.28169  1.0000
  O   O5        1.0  0.57316  0.61350  0.83954  1.0000
  O   O6        1.0  0.07316  0.88650  0.66046  1.0000
  O   O7        1.0  0.42684  0.38650  0.16046  1.0000
  O   O8        1.0  0.92684  0.11350  0.33954  1.0000
  O   O9        1.0  0.61093  0.39880  0.68221  1.0000
  O   O10       1.0  0.11093  0.10120  0.81779  1.0000
  O   O11       1.0  0.38907  0.60120  0.31779  1.0000
  O   O12       1.0  0.88907  0.89880  0.18221  1.0000
  O   O13       1.0  0.75857  0.58574  0.73837  1.0000
  O   O14       1.0  0.25856  0.91426  0.76163  1.0000
  O   O15       1.0  0.24143  0.41426  0.26163  1.0000
  O   O16       1.0  0.74144  0.08574  0.23837  1.0000
  O   O17       1.0  0.49665  0.38594  0.96210  1.0000
  O   O18       1.0  0.99665  0.11406  0.53790  1.0000
  O   O19       1.0  0.50335  0.61406  0.03790  1.0000
  O   O20       1.0  0.00335  0.88594  0.46210  1.0000
  O   O21       1.0  0.18568  0.44376  0.02000  1.0000
  O   O22       1.0  0.68569  0.05624  0.48000  1.0000
  O   O23       1.0  0.81431  0.55624  0.98000  1.0000
  O   O24       1.0  0.31432  0.94376  0.52000  1.0000
  O   O25       1.0  0.11431  0.43162  0.83828  1.0000
  O   O26       1.0  0.61432  0.06838  0.66172  1.0000
  O   O27       1.0  0.88569  0.56838  0.16172  1.0000
  O   O28       1.0  0.38568  0.93162  0.33828  1.0000
  O   O29       1.0  0.21665  0.62231  0.77603  1.0000
  O   O30       1.0  0.71665  0.87769  0.72397  1.0000
  O   O31       1.0  0.78335  0.37769  0.22397  1.0000
  O   O32       1.0  0.28335  0.12231  0.27603  1.0000
  O   O33       1.0  0.96804  0.39815  0.72163  1.0000
  O   O34       1.0  0.46804  0.10185  0.77836  1.0000
  O   O35       1.0  0.03196  0.60185  0.27837  1.0000
  O   O36       1.0  0.53196  0.89815  0.22164  1.0000
  O   O37       1.0  0.06556  0.58960  0.65984  1.0000
  O   O38       1.0  0.56556  0.91040  0.84016  1.0000
  O   O39       1.0  0.93444  0.41040  0.34016  1.0000
  O   O40       1.0  0.43444  0.08960  0.15984  1.0000
  O   O41       1.0  0.35709  0.23794  0.91044  1.0000
  O   O42       1.0  0.85709  0.26206  0.58956  1.0000
  O   O43       1.0  0.64291  0.76206  0.08956  1.0000
  O   O44       1.0  0.14291  0.73794  0.41044  1.0000
  O   O45       1.0  0.65652  0.25062  0.06305  1.0000
  O   O46       1.0  0.15652  0.24938  0.43695  1.0000
  O   O47       1.0  0.34348  0.74938  0.93694  1.0000
  O   O48       1.0  0.84348  0.75062  0.56305  1.0000
  O   O49       1.0  0.55423  0.10435  0.99008  1.0000
  O   O50       1.0  0.05423  0.39565  0.50992  1.0000
  O   O51       1.0  0.44577  0.89565  0.00992  1.0000
  O   O52       1.0  0.94577  0.60435  0.49008  1.0000
  O   O53       1.0  0.94471  0.37921  0.04902  1.0000
  O   O54       1.0  0.44472  0.12079  0.45098  1.0000
  O   O55       1.0  0.05528  0.62079  0.95098  1.0000
  O   O56       1.0  0.55529  0.87922  0.54902  1.0000
  O   O57       1.0  0.66000  0.40989  0.48352  1.0000
  O   O58       1.0  0.16000  0.09011  0.01648  1.0000
  O   O59       1.0  0.34000  0.59011  0.51648  1.0000
  O   O60       1.0  0.84000  0.90989  0.98352  1.0000
  O   O61       1.0  0.42871  0.41569  0.41449  1.0000
  O   O62       1.0  0.92871  0.08431  0.08551  1.0000
  O   O63       1.0  0.57129  0.58431  0.58551  1.0000
  O   O64       1.0  0.07128  0.91569  0.91449  1.0000
  O   O65       1.0  0.38069  0.28148  0.58661  1.0000
  O   O66       1.0  0.88069  0.21852  0.91339  1.0000
  O   O67       1.0  0.61931  0.71852  0.41339  1.0000
  O   O68       1.0  0.11931  0.78148  0.08661  1.0000
