data_image0
_chemical_formula_structural       La4H24C20O32
_chemical_formula_sum              "La4 H24 C20 O32"
_cell_length_a       6.93809
_cell_length_b       6.93824
_cell_length_c       17.4152
_cell_angle_alpha    90
_cell_angle_beta     90.0007
_cell_angle_gamma    105.101

_space_group_name_H-M_alt    "P 1"
_space_group_IT_number       1

loop_
  _space_group_symop_operation_xyz
  'x, y, z'

loop_
  _atom_site_type_symbol
  _atom_site_label
  _atom_site_symmetry_multiplicity
  _atom_site_fract_x
  _atom_site_fract_y
  _atom_site_fract_z
  _atom_site_occupancy
  La  La1       1.0  0.76449  0.58225  0.91726  1.0000
  La  La2       1.0  0.23551  0.91775  0.41726  1.0000
  La  La3       1.0  0.23551  0.41775  0.08274  1.0000
  La  La4       1.0  0.76449  0.08225  0.58274  1.0000
  H   H1        1.0  0.47720  0.16254  0.94756  1.0000
  H   H2        1.0  0.52280  0.33746  0.44756  1.0000
  H   H3        1.0  0.52280  0.83746  0.05244  1.0000
  H   H4        1.0  0.47720  0.66254  0.55244  1.0000
  H   H5        1.0  0.64049  0.08948  0.89962  1.0000
  H   H6        1.0  0.35951  0.41052  0.39962  1.0000
  H   H7        1.0  0.35951  0.91052  0.10038  1.0000
  H   H8        1.0  0.64049  0.58948  0.60038  1.0000
  H   H9        1.0  0.06230  0.45184  0.70115  1.0000
  H   H10       1.0  0.93771  0.04816  0.20116  1.0000
  H   H11       1.0  0.93770  0.54816  0.29885  1.0000
  H   H12       1.0  0.06229  0.95184  0.79885  1.0000
  H   H13       1.0  0.01052  0.68617  0.68607  1.0000
  H   H14       1.0  0.98948  0.81383  0.18607  1.0000
  H   H15       1.0  0.98948  0.31383  0.31393  1.0000
  H   H16       1.0  0.01052  0.18617  0.81393  1.0000
  H   H17       1.0  0.34027  0.75857  0.82015  1.0000
  H   H18       1.0  0.65973  0.74144  0.32015  1.0000
  H   H19       1.0  0.65973  0.24143  0.17985  1.0000
  H   H20       1.0  0.34027  0.25856  0.67985  1.0000
  H   H21       1.0  0.29796  0.51466  0.78209  1.0000
  H   H22       1.0  0.70204  0.98534  0.28209  1.0000
  H   H23       1.0  0.70204  0.48534  0.21791  1.0000
  H   H24       1.0  0.29796  0.01466  0.71791  1.0000
  C   C1        1.0  0.98019  0.55463  0.72431  1.0000
  C   C2        1.0  0.01981  0.94537  0.22431  1.0000
  C   C3        1.0  0.01981  0.44537  0.27569  1.0000
  C   C4        1.0  0.98019  0.05463  0.77569  1.0000
  C   C5        1.0  0.75737  0.45459  0.72219  1.0000
  C   C6        1.0  0.24264  0.04541  0.22220  1.0000
  C   C7        1.0  0.24263  0.54541  0.27781  1.0000
  C   C8        1.0  0.75736  0.95459  0.77780  1.0000
  C   C9        1.0  0.23753  0.60831  0.82172  1.0000
  C   C10       1.0  0.76248  0.89169  0.32172  1.0000
  C   C11       1.0  0.76247  0.39169  0.17828  1.0000
  C   C12       1.0  0.23753  0.10831  0.67828  1.0000
  C   C13       1.0  0.23446  0.52455  0.90204  1.0000
  C   C14       1.0  0.76554  0.97545  0.40204  1.0000
  C   C15       1.0  0.76554  0.47545  0.09796  1.0000
  C   C16       1.0  0.23446  0.02455  0.59796  1.0000
  C   C17       1.0  0.09573  0.99700  0.97746  1.0000
  C   C18       1.0  0.90428  0.50301  0.47746  1.0000
  C   C19       1.0  0.90428  0.00301  0.02254  1.0000
  C   C20       1.0  0.09573  0.49700  0.52254  1.0000
  O   O1        1.0  0.03833  0.60999  0.80144  1.0000
  O   O2        1.0  0.96167  0.89001  0.30144  1.0000
  O   O3        1.0  0.96167  0.39001  0.19856  1.0000
  O   O4        1.0  0.03833  0.10999  0.69856  1.0000
  O   O5        1.0  0.65470  0.45785  0.78174  1.0000
  O   O6        1.0  0.34530  0.04215  0.28174  1.0000
  O   O7        1.0  0.34530  0.54215  0.21826  1.0000
  O   O8        1.0  0.65470  0.95785  0.71826  1.0000
  O   O9        1.0  0.69025  0.37659  0.65783  1.0000
  O   O10       1.0  0.30975  0.12341  0.15784  1.0000
  O   O11       1.0  0.30975  0.62341  0.34216  1.0000
  O   O12       1.0  0.69024  0.87659  0.84216  1.0000
  O   O13       1.0  0.39875  0.53944  0.93663  1.0000
  O   O14       1.0  0.60125  0.96056  0.43663  1.0000
  O   O15       1.0  0.60125  0.46056  0.06337  1.0000
  O   O16       1.0  0.39875  0.03944  0.56337  1.0000
  O   O17       1.0  0.06810  0.44126  0.93339  1.0000
  O   O18       1.0  0.93190  0.05874  0.43339  1.0000
  O   O19       1.0  0.93189  0.55873  0.06661  1.0000
  O   O20       1.0  0.06811  0.94126  0.56661  1.0000
  O   O21       1.0  0.08195  0.85829  0.92953  1.0000
  O   O22       1.0  0.91806  0.64171  0.42953  1.0000
  O   O23       1.0  0.91806  0.14171  0.07047  1.0000
  O   O24       1.0  0.08194  0.35829  0.57047  1.0000
  O   O25       1.0  0.25224  0.13416  0.99222  1.0000
  O   O26       1.0  0.74776  0.36585  0.49223  1.0000
  O   O27       1.0  0.74776  0.86585  0.00777  1.0000
  O   O28       1.0  0.25224  0.63415  0.50777  1.0000
  O   O29       1.0  0.61294  0.20732  0.92415  1.0000
  O   O30       1.0  0.38706  0.29268  0.42415  1.0000
  O   O31       1.0  0.38706  0.79268  0.07585  1.0000
  O   O32       1.0  0.61294  0.70732  0.57585  1.0000
