data_image0
_chemical_formula_structural       Na16H32C32O48
_chemical_formula_sum              "Na16 H32 C32 O48"
_cell_length_a       10.0151
_cell_length_b       10.0727
_cell_length_c       13.0688
_cell_angle_alpha    90
_cell_angle_beta     90
_cell_angle_gamma    90

_space_group_name_H-M_alt    "P 1"
_space_group_IT_number       1

loop_
  _space_group_symop_operation_xyz
  'x, y, z'

loop_
  _atom_site_type_symbol
  _atom_site_label
  _atom_site_symmetry_multiplicity
  _atom_site_fract_x
  _atom_site_fract_y
  _atom_site_fract_z
  _atom_site_occupancy
  Na  Na1       1.0  0.53124  0.02575  0.37333  1.0000
  Na  Na2       1.0  0.46876  0.47425  0.87333  1.0000
  Na  Na3       1.0  0.96876  0.52575  0.62667  1.0000
  Na  Na4       1.0  0.03124  0.97425  0.12667  1.0000
  Na  Na5       1.0  0.46876  0.97425  0.62667  1.0000
  Na  Na6       1.0  0.53124  0.52575  0.12667  1.0000
  Na  Na7       1.0  0.03124  0.47425  0.37333  1.0000
  Na  Na8       1.0  0.96876  0.02575  0.87333  1.0000
  Na  Na9       1.0  0.04122  0.94895  0.62823  1.0000
  Na  Na10      1.0  0.95878  0.55105  0.12823  1.0000
  Na  Na11      1.0  0.45878  0.44895  0.37177  1.0000
  Na  Na12      1.0  0.54122  0.05105  0.87177  1.0000
  Na  Na13      1.0  0.95878  0.05105  0.37177  1.0000
  Na  Na14      1.0  0.04122  0.44895  0.87177  1.0000
  Na  Na15      1.0  0.54122  0.55105  0.62823  1.0000
  Na  Na16      1.0  0.45878  0.94895  0.12823  1.0000
  H   H1        1.0  0.71187  0.30110  0.68683  1.0000
  H   H2        1.0  0.28813  0.19890  0.18683  1.0000
  H   H3        1.0  0.78813  0.80110  0.31317  1.0000
  H   H4        1.0  0.21187  0.69890  0.81317  1.0000
  H   H5        1.0  0.28813  0.69890  0.31317  1.0000
  H   H6        1.0  0.71187  0.80110  0.81317  1.0000
  H   H7        1.0  0.21187  0.19890  0.68683  1.0000
  H   H8        1.0  0.78813  0.30110  0.18683  1.0000
  H   H9        1.0  0.79886  0.19645  0.52905  1.0000
  H   H10       1.0  0.20114  0.30355  0.02905  1.0000
  H   H11       1.0  0.70114  0.69645  0.47095  1.0000
  H   H12       1.0  0.29886  0.80355  0.97095  1.0000
  H   H13       1.0  0.20114  0.80355  0.47095  1.0000
  H   H14       1.0  0.79886  0.69645  0.97095  1.0000
  H   H15       1.0  0.29886  0.30355  0.52905  1.0000
  H   H16       1.0  0.70114  0.19645  0.02905  1.0000
  H   H17       1.0  0.49549  0.24753  0.69857  1.0000
  H   H18       1.0  0.50451  0.25247  0.19857  1.0000
  H   H19       1.0  0.00451  0.74753  0.30143  1.0000
  H   H20       1.0  0.99549  0.75247  0.80143  1.0000
  H   H21       1.0  0.50451  0.75247  0.30143  1.0000
  H   H22       1.0  0.49549  0.74753  0.80143  1.0000
  H   H23       1.0  0.99549  0.25247  0.69857  1.0000
  H   H24       1.0  0.00451  0.24753  0.19857  1.0000
  H   H25       1.0  0.73643  0.98582  0.51669  1.0000
  H   H26       1.0  0.26357  0.51418  0.01669  1.0000
  H   H27       1.0  0.76357  0.48582  0.48331  1.0000
  H   H28       1.0  0.23643  0.01418  0.98331  1.0000
  H   H29       1.0  0.26357  0.01418  0.48331  1.0000
  H   H30       1.0  0.73643  0.48582  0.98331  1.0000
  H   H31       1.0  0.23643  0.51418  0.51669  1.0000
  H   H32       1.0  0.76357  0.98582  0.01669  1.0000
  C   C1        1.0  0.78652  0.10711  0.72425  1.0000
  C   C2        1.0  0.21348  0.39289  0.22425  1.0000
  C   C3        1.0  0.71348  0.60711  0.27575  1.0000
  C   C4        1.0  0.28652  0.89289  0.77575  1.0000
  C   C5        1.0  0.21348  0.89289  0.27575  1.0000
  C   C6        1.0  0.78652  0.60711  0.77575  1.0000
  C   C7        1.0  0.28652  0.39289  0.72425  1.0000
  C   C8        1.0  0.71348  0.10711  0.22425  1.0000
  C   C9        1.0  0.68525  0.19711  0.66946  1.0000
  C   C10       1.0  0.31475  0.30289  0.16946  1.0000
  C   C11       1.0  0.81475  0.69711  0.33054  1.0000
  C   C12       1.0  0.18525  0.80290  0.83054  1.0000
  C   C13       1.0  0.31475  0.80289  0.33054  1.0000
  C   C14       1.0  0.68525  0.69710  0.83054  1.0000
  C   C15       1.0  0.18525  0.30290  0.66946  1.0000
  C   C16       1.0  0.81475  0.19710  0.16946  1.0000
  C   C17       1.0  0.69502  0.17635  0.55245  1.0000
  C   C18       1.0  0.30498  0.32365  0.05245  1.0000
  C   C19       1.0  0.80498  0.67635  0.44755  1.0000
  C   C20       1.0  0.19502  0.82365  0.94755  1.0000
  C   C21       1.0  0.30498  0.82365  0.44755  1.0000
  C   C22       1.0  0.69502  0.67635  0.94755  1.0000
  C   C23       1.0  0.19502  0.32365  0.55245  1.0000
  C   C24       1.0  0.80498  0.17635  0.05245  1.0000
  C   C25       1.0  0.60467  0.27651  0.49613  1.0000
  C   C26       1.0  0.39533  0.22349  0.99613  1.0000
  C   C27       1.0  0.89533  0.77652  0.50387  1.0000
  C   C28       1.0  0.10467  0.72349  0.00387  1.0000
  C   C29       1.0  0.39533  0.72349  0.50387  1.0000
  C   C30       1.0  0.60467  0.77651  0.00387  1.0000
  C   C31       1.0  0.10467  0.22348  0.49613  1.0000
  C   C32       1.0  0.89533  0.27651  0.99613  1.0000
  O   O1        1.0  0.90976  0.11925  0.69869  1.0000
  O   O2        1.0  0.09024  0.38075  0.19869  1.0000
  O   O3        1.0  0.59024  0.61925  0.30131  1.0000
  O   O4        1.0  0.40976  0.88075  0.80131  1.0000
  O   O5        1.0  0.09024  0.88075  0.30131  1.0000
  O   O6        1.0  0.90976  0.61925  0.80131  1.0000
  O   O7        1.0  0.40976  0.38075  0.69869  1.0000
  O   O8        1.0  0.59024  0.11925  0.19869  1.0000
  O   O9        1.0  0.74659  0.02652  0.79124  1.0000
  O   O10       1.0  0.25341  0.47348  0.29124  1.0000
  O   O11       1.0  0.75341  0.52652  0.20876  1.0000
  O   O12       1.0  0.24659  0.97348  0.70876  1.0000
  O   O13       1.0  0.25341  0.97348  0.20876  1.0000
  O   O14       1.0  0.74659  0.52652  0.70876  1.0000
  O   O15       1.0  0.24659  0.47348  0.79124  1.0000
  O   O16       1.0  0.75341  0.02652  0.29124  1.0000
  O   O17       1.0  0.55398  0.16661  0.70517  1.0000
  O   O18       1.0  0.44602  0.33339  0.20517  1.0000
  O   O19       1.0  0.94602  0.66661  0.29483  1.0000
  O   O20       1.0  0.05398  0.83339  0.79483  1.0000
  O   O21       1.0  0.44602  0.83339  0.29483  1.0000
  O   O22       1.0  0.55398  0.66661  0.79483  1.0000
  O   O23       1.0  0.05398  0.33339  0.70517  1.0000
  O   O24       1.0  0.94602  0.16661  0.20517  1.0000
  O   O25       1.0  0.65607  0.04381  0.52777  1.0000
  O   O26       1.0  0.34393  0.45619  0.02777  1.0000
  O   O27       1.0  0.84393  0.54381  0.47223  1.0000
  O   O28       1.0  0.15607  0.95619  0.97223  1.0000
  O   O29       1.0  0.34393  0.95619  0.47223  1.0000
  O   O30       1.0  0.65607  0.54381  0.97223  1.0000
  O   O31       1.0  0.15607  0.45619  0.52777  1.0000
  O   O32       1.0  0.84393  0.04381  0.02777  1.0000
  O   O33       1.0  0.63219  0.40000  0.50651  1.0000
  O   O34       1.0  0.36781  0.10000  0.00651  1.0000
  O   O35       1.0  0.86781  0.90000  0.49349  1.0000
  O   O36       1.0  0.13219  0.60001  0.99349  1.0000
  O   O37       1.0  0.36781  0.60001  0.49349  1.0000
  O   O38       1.0  0.63219  0.90000  0.99349  1.0000
  O   O39       1.0  0.13219  0.10000  0.50651  1.0000
  O   O40       1.0  0.86781  0.40000  0.00651  1.0000
  O   O41       1.0  0.50760  0.23458  0.44377  1.0000
  O   O42       1.0  0.49240  0.26542  0.94377  1.0000
  O   O43       1.0  0.99240  0.73458  0.55623  1.0000
  O   O44       1.0  0.00760  0.76542  0.05623  1.0000
  O   O45       1.0  0.49240  0.76542  0.55623  1.0000
  O   O46       1.0  0.50760  0.73458  0.05623  1.0000
  O   O47       1.0  0.00760  0.26542  0.44377  1.0000
  O   O48       1.0  0.99240  0.23458  0.94377  1.0000
