data_image0
_chemical_formula_structural       Zn2H32C36N12Cl4
_chemical_formula_sum              "Zn2 H32 C36 N12 Cl4"
_cell_length_a       8.11558
_cell_length_b       10.0135
_cell_length_c       12.7969
_cell_angle_alpha    77.5562
_cell_angle_beta     74.5014
_cell_angle_gamma    70.1951

_space_group_name_H-M_alt    "P 1"
_space_group_IT_number       1

loop_
  _space_group_symop_operation_xyz
  'x, y, z'

loop_
  _atom_site_type_symbol
  _atom_site_label
  _atom_site_symmetry_multiplicity
  _atom_site_fract_x
  _atom_site_fract_y
  _atom_site_fract_z
  _atom_site_occupancy
  Zn  Zn1       1.0  0.63208  0.74200  0.71941  1.0000
  Zn  Zn2       1.0  0.36792  0.25800  0.28059  1.0000
  H   H1        1.0  0.58038  0.70314  0.50603  1.0000
  H   H2        1.0  0.41962  0.29685  0.49398  1.0000
  H   H3        1.0  0.91792  0.27928  0.44162  1.0000
  H   H4        1.0  0.08208  0.72072  0.55838  1.0000
  H   H5        1.0  0.98525  0.23778  0.62590  1.0000
  H   H6        1.0  0.01475  0.76222  0.37409  1.0000
  H   H7        1.0  0.84531  0.43685  0.74468  1.0000
  H   H8        1.0  0.15469  0.56315  0.25532  1.0000
  H   H9        1.0  0.89973  0.35772  0.25202  1.0000
  H   H10       1.0  0.10027  0.64228  0.74798  1.0000
  H   H11       1.0  0.73029  0.52798  0.08798  1.0000
  H   H12       1.0  0.26970  0.47202  0.91202  1.0000
  H   H13       1.0  0.33234  0.80395  0.19609  1.0000
  H   H14       1.0  0.66766  0.19605  0.80391  1.0000
  H   H15       1.0  0.49612  0.75985  0.07347  1.0000
  H   H16       1.0  0.50388  0.24015  0.92654  1.0000
  H   H17       1.0  0.46434  0.00383  0.10903  1.0000
  H   H18       1.0  0.53566  0.99617  0.89098  1.0000
  H   H19       1.0  0.51438  0.93036  0.24144  1.0000
  H   H20       1.0  0.48562  0.06964  0.75856  1.0000
  H   H21       1.0  0.84131  0.76181  0.24594  1.0000
  H   H22       1.0  0.15869  0.23819  0.75406  1.0000
  H   H23       1.0  0.15575  0.71775  0.08805  1.0000
  H   H24       1.0  0.84425  0.28225  0.91195  1.0000
  H   H25       1.0  0.84442  0.96093  0.78988  1.0000
  H   H26       1.0  0.15558  0.03907  0.21012  1.0000
  H   H27       1.0  0.03649  0.99108  0.60345  1.0000
  H   H28       1.0  0.96351  0.00892  0.39655  1.0000
  H   H29       1.0  0.37016  0.91002  0.58233  1.0000
  H   H30       1.0  0.62984  0.08998  0.41767  1.0000
  H   H31       1.0  0.33010  0.76218  0.91369  1.0000
  H   H32       1.0  0.66990  0.23781  0.08631  1.0000
  C   C1        1.0  0.66799  0.59786  0.53102  1.0000
  C   C2        1.0  0.33201  0.40214  0.46898  1.0000
  C   C3        1.0  0.73945  0.49478  0.45912  1.0000
  C   C4        1.0  0.26055  0.50522  0.54088  1.0000
  C   C5        1.0  0.85545  0.36270  0.49459  1.0000
  C   C6        1.0  0.14456  0.63730  0.50541  1.0000
  C   C7        1.0  0.89403  0.33925  0.59780  1.0000
  C   C8        1.0  0.10597  0.66075  0.40219  1.0000
  C   C9        1.0  0.81763  0.44729  0.66397  1.0000
  C   C10       1.0  0.18237  0.55271  0.33603  1.0000
  C   C11       1.0  0.70014  0.52910  0.34987  1.0000
  C   C12       1.0  0.29986  0.47089  0.65013  1.0000
  C   C13       1.0  0.78791  0.45489  0.25811  1.0000
  C   C14       1.0  0.21209  0.54511  0.74189  1.0000
  C   C15       1.0  0.70577  0.53802  0.17406  1.0000
  C   C16       1.0  0.29423  0.46199  0.82594  1.0000
  C   C17       1.0  0.47529  0.78095  0.15742  1.0000
  C   C18       1.0  0.52471  0.21905  0.84259  1.0000
  C   C19       1.0  0.53856  0.90903  0.15723  1.0000
  C   C20       1.0  0.46144  0.09097  0.84277  1.0000
  C   C21       1.0  0.86630  0.79902  0.15878  1.0000
  C   C22       1.0  0.13370  0.20099  0.84122  1.0000
  C   C23       1.0  0.02101  0.77881  0.07807  1.0000
  C   C24       1.0  0.97899  0.22119  0.92193  1.0000
  C   C25       1.0  0.96313  0.85177  0.98016  1.0000
  C   C26       1.0  0.03687  0.14823  0.01984  1.0000
  C   C27       1.0  0.06959  0.86616  0.86927  1.0000
  C   C28       1.0  0.93041  0.13384  0.13073  1.0000
  C   C29       1.0  0.98946  0.92803  0.77862  1.0000
  C   C30       1.0  0.01054  0.07197  0.22138  1.0000
  C   C31       1.0  0.09619  0.94385  0.67467  1.0000
  C   C32       1.0  0.90381  0.05615  0.32533  1.0000
  C   C33       1.0  0.28156  0.89570  0.66185  1.0000
  C   C34       1.0  0.71844  0.10430  0.33815  1.0000
  C   C35       1.0  0.25713  0.81583  0.84856  1.0000
  C   C36       1.0  0.74287  0.18417  0.15144  1.0000
  N   N1        1.0  0.70681  0.57485  0.63017  1.0000
  N   N2        1.0  0.29319  0.42515  0.36983  1.0000
  N   N3        1.0  0.57160  0.65028  0.32359  1.0000
  N   N4        1.0  0.42840  0.34971  0.67641  1.0000
  N   N5        1.0  0.57671  0.65229  0.21714  1.0000
  N   N6        1.0  0.42329  0.34770  0.78286  1.0000
  N   N7        1.0  0.72849  0.88043  0.10898  1.0000
  N   N8        1.0  0.27151  0.11957  0.89102  1.0000
  N   N9        1.0  0.78394  0.91315  0.00018  1.0000
  N   N10       1.0  0.21606  0.08685  0.99982  1.0000
  N   N11       1.0  0.35947  0.82994  0.74770  1.0000
  N   N12       1.0  0.64053  0.17006  0.25230  1.0000
  Cl  Cl1       1.0  0.73215  0.91316  0.60072  1.0000
  Cl  Cl2       1.0  0.26785  0.08684  0.39928  1.0000
  Cl  Cl3       1.0  0.71014  0.65001  0.88011  1.0000
  Cl  Cl4       1.0  0.28985  0.34999  0.11989  1.0000
