data_image0
_chemical_formula_structural       Sr2H28C28O16
_chemical_formula_sum              "Sr2 H28 C28 O16"
_cell_length_a       7.81382
_cell_length_b       10.1185
_cell_length_c       10.1185
_cell_angle_alpha    69.1343
_cell_angle_beta     88.7728
_cell_angle_gamma    88.7728

_space_group_name_H-M_alt    "P 1"
_space_group_IT_number       1

loop_
  _space_group_symop_operation_xyz
  'x, y, z'

loop_
  _atom_site_type_symbol
  _atom_site_label
  _atom_site_symmetry_multiplicity
  _atom_site_fract_x
  _atom_site_fract_y
  _atom_site_fract_z
  _atom_site_occupancy
  Sr  Sr1       1.0  0.75000  0.93828  0.06172  1.0000
  Sr  Sr2       1.0  0.25000  0.06172  0.93828  1.0000
  H   H1        1.0  0.16325  0.83516  0.74328  1.0000
  H   H2        1.0  0.33676  0.25672  0.16484  1.0000
  H   H3        1.0  0.83675  0.16484  0.25672  1.0000
  H   H4        1.0  0.66325  0.74328  0.83516  1.0000
  H   H5        1.0  0.97631  0.62716  0.79261  1.0000
  H   H6        1.0  0.52369  0.20739  0.37284  1.0000
  H   H7        1.0  0.02369  0.37284  0.20739  1.0000
  H   H8        1.0  0.47631  0.79261  0.62716  1.0000
  H   H9        1.0  0.86640  0.56151  0.59562  1.0000
  H   H10       1.0  0.63360  0.40438  0.43849  1.0000
  H   H11       1.0  0.13360  0.43849  0.40438  1.0000
  H   H12       1.0  0.36640  0.59562  0.56151  1.0000
  H   H13       1.0  0.94225  0.70937  0.34602  1.0000
  H   H14       1.0  0.55775  0.65398  0.29063  1.0000
  H   H15       1.0  0.05775  0.29063  0.65398  1.0000
  H   H16       1.0  0.44225  0.34602  0.70937  1.0000
  H   H17       1.0  0.28875  0.03571  0.38702  1.0000
  H   H18       1.0  0.21125  0.61298  0.96429  1.0000
  H   H19       1.0  0.71125  0.96429  0.61298  1.0000
  H   H20       1.0  0.78875  0.38702  0.03571  1.0000
  H   H21       1.0  0.65250  0.94093  0.37556  1.0000
  H   H22       1.0  0.84750  0.62444  0.05907  1.0000
  H   H23       1.0  0.34750  0.05907  0.62444  1.0000
  H   H24       1.0  0.15250  0.37556  0.94093  1.0000
  H   H25       1.0  0.48916  0.94606  0.28312  1.0000
  H   H26       1.0  0.01084  0.71688  0.05394  1.0000
  H   H27       1.0  0.51084  0.05394  0.71688  1.0000
  H   H28       1.0  0.98916  0.28312  0.94606  1.0000
  C   C1        1.0  0.16009  0.88739  0.51757  1.0000
  C   C2        1.0  0.33991  0.48243  0.11261  1.0000
  C   C3        1.0  0.83991  0.11261  0.48243  1.0000
  C   C4        1.0  0.66009  0.51757  0.88739  1.0000
  C   C5        1.0  0.11347  0.80755  0.65689  1.0000
  C   C6        1.0  0.38653  0.34311  0.19245  1.0000
  C   C7        1.0  0.88653  0.19245  0.34311  1.0000
  C   C8        1.0  0.61347  0.65689  0.80755  1.0000
  C   C9        1.0  0.00918  0.69096  0.68354  1.0000
  C   C10       1.0  0.49082  0.31646  0.30904  1.0000
  C   C11       1.0  0.99082  0.30904  0.31646  1.0000
  C   C12       1.0  0.50918  0.68354  0.69096  1.0000
  C   C13       1.0  0.94735  0.65361  0.57281  1.0000
  C   C14       1.0  0.55265  0.42719  0.34639  1.0000
  C   C15       1.0  0.05265  0.34639  0.42719  1.0000
  C   C16       1.0  0.44735  0.57281  0.65361  1.0000
  C   C17       1.0  0.98911  0.73593  0.43413  1.0000
  C   C18       1.0  0.51089  0.56588  0.26407  1.0000
  C   C19       1.0  0.01089  0.26407  0.56587  1.0000
  C   C20       1.0  0.48911  0.43413  0.73593  1.0000
  C   C21       1.0  0.09551  0.85376  0.40415  1.0000
  C   C22       1.0  0.40449  0.59585  0.14624  1.0000
  C   C23       1.0  0.90449  0.14624  0.59585  1.0000
  C   C24       1.0  0.59551  0.40415  0.85376  1.0000
  C   C25       1.0  0.13923  0.94207  0.25660  1.0000
  C   C26       1.0  0.36077  0.74340  0.05793  1.0000
  C   C27       1.0  0.86077  0.05793  0.74340  1.0000
  C   C28       1.0  0.63923  0.25660  0.94207  1.0000
  O   O1        1.0  0.26808  0.99806  0.49301  1.0000
  O   O2        1.0  0.23192  0.50699  0.00194  1.0000
  O   O3        1.0  0.73192  0.00194  0.50699  1.0000
  O   O4        1.0  0.76808  0.49301  0.99806  1.0000
  O   O5        1.0  0.27152  0.02265  0.23275  1.0000
  O   O6        1.0  0.22848  0.76725  0.97735  1.0000
  O   O7        1.0  0.72848  0.97735  0.76725  1.0000
  O   O8        1.0  0.77152  0.23275  0.02265  1.0000
  O   O9        1.0  0.04831  0.93825  0.15503  1.0000
  O   O10       1.0  0.45169  0.84497  0.06175  1.0000
  O   O11       1.0  0.95169  0.06175  0.84497  1.0000
  O   O12       1.0  0.54831  0.15503  0.93825  1.0000
  O   O13       1.0  0.61040  0.91580  0.29641  1.0000
  O   O14       1.0  0.88960  0.70359  0.08420  1.0000
  O   O15       1.0  0.38960  0.08419  0.70359  1.0000
  O   O16       1.0  0.11040  0.29641  0.91581  1.0000
