data_image0
_chemical_formula_structural       Cd6H40C48N12O30
_chemical_formula_sum              "Cd6 H40 C48 N12 O30"
_cell_length_a       8.40195
_cell_length_b       10.9917
_cell_length_c       18.583
_cell_angle_alpha    78.7299
_cell_angle_beta     80.9434
_cell_angle_gamma    70.0161

_space_group_name_H-M_alt    "P 1"
_space_group_IT_number       1

loop_
  _space_group_symop_operation_xyz
  'x, y, z'

loop_
  _atom_site_type_symbol
  _atom_site_label
  _atom_site_symmetry_multiplicity
  _atom_site_fract_x
  _atom_site_fract_y
  _atom_site_fract_z
  _atom_site_occupancy
  Cd  Cd1       1.0  0.55330  0.73479  0.42298  1.0000
  Cd  Cd2       1.0  0.44671  0.26520  0.57702  1.0000
  Cd  Cd3       1.0  0.00994  0.68378  0.26546  1.0000
  Cd  Cd4       1.0  0.99006  0.31622  0.73454  1.0000
  Cd  Cd5       1.0  0.74399  0.78640  0.08714  1.0000
  Cd  Cd6       1.0  0.25601  0.21360  0.91286  1.0000
  H   H1        1.0  0.71409  0.89106  0.22655  1.0000
  H   H2        1.0  0.28591  0.10894  0.77345  1.0000
  H   H3        1.0  0.85396  0.94987  0.17757  1.0000
  H   H4        1.0  0.14604  0.05013  0.82243  1.0000
  H   H5        1.0  0.10997  0.51576  0.40092  1.0000
  H   H6        1.0  0.89003  0.48424  0.59908  1.0000
  H   H7        1.0  0.94807  0.49201  0.37759  1.0000
  H   H8        1.0  0.05193  0.50799  0.62241  1.0000
  H   H9        1.0  0.34566  0.67458  0.30126  1.0000
  H   H10       1.0  0.65434  0.32542  0.69875  1.0000
  H   H11       1.0  0.30396  0.77894  0.22618  1.0000
  H   H12       1.0  0.69604  0.22106  0.77382  1.0000
  H   H13       1.0  0.68235  0.91756  0.50892  1.0000
  H   H14       1.0  0.31765  0.08244  0.49108  1.0000
  H   H15       1.0  0.09495  0.90649  0.34320  1.0000
  H   H16       1.0  0.90506  0.09351  0.65680  1.0000
  H   H17       1.0  0.82647  0.10698  0.48932  1.0000
  H   H18       1.0  0.17353  0.89302  0.51068  1.0000
  H   H19       1.0  0.01431  0.08897  0.42575  1.0000
  H   H20       1.0  0.98569  0.91104  0.57425  1.0000
  H   H21       1.0  0.39972  0.52815  0.16206  1.0000
  H   H22       1.0  0.60027  0.47185  0.83794  1.0000
  H   H23       1.0  0.09592  0.59422  0.98777  1.0000
  H   H24       1.0  0.90408  0.40579  0.01223  1.0000
  H   H25       1.0  0.51145  0.37045  0.05311  1.0000
  H   H26       1.0  0.48855  0.62955  0.94689  1.0000
  H   H27       1.0  0.39433  0.42662  0.97521  1.0000
  H   H28       1.0  0.60567  0.57338  0.02480  1.0000
  H   H29       1.0  0.26625  0.64218  0.86520  1.0000
  H   H30       1.0  0.73375  0.35782  0.13480  1.0000
  H   H31       1.0  0.34104  0.84606  0.81255  1.0000
  H   H32       1.0  0.65895  0.15395  0.18745  1.0000
  H   H33       1.0  0.41454  0.89120  0.67559  1.0000
  H   H34       1.0  0.58545  0.10880  0.32440  1.0000
  H   H35       1.0  0.78571  0.82697  0.64502  1.0000
  H   H36       1.0  0.21430  0.17304  0.35498  1.0000
  H   H37       1.0  0.95285  0.62393  0.72055  1.0000
  H   H38       1.0  0.04716  0.37608  0.27945  1.0000
  H   H39       1.0  0.94819  0.61771  0.85573  1.0000
  H   H40       1.0  0.05182  0.38229  0.14427  1.0000
  C   C1        1.0  0.77503  0.89217  0.46195  1.0000
  C   C2        1.0  0.22497  0.10783  0.53805  1.0000
  C   C3        1.0  0.98335  0.88853  0.37518  1.0000
  C   C4        1.0  0.01665  0.11147  0.62482  1.0000
  C   C5        1.0  0.94492  0.03721  0.46861  1.0000
  C   C6        1.0  0.05508  0.96279  0.53139  1.0000
  C   C7        1.0  0.29150  0.56186  0.12978  1.0000
  C   C8        1.0  0.70849  0.43814  0.87022  1.0000
  C   C9        1.0  0.13709  0.59811  0.03946  1.0000
  C   C10       1.0  0.86291  0.40189  0.96054  1.0000
  C   C11       1.0  0.44277  0.45858  0.01712  1.0000
  C   C12       1.0  0.55723  0.54142  0.98288  1.0000
  C   C13       1.0  0.39015  0.71402  0.65528  1.0000
  C   C14       1.0  0.60986  0.28598  0.34472  1.0000
  C   C15       1.0  0.34883  0.59923  0.68487  1.0000
  C   C16       1.0  0.65117  0.40077  0.31513  1.0000
  C   C17       1.0  0.30414  0.57480  0.76130  1.0000
  C   C18       1.0  0.69585  0.42521  0.23870  1.0000
  C   C19       1.0  0.30084  0.66447  0.80627  1.0000
  C   C20       1.0  0.69916  0.33553  0.19373  1.0000
  C   C21       1.0  0.33892  0.77903  0.77667  1.0000
  C   C22       1.0  0.66108  0.22097  0.22333  1.0000
  C   C23       1.0  0.38199  0.80369  0.70102  1.0000
  C   C24       1.0  0.61801  0.19631  0.29898  1.0000
  C   C25       1.0  0.45150  0.74072  0.57542  1.0000
  C   C26       1.0  0.54849  0.25928  0.42458  1.0000
  C   C27       1.0  0.36396  0.49684  0.63815  1.0000
  C   C28       1.0  0.63604  0.50316  0.36185  1.0000
  C   C29       1.0  0.26106  0.45281  0.79638  1.0000
  C   C30       1.0  0.73894  0.54719  0.20362  1.0000
  C   C31       1.0  0.78662  0.81688  0.85473  1.0000
  C   C32       1.0  0.21338  0.18312  0.14526  1.0000
  C   C33       1.0  0.69126  0.93229  0.81252  1.0000
  C   C34       1.0  0.30874  0.06771  0.18748  1.0000
  C   C35       1.0  0.69401  0.93534  0.73617  1.0000
  C   C36       1.0  0.30599  0.06466  0.26383  1.0000
  C   C37       1.0  0.79051  0.82438  0.70357  1.0000
  C   C38       1.0  0.20949  0.17562  0.29642  1.0000
  C   C39       1.0  0.88202  0.71021  0.74590  1.0000
  C   C40       1.0  0.11798  0.28979  0.25410  1.0000
  C   C41       1.0  0.87894  0.70672  0.82130  1.0000
  C   C42       1.0  0.12106  0.29328  0.17870  1.0000
  C   C43       1.0  0.78795  0.80710  0.93620  1.0000
  C   C44       1.0  0.21205  0.19290  0.06380  1.0000
  C   C45       1.0  0.57559  0.04573  0.85014  1.0000
  C   C46       1.0  0.42442  0.95427  0.14986  1.0000
  C   C47       1.0  0.58987  0.05166  0.68779  1.0000
  C   C48       1.0  0.41014  0.94834  0.31221  1.0000
  N   N1        1.0  0.77914  0.80757  0.41959  1.0000
  N   N2        1.0  0.22086  0.19243  0.58041  1.0000
  N   N3        1.0  0.91004  0.80569  0.36446  1.0000
  N   N4        1.0  0.08996  0.19431  0.63555  1.0000
  N   N5        1.0  0.90139  0.94490  0.43557  1.0000
  N   N6        1.0  0.09861  0.05510  0.56443  1.0000
  N   N7        1.0  0.13622  0.63578  0.14982  1.0000
  N   N8        1.0  0.86377  0.36422  0.85018  1.0000
  N   N9        1.0  0.03900  0.65968  0.09264  1.0000
  N   N10       1.0  0.96100  0.34032  0.90736  1.0000
  N   N11       1.0  0.29671  0.53550  0.06067  1.0000
  N   N12       1.0  0.70329  0.46450  0.93933  1.0000
  O   O1        1.0  0.46961  0.85084  0.54897  1.0000
  O   O2        1.0  0.53039  0.14915  0.45103  1.0000
  O   O3        1.0  0.48233  0.64789  0.53751  1.0000
  O   O4        1.0  0.51767  0.35211  0.46249  1.0000
  O   O5        1.0  0.50198  0.39914  0.64137  1.0000
  O   O6        1.0  0.49802  0.60086  0.35863  1.0000
  O   O7        1.0  0.24643  0.50381  0.60100  1.0000
  O   O8        1.0  0.75357  0.49619  0.39900  1.0000
  O   O9        1.0  0.19320  0.40339  0.75840  1.0000
  O   O10       1.0  0.80679  0.59661  0.24160  1.0000
  O   O11       1.0  0.29747  0.40886  0.86263  1.0000
  O   O12       1.0  0.70253  0.59114  0.13737  1.0000
  O   O13       1.0  0.78744  0.69726  0.97565  1.0000
  O   O14       1.0  0.21257  0.30273  0.02435  1.0000
  O   O15       1.0  0.79032  0.90371  0.96298  1.0000
  O   O16       1.0  0.20968  0.09629  0.03702  1.0000
  O   O17       1.0  0.60380  0.15333  0.84148  1.0000
  O   O18       1.0  0.39619  0.84667  0.15853  1.0000
  O   O19       1.0  0.44539  0.02287  0.88857  1.0000
  O   O20       1.0  0.55462  0.97713  0.11143  1.0000
  O   O21       1.0  0.44033  0.11751  0.71056  1.0000
  O   O22       1.0  0.55967  0.88249  0.28944  1.0000
  O   O23       1.0  0.65798  0.07940  0.62246  1.0000
  O   O24       1.0  0.34202  0.92060  0.37754  1.0000
  O   O25       1.0  0.82901  0.86867  0.19638  1.0000
  O   O26       1.0  0.17099  0.13133  0.80362  1.0000
  O   O27       1.0  0.06359  0.50228  0.35942  1.0000
  O   O28       1.0  0.93641  0.49773  0.64058  1.0000
  O   O29       1.0  0.25187  0.73170  0.27115  1.0000
  O   O30       1.0  0.74813  0.26830  0.72885  1.0000
