data_image0
_chemical_formula_structural       Zn4H24C24N6O18
_chemical_formula_sum              "Zn4 H24 C24 N6 O18"
_cell_length_a       7.01279
_cell_length_b       8.62522
_cell_length_c       13.3094
_cell_angle_alpha    97.3325
_cell_angle_beta     98.5482
_cell_angle_gamma    92.6841

_space_group_name_H-M_alt    "P 1"
_space_group_IT_number       1

loop_
  _space_group_symop_operation_xyz
  'x, y, z'

loop_
  _atom_site_type_symbol
  _atom_site_label
  _atom_site_symmetry_multiplicity
  _atom_site_fract_x
  _atom_site_fract_y
  _atom_site_fract_z
  _atom_site_occupancy
  Zn  Zn1       1.0  0.57499  0.86461  0.92693  1.0000
  Zn  Zn2       1.0  0.42502  0.13539  0.07307  1.0000
  Zn  Zn3       1.0  0.73857  0.26194  0.93488  1.0000
  Zn  Zn4       1.0  0.26144  0.73805  0.06512  1.0000
  H   H1        1.0  0.77519  0.06859  0.07275  1.0000
  H   H2        1.0  0.22481  0.93140  0.92725  1.0000
  H   H3        1.0  0.90763  0.84697  0.83705  1.0000
  H   H4        1.0  0.09238  0.15302  0.16295  1.0000
  H   H5        1.0  0.90184  0.77528  0.94236  1.0000
  H   H6        1.0  0.09816  0.22472  0.05764  1.0000
  H   H7        1.0  0.36930  0.81946  0.67352  1.0000
  H   H8        1.0  0.63071  0.18055  0.32648  1.0000
  H   H9        1.0  0.63112  0.52316  0.84323  1.0000
  H   H10       1.0  0.36887  0.47684  0.15677  1.0000
  H   H11       1.0  0.85453  0.52356  0.86852  1.0000
  H   H12       1.0  0.14546  0.47644  0.13148  1.0000
  H   H13       1.0  0.63087  0.27406  0.67894  1.0000
  H   H14       1.0  0.36913  0.72594  0.32106  1.0000
  H   H15       1.0  0.23522  0.59069  0.65228  1.0000
  H   H16       1.0  0.76474  0.40932  0.34772  1.0000
  H   H17       1.0  0.37882  0.14543  0.50859  1.0000
  H   H18       1.0  0.62118  0.85458  0.49141  1.0000
  H   H19       1.0  0.28780  0.95277  0.50717  1.0000
  H   H20       1.0  0.71221  0.04724  0.49283  1.0000
  H   H21       1.0  0.10172  0.38495  0.50415  1.0000
  H   H22       1.0  0.89826  0.61506  0.49585  1.0000
  H   H23       1.0  0.99923  0.87915  0.46172  1.0000
  H   H24       1.0  0.00078  0.12085  0.53828  1.0000
  C   C1        1.0  0.28469  0.56523  0.85290  1.0000
  C   C2        1.0  0.71530  0.43477  0.14710  1.0000
  C   C3        1.0  0.44983  0.93113  0.69937  1.0000
  C   C4        1.0  0.55018  0.06887  0.30063  1.0000
  C   C5        1.0  0.82507  0.74477  0.10578  1.0000
  C   C6        1.0  0.17493  0.25523  0.89422  1.0000
  C   C7        1.0  0.20436  0.43911  0.76597  1.0000
  C   C8        1.0  0.79562  0.56090  0.23403  1.0000
  C   C9        1.0  0.58238  0.16460  0.70182  1.0000
  C   C10       1.0  0.41763  0.83541  0.29818  1.0000
  C   C11       1.0  0.85477  0.71145  0.21508  1.0000
  C   C12       1.0  0.14522  0.28855  0.78491  1.0000
  C   C13       1.0  0.18869  0.47356  0.66518  1.0000
  C   C14       1.0  0.81128  0.52644  0.33482  1.0000
  C   C15       1.0  0.41929  0.03077  0.52835  1.0000
  C   C16       1.0  0.58072  0.96924  0.47165  1.0000
  C   C17       1.0  0.93031  0.82695  0.29790  1.0000
  C   C18       1.0  0.06968  0.17305  0.70210  1.0000
  C   C19       1.0  0.11282  0.36006  0.58300  1.0000
  C   C20       1.0  0.88716  0.63995  0.41699  1.0000
  C   C21       1.0  0.94626  0.78825  0.39778  1.0000
  C   C22       1.0  0.05373  0.21175  0.60221  1.0000
  C   C23       1.0  0.99219  0.99404  0.28457  1.0000
  C   C24       1.0  0.00782  0.00596  0.71544  1.0000
  N   N1        1.0  0.52888  0.98182  0.79440  1.0000
  N   N2        1.0  0.47113  0.01818  0.20560  1.0000
  N   N3        1.0  0.61267  0.12872  0.79603  1.0000
  N   N4        1.0  0.38734  0.87128  0.20397  1.0000
  N   N5        1.0  0.47897  0.04307  0.63872  1.0000
  N   N6        1.0  0.52104  0.95693  0.36128  1.0000
  O   O1        1.0  0.43586  0.64539  0.84142  1.0000
  O   O2        1.0  0.56413  0.35461  0.15857  1.0000
  O   O3        1.0  0.67852  0.08313  0.01365  1.0000
  O   O4        1.0  0.32149  0.91686  0.98635  1.0000
  O   O5        1.0  0.82389  0.78131  0.87359  1.0000
  O   O6        1.0  0.17612  0.21868  0.12641  1.0000
  O   O7        1.0  0.65238  0.75015  0.06242  1.0000
  O   O8        1.0  0.34762  0.24984  0.93757  1.0000
  O   O9        1.0  0.19586  0.58134  0.92965  1.0000
  O   O10       1.0  0.80414  0.41866  0.07035  1.0000
  O   O11       1.0  0.73869  0.45180  0.84782  1.0000
  O   O12       1.0  0.26131  0.54820  0.15218  1.0000
  O   O13       1.0  0.02841  0.24046  0.93959  1.0000
  O   O14       1.0  0.97159  0.75954  0.06041  1.0000
  O   O15       1.0  0.93351  0.03846  0.19767  1.0000
  O   O16       1.0  0.06649  0.96155  0.80233  1.0000
  O   O17       1.0  0.09596  0.07585  0.35982  1.0000
  O   O18       1.0  0.90406  0.92414  0.64018  1.0000
