data_image0
_chemical_formula_structural       Cu2H28C16O8
_chemical_formula_sum              "Cu2 H28 C16 O8"
_cell_length_a       5.22073
_cell_length_b       8.70078
_cell_length_c       11.109
_cell_angle_alpha    93.1327
_cell_angle_beta     95.7395
_cell_angle_gamma    101.451

_space_group_name_H-M_alt    "P 1"
_space_group_IT_number       1

loop_
  _space_group_symop_operation_xyz
  'x, y, z'

loop_
  _atom_site_type_symbol
  _atom_site_label
  _atom_site_symmetry_multiplicity
  _atom_site_fract_x
  _atom_site_fract_y
  _atom_site_fract_z
  _atom_site_occupancy
  Cu  Cu1       1.0  0.29154  0.52719  0.44510  1.0000
  Cu  Cu2       1.0  0.70846  0.47281  0.55488  1.0000
  H   H1        1.0  0.06460  0.20042  0.75555  1.0000
  H   H2        1.0  0.93526  0.79961  0.24445  1.0000
  H   H3        1.0  0.91612  0.36333  0.77504  1.0000
  H   H4        1.0  0.08387  0.63668  0.22499  1.0000
  H   H5        1.0  0.42974  0.31832  0.91692  1.0000
  H   H6        1.0  0.57026  0.68166  0.08304  1.0000
  H   H7        1.0  0.29406  0.48679  0.93429  1.0000
  H   H8        1.0  0.70596  0.51323  0.06571  1.0000
  H   H9        1.0  0.15220  0.30789  0.09481  1.0000
  H   H10       1.0  0.84787  0.69209  0.90519  1.0000
  H   H11       1.0  0.02528  0.15043  0.98259  1.0000
  H   H12       1.0  0.97475  0.84956  0.01742  1.0000
  H   H13       1.0  0.87411  0.31465  0.99118  1.0000
  H   H14       1.0  0.12594  0.68536  0.00883  1.0000
  H   H15       1.0  0.12068  0.03796  0.28888  1.0000
  H   H16       1.0  0.87936  0.96207  0.71112  1.0000
  H   H17       1.0  0.26101  0.97322  0.42530  1.0000
  H   H18       1.0  0.73893  0.02678  0.57469  1.0000
  H   H19       1.0  0.46276  0.87381  0.25813  1.0000
  H   H20       1.0  0.53722  0.12617  0.74187  1.0000
  H   H21       1.0  0.70009  0.01755  0.34938  1.0000
  H   H22       1.0  0.29988  0.98245  0.65064  1.0000
  H   H23       1.0  0.73021  0.05198  0.12679  1.0000
  H   H24       1.0  0.26984  0.94800  0.87324  1.0000
  H   H25       1.0  0.64822  0.21863  0.19977  1.0000
  H   H26       1.0  0.35183  0.78136  0.80026  1.0000
  H   H27       1.0  0.40062  0.07811  0.10863  1.0000
  H   H28       1.0  0.59943  0.92190  0.89138  1.0000
  C   C1        1.0  0.26372  0.40165  0.68483  1.0000
  C   C2        1.0  0.73625  0.59835  0.31515  1.0000
  C   C3        1.0  0.10680  0.32772  0.78164  1.0000
  C   C4        1.0  0.89320  0.67232  0.21837  1.0000
  C   C5        1.0  0.24295  0.35917  0.91108  1.0000
  C   C6        1.0  0.75707  0.64083  0.08891  1.0000
  C   C7        1.0  0.06540  0.27919  0.00015  1.0000
  C   C8        1.0  0.93464  0.72080  0.99986  1.0000
  C   C9        1.0  0.37565  0.21821  0.40504  1.0000
  C   C10       1.0  0.62431  0.78178  0.59494  1.0000
  C   C11       1.0  0.30247  0.04949  0.35062  1.0000
  C   C12       1.0  0.69753  0.95051  0.64938  1.0000
  C   C13       1.0  0.52101  0.00049  0.28476  1.0000
  C   C14       1.0  0.47899  0.99948  0.71525  1.0000
  C   C15       1.0  0.57780  0.09232  0.17400  1.0000
  C   C16       1.0  0.42223  0.90767  0.82600  1.0000
  O   O1        1.0  0.13456  0.45017  0.59546  1.0000
  O   O2        1.0  0.86538  0.54984  0.40454  1.0000
  O   O3        1.0  0.49028  0.59375  0.30528  1.0000
  O   O4        1.0  0.50970  0.40625  0.69468  1.0000
  O   O5        1.0  0.21851  0.30797  0.37415  1.0000
  O   O6        1.0  0.78144  0.69203  0.62584  1.0000
  O   O7        1.0  0.41242  0.74375  0.52249  1.0000
  O   O8        1.0  0.58755  0.25626  0.47750  1.0000
