data_image0
_chemical_formula_structural       Cu3H16C8Cl6O4
_chemical_formula_sum              "Cu3 H16 C8 Cl6 O4"
_cell_length_a       7.12846
_cell_length_b       7.12844
_cell_length_c       9.11007
_cell_angle_alpha    98.9062
_cell_angle_beta     98.9064
_cell_angle_gamma    112.842

_space_group_name_H-M_alt    "P 1"
_space_group_IT_number       1

loop_
  _space_group_symop_operation_xyz
  'x, y, z'

loop_
  _atom_site_type_symbol
  _atom_site_label
  _atom_site_symmetry_multiplicity
  _atom_site_fract_x
  _atom_site_fract_y
  _atom_site_fract_z
  _atom_site_occupancy
  Cu  Cu1       1.0  0.91546  0.91546  0.30754  1.0000
  Cu  Cu2       1.0  0.08502  0.08502  0.69164  1.0000
  Cu  Cu3       1.0  0.00118  0.00118  0.00216  1.0000
  H   H1        1.0  0.38250  0.58887  0.12932  1.0000
  H   H2        1.0  0.41161  0.61781  0.87084  1.0000
  H   H3        1.0  0.61780  0.41161  0.87084  1.0000
  H   H4        1.0  0.58887  0.38249  0.12932  1.0000
  H   H5        1.0  0.42130  0.76515  0.30576  1.0000
  H   H6        1.0  0.23488  0.57871  0.69457  1.0000
  H   H7        1.0  0.57871  0.23488  0.69458  1.0000
  H   H8        1.0  0.76515  0.42130  0.30577  1.0000
  H   H9        1.0  0.25839  0.46769  0.42250  1.0000
  H   H10       1.0  0.53191  0.74118  0.57729  1.0000
  H   H11       1.0  0.74117  0.53192  0.57728  1.0000
  H   H12       1.0  0.46769  0.25838  0.42250  1.0000
  H   H13       1.0  0.08563  0.42865  0.24435  1.0000
  H   H14       1.0  0.57140  0.91431  0.75534  1.0000
  H   H15       1.0  0.91430  0.57140  0.75533  1.0000
  H   H16       1.0  0.42865  0.08562  0.24435  1.0000
  C   C1        1.0  0.41179  0.61091  0.25464  1.0000
  C   C2        1.0  0.38915  0.58830  0.74550  1.0000
  C   C3        1.0  0.58830  0.38915  0.74549  1.0000
  C   C4        1.0  0.61091  0.41178  0.25464  1.0000
  C   C5        1.0  0.23933  0.43943  0.29776  1.0000
  C   C6        1.0  0.56059  0.76056  0.70206  1.0000
  C   C7        1.0  0.76056  0.56059  0.70206  1.0000
  C   C8        1.0  0.43943  0.23933  0.29776  1.0000
  Cl  Cl1       1.0  0.86897  0.13295  0.50012  1.0000
  Cl  Cl2       1.0  0.13295  0.86897  0.50012  1.0000
  Cl  Cl3       1.0  0.73761  0.00422  0.11771  1.0000
  Cl  Cl4       1.0  0.99469  0.25988  0.88165  1.0000
  Cl  Cl5       1.0  0.25988  0.99469  0.88165  1.0000
  Cl  Cl6       1.0  0.00422  0.73761  0.11771  1.0000
  O   O1        1.0  0.61274  0.61273  0.31313  1.0000
  O   O2        1.0  0.38731  0.38731  0.68707  1.0000
  O   O3        1.0  0.23791  0.23791  0.24232  1.0000
  O   O4        1.0  0.76204  0.76205  0.75735  1.0000
