data_image0
_chemical_formula_structural       Cu2H10C10N2Cl2
_chemical_formula_sum              "Cu2 H10 C10 N2 Cl2"
_cell_length_a       3.75333
_cell_length_b       8.59688
_cell_length_c       8.90008
_cell_angle_alpha    106.945
_cell_angle_beta     89.9979
_cell_angle_gamma    89.9996

_space_group_name_H-M_alt    "P 1"
_space_group_IT_number       1

loop_
  _space_group_symop_operation_xyz
  'x, y, z'

loop_
  _atom_site_type_symbol
  _atom_site_label
  _atom_site_symmetry_multiplicity
  _atom_site_fract_x
  _atom_site_fract_y
  _atom_site_fract_z
  _atom_site_occupancy
  Cu  Cu1       1.0  0.34527  0.51378  0.39201  1.0000
  Cu  Cu2       1.0  0.84527  0.48623  0.60799  1.0000
  H   H1        1.0  0.47724  0.86260  0.46335  1.0000
  H   H2        1.0  0.97725  0.13742  0.53664  1.0000
  H   H3        1.0  0.37800  0.08111  0.33208  1.0000
  H   H4        1.0  0.87806  0.91888  0.66789  1.0000
  H   H5        1.0  0.04387  0.01147  0.07843  1.0000
  H   H6        1.0  0.54389  0.98851  0.92157  1.0000
  H   H7        1.0  0.96337  0.51917  0.10547  1.0000
  H   H8        1.0  0.46336  0.48085  0.89456  1.0000
  H   H9        1.0  0.84895  0.72073  0.95682  1.0000
  H   H10       1.0  0.34897  0.27924  0.04317  1.0000
  C   C1        1.0  0.33848  0.83726  0.35128  1.0000
  C   C2        1.0  0.83859  0.16276  0.64871  1.0000
  C   C3        1.0  0.28001  0.95796  0.27874  1.0000
  C   C4        1.0  0.78002  0.04210  0.72125  1.0000
  C   C5        1.0  0.09968  0.91806  0.13568  1.0000
  C   C6        1.0  0.59964  0.08193  0.86434  1.0000
  C   C7        1.0  0.05459  0.64458  0.14999  1.0000
  C   C8        1.0  0.55460  0.35539  0.85003  1.0000
  C   C9        1.0  0.98765  0.75792  0.06940  1.0000
  C   C10       1.0  0.48762  0.24205  0.93064  1.0000
  N   N1        1.0  0.22886  0.68212  0.28885  1.0000
  N   N2        1.0  0.72884  0.31787  0.71112  1.0000
  Cl  Cl1       1.0  0.30798  0.66402  0.67190  1.0000
  Cl  Cl2       1.0  0.80797  0.33597  0.32811  1.0000
