data_image0
_chemical_formula_structural       Cu4H20C20N4Cl8O4
_chemical_formula_sum              "Cu4 H20 C20 N4 Cl8 O4"
_cell_length_a       5.77113
_cell_length_b       9.94878
_cell_length_c       13.5616
_cell_angle_alpha    89.9978
_cell_angle_beta     90.0049
_cell_angle_gamma    106.757

_space_group_name_H-M_alt    "P 1"
_space_group_IT_number       1

loop_
  _space_group_symop_operation_xyz
  'x, y, z'

loop_
  _atom_site_type_symbol
  _atom_site_label
  _atom_site_symmetry_multiplicity
  _atom_site_fract_x
  _atom_site_fract_y
  _atom_site_fract_z
  _atom_site_occupancy
  Cu  Cu1       1.0  0.72656  0.39256  0.48662  1.0000
  Cu  Cu2       1.0  0.27342  0.10747  0.98665  1.0000
  Cu  Cu3       1.0  0.27345  0.60744  0.51338  1.0000
  Cu  Cu4       1.0  0.72658  0.89253  0.01335  1.0000
  H   H1        1.0  0.14537  0.42477  0.72629  1.0000
  H   H2        1.0  0.85470  0.07521  0.22621  1.0000
  H   H3        1.0  0.85461  0.57522  0.27372  1.0000
  H   H4        1.0  0.14530  0.92479  0.77378  1.0000
  H   H5        1.0  0.06992  0.46516  0.90489  1.0000
  H   H6        1.0  0.93015  0.03491  0.40483  1.0000
  H   H7        1.0  0.93007  0.53484  0.09511  1.0000
  H   H8        1.0  0.06984  0.96509  0.59516  1.0000
  H   H9        1.0  0.78161  0.60807  0.94718  1.0000
  H   H10       1.0  0.21844  0.89199  0.44721  1.0000
  H   H11       1.0  0.21839  0.39193  0.05282  1.0000
  H   H12       1.0  0.78156  0.10801  0.55279  1.0000
  H   H13       1.0  0.59510  0.70775  0.80873  1.0000
  H   H14       1.0  0.40494  0.79225  0.30881  1.0000
  H   H15       1.0  0.40492  0.29226  0.19126  1.0000
  H   H16       1.0  0.59505  0.20774  0.69119  1.0000
  H   H17       1.0  0.70094  0.66187  0.63347  1.0000
  H   H18       1.0  0.29913  0.83808  0.13352  1.0000
  H   H19       1.0  0.29907  0.33814  0.36653  1.0000
  H   H20       1.0  0.70086  0.16192  0.86648  1.0000
  C   C1        1.0  0.02690  0.48576  0.75088  1.0000
  C   C2        1.0  0.97315  0.01424  0.25084  1.0000
  C   C3        1.0  0.97309  0.51424  0.24912  1.0000
  C   C4        1.0  0.02685  0.98576  0.74916  1.0000
  C   C5        1.0  0.98156  0.51048  0.84830  1.0000
  C   C6        1.0  0.01851  0.98956  0.34828  1.0000
  C   C7        1.0  0.01844  0.48952  0.15170  1.0000
  C   C8        1.0  0.98149  0.01045  0.65172  1.0000
  C   C9        1.0  0.82360  0.58942  0.87085  1.0000
  C   C10       1.0  0.17644  0.91061  0.37086  1.0000
  C   C11       1.0  0.17640  0.41058  0.12916  1.0000
  C   C12       1.0  0.82356  0.08939  0.62914  1.0000
  C   C13       1.0  0.71833  0.64502  0.79436  1.0000
  C   C14       1.0  0.28172  0.85498  0.29440  1.0000
  C   C15       1.0  0.28168  0.35499  0.20564  1.0000
  C   C16       1.0  0.71827  0.14502  0.70560  1.0000
  C   C17       1.0  0.77077  0.62070  0.69760  1.0000
  C   C18       1.0  0.22928  0.87927  0.19763  1.0000
  C   C19       1.0  0.22924  0.37931  0.30240  1.0000
  C   C20       1.0  0.77072  0.12072  0.80237  1.0000
  N   N1        1.0  0.91902  0.54079  0.67885  1.0000
  N   N2        1.0  0.08103  0.95916  0.17884  1.0000
  N   N3        1.0  0.08098  0.45921  0.32115  1.0000
  N   N4        1.0  0.91897  0.04083  0.82116  1.0000
  Cl  Cl1       1.0  0.62730  0.21074  0.38565  1.0000
  Cl  Cl2       1.0  0.37273  0.28928  0.88567  1.0000
  Cl  Cl3       1.0  0.37270  0.78925  0.61435  1.0000
  Cl  Cl4       1.0  0.62728  0.71072  0.11433  1.0000
  Cl  Cl5       1.0  0.39808  0.34903  0.57868  1.0000
  Cl  Cl6       1.0  0.60189  0.15097  0.07873  1.0000
  Cl  Cl7       1.0  0.60192  0.65097  0.42132  1.0000
  Cl  Cl8       1.0  0.39811  0.84903  0.92127  1.0000
  O   O1        1.0  0.96248  0.51629  0.58330  1.0000
  O   O2        1.0  0.03759  0.98363  0.08328  1.0000
  O   O3        1.0  0.03752  0.48371  0.41670  1.0000
  O   O4        1.0  0.96242  0.01637  0.91672  1.0000
