data_image0
_chemical_formula_structural       Zn2H36C54N4O16
_chemical_formula_sum              "Zn2 H36 C54 N4 O16"
_cell_length_a       8.36051
_cell_length_b       11.2723
_cell_length_c       13.0007
_cell_angle_alpha    100.391
_cell_angle_beta     92.6101
_cell_angle_gamma    109.171

_space_group_name_H-M_alt    "P 1"
_space_group_IT_number       1

loop_
  _space_group_symop_operation_xyz
  'x, y, z'

loop_
  _atom_site_type_symbol
  _atom_site_label
  _atom_site_symmetry_multiplicity
  _atom_site_fract_x
  _atom_site_fract_y
  _atom_site_fract_z
  _atom_site_occupancy
  Zn  Zn1       1.0  0.25671  0.41020  0.37788  1.0000
  Zn  Zn2       1.0  0.74329  0.58980  0.62212  1.0000
  H   H1        1.0  0.67540  0.08307  0.06932  1.0000
  H   H2        1.0  0.32460  0.91692  0.93068  1.0000
  H   H3        1.0  0.80664  0.32092  0.10413  1.0000
  H   H4        1.0  0.19337  0.67908  0.89587  1.0000
  H   H5        1.0  0.57582  0.52019  0.14903  1.0000
  H   H6        1.0  0.42418  0.47981  0.85096  1.0000
  H   H7        1.0  0.64412  0.62046  0.99307  1.0000
  H   H8        1.0  0.35589  0.37955  0.00693  1.0000
  H   H9        1.0  0.94514  0.69848  0.95173  1.0000
  H   H10       1.0  0.05487  0.30153  0.04827  1.0000
  H   H11       1.0  0.17709  0.68178  0.07184  1.0000
  H   H12       1.0  0.82291  0.31823  0.92816  1.0000
  H   H13       1.0  0.48100  0.11067  0.36972  1.0000
  H   H14       1.0  0.51901  0.88933  0.63028  1.0000
  H   H15       1.0  0.02720  0.38888  0.56498  1.0000
  H   H16       1.0  0.97279  0.61112  0.43502  1.0000
  H   H17       1.0  0.79845  0.20878  0.61971  1.0000
  H   H18       1.0  0.20154  0.79122  0.38029  1.0000
  H   H19       1.0  0.71096  0.98752  0.50909  1.0000
  H   H20       1.0  0.28904  0.01248  0.49091  1.0000
  H   H21       1.0  0.87963  0.81603  0.18111  1.0000
  H   H22       1.0  0.12037  0.18397  0.81889  1.0000
  H   H23       1.0  0.74395  0.84162  0.34444  1.0000
  H   H24       1.0  0.25605  0.15838  0.65556  1.0000
  H   H25       1.0  0.09093  0.91535  0.05971  1.0000
  H   H26       1.0  0.90907  0.08465  0.94029  1.0000
  H   H27       1.0  0.31436  0.11267  0.02426  1.0000
  H   H28       1.0  0.68564  0.88733  0.97574  1.0000
  H   H29       1.0  0.38917  0.31812  0.15805  1.0000
  H   H30       1.0  0.61082  0.68188  0.84195  1.0000
  H   H31       1.0  0.42374  0.58870  0.30055  1.0000
  H   H32       1.0  0.57627  0.41130  0.69945  1.0000
  H   H33       1.0  0.52642  0.59151  0.40856  1.0000
  H   H34       1.0  0.47358  0.40848  0.59144  1.0000
  H   H35       1.0  0.36008  0.79189  0.24664  1.0000
  H   H36       1.0  0.63992  0.20811  0.75336  1.0000
  C   C1        1.0  0.66618  0.14117  0.14383  1.0000
  C   C2        1.0  0.33382  0.85883  0.85617  1.0000
  C   C3        1.0  0.73851  0.27359  0.16290  1.0000
  C   C4        1.0  0.26149  0.72640  0.83710  1.0000
  C   C5        1.0  0.72230  0.34861  0.25766  1.0000
  C   C6        1.0  0.27771  0.65139  0.74234  1.0000
  C   C7        1.0  0.83417  0.53663  0.19079  1.0000
  C   C8        1.0  0.16583  0.46336  0.80920  1.0000
  C   C9        1.0  0.70544  0.55194  0.12796  1.0000
  C   C10       1.0  0.29457  0.44806  0.87203  1.0000
  C   C11       1.0  0.74562  0.60940  0.04177  1.0000
  C   C12       1.0  0.25438  0.39060  0.95823  1.0000
  C   C13       1.0  0.91480  0.65497  0.02004  1.0000
  C   C14       1.0  0.08521  0.34503  0.97996  1.0000
  C   C15       1.0  0.04370  0.64496  0.08609  1.0000
  C   C16       1.0  0.95630  0.35504  0.91391  1.0000
  C   C17       1.0  0.00529  0.58393  0.17151  1.0000
  C   C18       1.0  0.99471  0.41607  0.82849  1.0000
  C   C19       1.0  0.14461  0.56350  0.23495  1.0000
  C   C20       1.0  0.85539  0.43650  0.76506  1.0000
  C   C21       1.0  0.60527  0.36601  0.43597  1.0000
  C   C22       1.0  0.39474  0.63399  0.56403  1.0000
  C   C23       1.0  0.63068  0.28983  0.33434  1.0000
  C   C24       1.0  0.36933  0.71017  0.66566  1.0000
  C   C25       1.0  0.55676  0.15603  0.31245  1.0000
  C   C26       1.0  0.44325  0.84397  0.68755  1.0000
  C   C27       1.0  0.57412  0.08035  0.21841  1.0000
  C   C28       1.0  0.42588  0.91965  0.78159  1.0000
  C   C29       1.0  0.49134  0.93880  0.19161  1.0000
  C   C30       1.0  0.50866  0.06120  0.80839  1.0000
  C   C31       1.0  0.98421  0.29103  0.51880  1.0000
  C   C32       1.0  0.01578  0.70897  0.48120  1.0000
  C   C33       1.0  0.85733  0.18986  0.54877  1.0000
  C   C34       1.0  0.14266  0.81013  0.45123  1.0000
  C   C35       1.0  0.80863  0.06760  0.48733  1.0000
  C   C36       1.0  0.19137  0.93240  0.51267  1.0000
  C   C37       1.0  0.88551  0.04599  0.39452  1.0000
  C   C38       1.0  0.11448  0.95401  0.60549  1.0000
  C   C39       1.0  0.01215  0.15337  0.37034  1.0000
  C   C40       1.0  0.98785  0.84663  0.62966  1.0000
  C   C41       1.0  0.09371  0.13790  0.27605  1.0000
  C   C42       1.0  0.90629  0.86210  0.72395  1.0000
  C   C43       1.0  0.04409  0.01585  0.20717  1.0000
  C   C44       1.0  0.95591  0.98415  0.79283  1.0000
  C   C45       1.0  0.91654  0.90920  0.23436  1.0000
  C   C46       1.0  0.08346  0.09080  0.76564  1.0000
  C   C47       1.0  0.84103  0.92351  0.32464  1.0000
  C   C48       1.0  0.15896  0.07649  0.67536  1.0000
  C   C49       1.0  0.12526  0.00762  0.11434  1.0000
  C   C50       1.0  0.87473  0.99238  0.88566  1.0000
  C   C51       1.0  0.24767  0.11559  0.09444  1.0000
  C   C52       1.0  0.75232  0.88441  0.90556  1.0000
  C   C53       1.0  0.28979  0.23162  0.16878  1.0000
  C   C54       1.0  0.71021  0.76838  0.83122  1.0000
  N   N1        1.0  0.21536  0.24245  0.25637  1.0000
  N   N2        1.0  0.78463  0.75755  0.74363  1.0000
  N   N3        1.0  0.05975  0.27239  0.43240  1.0000
  N   N4        1.0  0.94025  0.72761  0.56760  1.0000
  O   O1        1.0  0.10443  0.46578  0.27616  1.0000
  O   O2        1.0  0.89557  0.53422  0.72384  1.0000
  O   O3        1.0  0.45562  0.33435  0.46536  1.0000
  O   O4        1.0  0.54438  0.66565  0.53463  1.0000
  O   O5        1.0  0.47829  0.53707  0.33633  1.0000
  O   O6        1.0  0.52171  0.46293  0.66367  1.0000
  O   O7        1.0  0.29627  0.64382  0.24110  1.0000
  O   O8        1.0  0.70373  0.35618  0.75890  1.0000
  O   O9        1.0  0.78922  0.47965  0.27642  1.0000
  O   O10       1.0  0.21079  0.52035  0.72358  1.0000
  O   O11       1.0  0.40923  0.88984  0.26886  1.0000
  O   O12       1.0  0.59077  0.11016  0.73114  1.0000
  O   O13       1.0  0.49568  0.87201  0.10594  1.0000
  O   O14       1.0  0.50432  0.12799  0.89406  1.0000
  O   O15       1.0  0.73596  0.45556  0.48658  1.0000
  O   O16       1.0  0.26404  0.54444  0.51342  1.0000
