data_image0
_chemical_formula_structural       Mo4H48C36N8O16
_chemical_formula_sum              "Mo4 H48 C36 N8 O16"
_cell_length_a       8.6088
_cell_length_b       9.90091
_cell_length_c       13.8296
_cell_angle_alpha    90
_cell_angle_beta     90
_cell_angle_gamma    106.974

_space_group_name_H-M_alt    "P 1"
_space_group_IT_number       1

loop_
  _space_group_symop_operation_xyz
  'x, y, z'

loop_
  _atom_site_type_symbol
  _atom_site_label
  _atom_site_symmetry_multiplicity
  _atom_site_fract_x
  _atom_site_fract_y
  _atom_site_fract_z
  _atom_site_occupancy
  Mo  Mo1       1.0  0.53407  0.41005  0.97669  1.0000
  Mo  Mo2       1.0  0.96593  0.58995  0.47669  1.0000
  Mo  Mo3       1.0  0.46592  0.58996  0.02331  1.0000
  Mo  Mo4       1.0  0.03408  0.41003  0.52331  1.0000
  H   H1        1.0  0.07521  0.66428  0.00848  1.0000
  H   H2        1.0  0.42479  0.33571  0.50849  1.0000
  H   H3        1.0  0.92479  0.33571  0.99151  1.0000
  H   H4        1.0  0.57521  0.66428  0.49151  1.0000
  H   H5        1.0  0.01886  0.74849  0.11084  1.0000
  H   H6        1.0  0.48115  0.25150  0.61083  1.0000
  H   H7        1.0  0.98115  0.25150  0.88916  1.0000
  H   H8        1.0  0.51885  0.74849  0.38916  1.0000
  H   H9        1.0  0.02611  0.82834  0.99578  1.0000
  H   H10       1.0  0.47388  0.17166  0.49579  1.0000
  H   H11       1.0  0.97389  0.17166  0.00421  1.0000
  H   H12       1.0  0.52611  0.82833  0.50421  1.0000
  H   H13       1.0  0.60234  0.43473  0.32914  1.0000
  H   H14       1.0  0.89767  0.56527  0.82914  1.0000
  H   H15       1.0  0.39767  0.56527  0.67086  1.0000
  H   H16       1.0  0.10233  0.43473  0.17086  1.0000
  H   H17       1.0  0.51276  0.25490  0.29437  1.0000
  H   H18       1.0  0.98724  0.74510  0.79437  1.0000
  H   H19       1.0  0.48724  0.74510  0.70563  1.0000
  H   H20       1.0  0.01276  0.25490  0.20563  1.0000
  H   H21       1.0  0.38888  0.36581  0.32630  1.0000
  H   H22       1.0  0.11112  0.63419  0.82630  1.0000
  H   H23       1.0  0.61112  0.63419  0.67370  1.0000
  H   H24       1.0  0.88887  0.36581  0.17370  1.0000
  H   H25       1.0  0.61297  0.90588  0.98790  1.0000
  H   H26       1.0  0.88703  0.09412  0.48790  1.0000
  H   H27       1.0  0.38703  0.09412  0.01210  1.0000
  H   H28       1.0  0.11297  0.90588  0.51210  1.0000
  H   H29       1.0  0.67190  0.34547  0.74883  1.0000
  H   H30       1.0  0.82811  0.65454  0.24883  1.0000
  H   H31       1.0  0.32811  0.65454  0.25117  1.0000
  H   H32       1.0  0.17190  0.34547  0.75117  1.0000
  H   H33       1.0  0.83779  0.15651  0.69177  1.0000
  H   H34       1.0  0.66221  0.84350  0.19177  1.0000
  H   H35       1.0  0.16221  0.84350  0.30823  1.0000
  H   H36       1.0  0.33779  0.15651  0.80823  1.0000
  H   H37       1.0  0.81287  0.90110  0.74863  1.0000
  H   H38       1.0  0.68713  0.09890  0.24863  1.0000
  H   H39       1.0  0.18713  0.09890  0.25137  1.0000
  H   H40       1.0  0.31287  0.90111  0.75137  1.0000
  H   H41       1.0  0.72776  0.84661  0.86503  1.0000
  H   H42       1.0  0.77224  0.15340  0.36503  1.0000
  H   H43       1.0  0.27224  0.15340  0.13497  1.0000
  H   H44       1.0  0.22776  0.84661  0.63497  1.0000
  H   H45       1.0  0.92407  0.97338  0.85489  1.0000
  H   H46       1.0  0.57592  0.02662  0.35489  1.0000
  H   H47       1.0  0.07592  0.02662  0.14511  1.0000
  H   H48       1.0  0.42408  0.97339  0.64511  1.0000
  C   C1        1.0  0.82142  0.64709  0.01909  1.0000
  C   C2        1.0  0.67859  0.35291  0.51909  1.0000
  C   C3        1.0  0.17859  0.35290  0.98091  1.0000
  C   C4        1.0  0.32141  0.64709  0.48091  1.0000
  C   C5        1.0  0.99654  0.72622  0.03336  1.0000
  C   C6        1.0  0.50346  0.27378  0.53336  1.0000
  C   C7        1.0  0.00346  0.27378  0.96664  1.0000
  C   C8        1.0  0.49654  0.72622  0.46664  1.0000
  C   C9        1.0  0.50128  0.40795  0.18693  1.0000
  C   C10       1.0  0.99872  0.59204  0.68693  1.0000
  C   C11       1.0  0.49872  0.59204  0.81307  1.0000
  C   C12       1.0  0.00127  0.40795  0.31307  1.0000
  C   C13       1.0  0.50092  0.36180  0.28999  1.0000
  C   C14       1.0  0.99908  0.63820  0.78999  1.0000
  C   C15       1.0  0.49908  0.63820  0.71001  1.0000
  C   C16       1.0  0.00092  0.36180  0.21001  1.0000
  C   C17       1.0  0.62591  0.08057  0.89060  1.0000
  C   C18       1.0  0.87409  0.91944  0.39061  1.0000
  C   C19       1.0  0.37409  0.91944  0.10939  1.0000
  C   C20       1.0  0.12591  0.08056  0.60940  1.0000
  C   C21       1.0  0.56101  0.99147  0.97179  1.0000
  C   C22       1.0  0.93899  0.00854  0.47179  1.0000
  C   C23       1.0  0.43899  0.00854  0.02821  1.0000
  C   C24       1.0  0.06101  0.99147  0.52822  1.0000
  C   C25       1.0  0.67659  0.24799  0.78255  1.0000
  C   C26       1.0  0.82341  0.75201  0.28255  1.0000
  C   C27       1.0  0.32342  0.75201  0.21745  1.0000
  C   C28       1.0  0.17659  0.24799  0.71746  1.0000
  C   C29       1.0  0.75812  0.15451  0.75284  1.0000
  C   C30       1.0  0.74188  0.84549  0.25284  1.0000
  C   C31       1.0  0.24188  0.84549  0.24716  1.0000
  C   C32       1.0  0.25813  0.15451  0.74717  1.0000
  C   C33       1.0  0.80192  0.93571  0.82298  1.0000
  C   C34       1.0  0.69808  0.06429  0.32299  1.0000
  C   C35       1.0  0.19807  0.06429  0.17702  1.0000
  C   C36       1.0  0.30193  0.93571  0.67702  1.0000
  N   N1        1.0  0.59553  0.20259  0.86747  1.0000
  N   N2        1.0  0.90447  0.79741  0.36747  1.0000
  N   N3        1.0  0.40447  0.79741  0.13253  1.0000
  N   N4        1.0  0.09553  0.20259  0.63253  1.0000
  N   N5        1.0  0.72628  0.04918  0.82148  1.0000
  N   N6        1.0  0.77372  0.95083  0.32148  1.0000
  N   N7        1.0  0.27372  0.95083  0.17852  1.0000
  N   N8        1.0  0.22628  0.04918  0.67852  1.0000
  O   O1        1.0  0.78154  0.51751  0.99066  1.0000
  O   O2        1.0  0.71845  0.48248  0.49066  1.0000
  O   O3        1.0  0.21846  0.48248  0.00934  1.0000
  O   O4        1.0  0.28154  0.51751  0.50934  1.0000
  O   O5        1.0  0.53879  0.33427  0.11861  1.0000
  O   O6        1.0  0.96120  0.66573  0.61861  1.0000
  O   O7        1.0  0.46121  0.66573  0.88139  1.0000
  O   O8        1.0  0.03879  0.33427  0.38139  1.0000
  O   O9        1.0  0.71208  0.70909  0.03680  1.0000
  O   O10       1.0  0.78793  0.29091  0.53680  1.0000
  O   O11       1.0  0.28793  0.29091  0.96320  1.0000
  O   O12       1.0  0.21207  0.70909  0.46320  1.0000
  O   O13       1.0  0.46435  0.52172  0.16840  1.0000
  O   O14       1.0  0.03566  0.47828  0.66840  1.0000
  O   O15       1.0  0.53566  0.47828  0.83160  1.0000
  O   O16       1.0  0.96434  0.52172  0.33160  1.0000
