data_image0
_chemical_formula_structural       Zn3H30C22N4O12
_chemical_formula_sum              "Zn3 H30 C22 N4 O12"
_cell_length_a       8.44429
_cell_length_b       9.48173
_cell_length_c       10.1066
_cell_angle_alpha    68.785
_cell_angle_beta     69.3296
_cell_angle_gamma    70.7936

_space_group_name_H-M_alt    "P 1"
_space_group_IT_number       1

loop_
  _space_group_symop_operation_xyz
  'x, y, z'

loop_
  _atom_site_type_symbol
  _atom_site_label
  _atom_site_symmetry_multiplicity
  _atom_site_fract_x
  _atom_site_fract_y
  _atom_site_fract_z
  _atom_site_occupancy
  Zn  Zn1       1.0  0.50000  0.50000  0.00000  1.0000
  Zn  Zn2       1.0  0.73193  0.65499  0.67505  1.0000
  Zn  Zn3       1.0  0.26807  0.34501  0.32495  1.0000
  H   H1        1.0  0.48934  0.20171  0.74540  1.0000
  H   H2        1.0  0.51066  0.79829  0.25460  1.0000
  H   H3        1.0  0.64073  0.26953  0.57514  1.0000
  H   H4        1.0  0.35927  0.73047  0.42486  1.0000
  H   H5        1.0  0.41844  0.36625  0.60336  1.0000
  H   H6        1.0  0.58156  0.63376  0.39664  1.0000
  H   H7        1.0  0.16316  0.36618  0.91942  1.0000
  H   H8        1.0  0.83685  0.63382  0.08058  1.0000
  H   H9        1.0  0.16866  0.27215  0.79550  1.0000
  H   H10       1.0  0.83134  0.72784  0.20450  1.0000
  H   H11       1.0  0.05880  0.20820  0.98679  1.0000
  H   H12       1.0  0.94120  0.79179  0.01320  1.0000
  H   H13       1.0  0.36594  0.98536  0.00990  1.0000
  H   H14       1.0  0.63406  0.01464  0.99010  1.0000
  H   H15       1.0  0.27823  0.82868  0.02522  1.0000
  H   H16       1.0  0.72177  0.17132  0.97478  1.0000
  H   H17       1.0  0.27437  0.99525  0.87201  1.0000
  H   H18       1.0  0.72562  0.00475  0.12799  1.0000
  H   H19       1.0  0.08741  0.68346  0.45522  1.0000
  H   H20       1.0  0.91259  0.31654  0.54477  1.0000
  H   H21       1.0  0.15274  0.97582  0.28219  1.0000
  H   H22       1.0  0.84726  0.02418  0.71781  1.0000
  H   H23       1.0  0.79269  0.24306  0.18765  1.0000
  H   H24       1.0  0.20730  0.75694  0.81235  1.0000
  H   H25       1.0  0.97678  0.23907  0.23979  1.0000
  H   H26       1.0  0.02321  0.76093  0.76021  1.0000
  H   H27       1.0  0.76483  0.27658  0.35796  1.0000
  H   H28       1.0  0.23516  0.72341  0.64204  1.0000
  H   H29       1.0  0.53301  0.16541  0.43712  1.0000
  H   H30       1.0  0.46699  0.83459  0.56288  1.0000
  C   C1        1.0  0.55291  0.41474  0.71969  1.0000
  C   C2        1.0  0.44709  0.58526  0.28032  1.0000
  C   C3        1.0  0.52354  0.30481  0.65850  1.0000
  C   C4        1.0  0.47647  0.69519  0.34151  1.0000
  C   C5        1.0  0.92268  0.42250  0.86183  1.0000
  C   C6        1.0  0.07732  0.57750  0.13817  1.0000
  C   C7        1.0  0.08720  0.30925  0.89419  1.0000
  C   C8        1.0  0.91280  0.69075  0.10580  1.0000
  C   C9        1.0  0.52341  0.84381  0.86186  1.0000
  C   C10       1.0  0.47659  0.15619  0.13813  1.0000
  C   C11       1.0  0.35073  0.91671  0.95015  1.0000
  C   C12       1.0  0.64928  0.08328  0.04985  1.0000
  C   C13       1.0  0.74632  0.96551  0.44195  1.0000
  C   C14       1.0  0.25368  0.03449  0.55805  1.0000
  C   C15       1.0  0.99802  0.79584  0.43099  1.0000
  C   C16       1.0  0.00198  0.20416  0.56901  1.0000
  C   C17       1.0  0.03231  0.93851  0.34477  1.0000
  C   C18       1.0  0.96768  0.06150  0.65523  1.0000
  C   C19       1.0  0.84979  0.21011  0.27972  1.0000
  C   C20       1.0  0.15020  0.78989  0.72028  1.0000
  C   C21       1.0  0.56467  0.03871  0.46976  1.0000
  C   C22       1.0  0.43533  0.96129  0.53024  1.0000
  N   N1        1.0  0.82131  0.81342  0.49162  1.0000
  N   N2        1.0  0.17869  0.18658  0.50838  1.0000
  N   N3        1.0  0.87397  0.04368  0.35359  1.0000
  N   N4        1.0  0.12602  0.95633  0.64641  1.0000
  O   O1        1.0  0.65073  0.50728  0.62882  1.0000
  O   O2        1.0  0.34927  0.49272  0.37118  1.0000
  O   O3        1.0  0.47812  0.40927  0.85376  1.0000
  O   O4        1.0  0.52188  0.59073  0.14624  1.0000
  O   O5        1.0  0.94315  0.52942  0.73847  1.0000
  O   O6        1.0  0.05685  0.47058  0.26153  1.0000
  O   O7        1.0  0.77799  0.40667  0.95407  1.0000
  O   O8        1.0  0.22201  0.59333  0.04594  1.0000
  O   O9        1.0  0.52605  0.71825  0.83126  1.0000
  O   O10       1.0  0.47395  0.28174  0.16874  1.0000
  O   O11       1.0  0.65224  0.90118  0.81315  1.0000
  O   O12       1.0  0.34776  0.09883  0.18684  1.0000
