data_image0
_chemical_formula_structural       Cu4H24C16O28
_chemical_formula_sum              "Cu4 H24 C16 O28"
_cell_length_a       8.27265
_cell_length_b       8.69761
_cell_length_c       10.4202
_cell_angle_alpha    90.0033
_cell_angle_beta     87.1793
_cell_angle_gamma    89.9999

_space_group_name_H-M_alt    "P 1"
_space_group_IT_number       1

loop_
  _space_group_symop_operation_xyz
  'x, y, z'

loop_
  _atom_site_type_symbol
  _atom_site_label
  _atom_site_symmetry_multiplicity
  _atom_site_fract_x
  _atom_site_fract_y
  _atom_site_fract_z
  _atom_site_occupancy
  Cu  Cu1       1.0  0.32338  0.90905  0.99789  1.0000
  Cu  Cu2       1.0  0.67665  0.40902  0.00213  1.0000
  Cu  Cu3       1.0  0.16265  0.91184  0.51543  1.0000
  Cu  Cu4       1.0  0.83735  0.41186  0.48457  1.0000
  H   H1        1.0  0.44118  0.07333  0.57573  1.0000
  H   H2        1.0  0.55881  0.57341  0.42424  1.0000
  H   H3        1.0  0.05453  0.05309  0.90518  1.0000
  H   H4        1.0  0.94546  0.55301  0.09480  1.0000
  H   H5        1.0  0.06775  0.00714  0.11809  1.0000
  H   H6        1.0  0.93225  0.50711  0.88190  1.0000
  H   H7        1.0  0.24486  0.99926  0.28981  1.0000
  H   H8        1.0  0.75513  0.49926  0.71017  1.0000
  H   H9        1.0  0.14946  0.88277  0.75119  1.0000
  H   H10       1.0  0.85054  0.38275  0.24881  1.0000
  H   H11       1.0  0.48637  0.70166  0.90396  1.0000
  H   H12       1.0  0.51363  0.20171  0.09604  1.0000
  H   H13       1.0  0.33699  0.29559  0.64805  1.0000
  H   H14       1.0  0.66307  0.79564  0.35191  1.0000
  H   H15       1.0  0.15328  0.28135  0.85044  1.0000
  H   H16       1.0  0.84678  0.78130  0.14952  1.0000
  H   H17       1.0  0.12064  0.56371  0.69124  1.0000
  H   H18       1.0  0.87933  0.06372  0.30877  1.0000
  H   H19       1.0  0.35152  0.52484  0.81525  1.0000
  H   H20       1.0  0.64841  0.02485  0.18476  1.0000
  H   H21       1.0  0.19979  0.13515  0.13983  1.0000
  H   H22       1.0  0.80018  0.63507  0.86018  1.0000
  H   H23       1.0  0.39895  0.01892  0.37796  1.0000
  H   H24       1.0  0.60108  0.51896  0.62200  1.0000
  C   C1        1.0  0.09962  0.20891  0.61003  1.0000
  C   C2        1.0  0.90039  0.70893  0.38997  1.0000
  C   C3        1.0  0.26540  0.19238  0.67324  1.0000
  C   C4        1.0  0.73462  0.69241  0.32673  1.0000
  C   C5        1.0  0.23338  0.18559  0.81964  1.0000
  C   C6        1.0  0.76666  0.68557  0.18034  1.0000
  C   C7        1.0  0.39121  0.20769  0.89026  1.0000
  C   C8        1.0  0.60880  0.70765  0.10973  1.0000
  C   C9        1.0  0.32148  0.64562  0.58065  1.0000
  C   C10       1.0  0.67848  0.14566  0.41938  1.0000
  C   C11       1.0  0.20500  0.66128  0.70021  1.0000
  C   C12       1.0  0.79499  0.16129  0.29980  1.0000
  C   C13       1.0  0.29141  0.63781  0.82488  1.0000
  C   C14       1.0  0.70852  0.13783  0.17514  1.0000
  C   C15       1.0  0.17835  0.62866  0.94531  1.0000
  C   C16       1.0  0.82162  0.12863  0.05471  1.0000
  O   O1        1.0  0.34958  0.05469  0.63862  1.0000
  O   O2        1.0  0.65040  0.55473  0.36136  1.0000
  O   O3        1.0  0.03576  0.09298  0.55638  1.0000
  O   O4        1.0  0.96426  0.59298  0.44360  1.0000
  O   O5        1.0  0.03282  0.33889  0.61892  1.0000
  O   O6        1.0  0.96722  0.83890  0.38110  1.0000
  O   O7        1.0  0.15763  0.04083  0.85219  1.0000
  O   O8        1.0  0.84238  0.54080  0.14780  1.0000
  O   O9        1.0  0.43587  0.10320  0.97037  1.0000
  O   O10       1.0  0.56415  0.60316  0.02963  1.0000
  O   O11       1.0  0.46794  0.33054  0.87387  1.0000
  O   O12       1.0  0.53208  0.83052  0.12614  1.0000
  O   O13       1.0  0.18337  0.02412  0.14288  1.0000
  O   O14       1.0  0.81664  0.52405  0.85712  1.0000
  O   O15       1.0  0.27991  0.03386  0.37442  1.0000
  O   O16       1.0  0.72011  0.53393  0.62558  1.0000
  O   O17       1.0  0.10945  0.79954  0.69470  1.0000
  O   O18       1.0  0.89053  0.29955  0.30532  1.0000
  O   O19       1.0  0.31116  0.74301  0.48993  1.0000
  O   O20       1.0  0.68885  0.24309  0.51009  1.0000
  O   O21       1.0  0.41672  0.53273  0.57325  1.0000
  O   O22       1.0  0.58324  0.03276  0.42679  1.0000
  O   O23       1.0  0.41328  0.75405  0.84379  1.0000
  O   O24       1.0  0.58673  0.25405  0.15623  1.0000
  O   O25       1.0  0.18191  0.73555  0.02880  1.0000
  O   O26       1.0  0.81809  0.23552  0.97123  1.0000
  O   O27       1.0  0.08585  0.51306  0.96188  1.0000
  O   O28       1.0  0.91411  0.01301  0.03814  1.0000
