data_image0
_chemical_formula_structural       Mn2H18C16N2O12
_chemical_formula_sum              "Mn2 H18 C16 N2 O12"
_cell_length_a       5.17564
_cell_length_b       9.61332
_cell_length_c       10.1004
_cell_angle_alpha    106.605
_cell_angle_beta     92.334
_cell_angle_gamma    87.9585

_space_group_name_H-M_alt    "P 1"
_space_group_IT_number       1

loop_
  _space_group_symop_operation_xyz
  'x, y, z'

loop_
  _atom_site_type_symbol
  _atom_site_label
  _atom_site_symmetry_multiplicity
  _atom_site_fract_x
  _atom_site_fract_y
  _atom_site_fract_z
  _atom_site_occupancy
  Mn  Mn1       1.0  0.06405  0.80445  0.30568  1.0000
  Mn  Mn2       1.0  0.55640  0.20726  0.70395  1.0000
  H   H1        1.0  0.42991  0.05236  0.05859  1.0000
  H   H2        1.0  0.94308  0.92772  0.95201  1.0000
  H   H3        1.0  0.83854  0.38945  0.12955  1.0000
  H   H4        1.0  0.33221  0.61737  0.87790  1.0000
  H   H5        1.0  0.70255  0.32154  0.33707  1.0000
  H   H6        1.0  0.19701  0.68543  0.66384  1.0000
  H   H7        1.0  0.47666  0.91636  0.21579  1.0000
  H   H8        1.0  0.00892  0.04749  0.78668  1.0000
  H   H9        1.0  0.38504  0.99252  0.37813  1.0000
  H   H10       1.0  0.87599  0.99045  0.62668  1.0000
  H   H11       1.0  0.73835  0.61753  0.24681  1.0000
  H   H12       1.0  0.28947  0.44611  0.64414  1.0000
  H   H13       1.0  0.63735  0.70321  0.39322  1.0000
  H   H14       1.0  0.09228  0.31543  0.59295  1.0000
  H   H15       1.0  0.40363  0.62391  0.14457  1.0000
  H   H16       1.0  0.92795  0.39739  0.85345  1.0000
  H   H17       1.0  0.14618  0.54433  0.11761  1.0000
  H   H18       1.0  0.66222  0.46547  0.90459  1.0000
  C   C1        1.0  0.89519  0.10750  0.43378  1.0000
  C   C2        1.0  0.38852  0.88535  0.56531  1.0000
  C   C3        1.0  0.98535  0.14760  0.31274  1.0000
  C   C4        1.0  0.49266  0.84204  0.68611  1.0000
  C   C5        1.0  0.19118  0.07100  0.23398  1.0000
  C   C6        1.0  0.70521  0.91239  0.76902  1.0000
  C   C7        1.0  0.26955  0.11021  0.11969  1.0000
  C   C8        1.0  0.77785  0.87565  0.88936  1.0000
  C   C9        1.0  0.14494  0.22679  0.08362  1.0000
  C   C10       1.0  0.64844  0.76828  0.92872  1.0000
  C   C11       1.0  0.93890  0.30220  0.16117  1.0000
  C   C12       1.0  0.43841  0.69749  0.84583  1.0000
  C   C13       1.0  0.86190  0.26373  0.27560  1.0000
  C   C14       1.0  0.36464  0.73448  0.72674  1.0000
  C   C15       1.0  0.23006  0.27120  0.96244  1.0000
  C   C16       1.0  0.73450  0.72934  0.05373  1.0000
  N   N1        1.0  0.31979  0.95503  0.27545  1.0000
  N   N2        1.0  0.83967  0.01899  0.73071  1.0000
  O   O1        1.0  0.23656  0.62080  0.19081  1.0000
  O   O2        1.0  0.74320  0.39993  0.82143  1.0000
  O   O3        1.0  0.89465  0.97324  0.43270  1.0000
  O   O4        1.0  0.39695  0.01720  0.56163  1.0000
  O   O5        1.0  0.81838  0.20994  0.53760  1.0000
  O   O6        1.0  0.28697  0.78453  0.46442  1.0000
  O   O7        1.0  0.33744  0.17326  0.86514  1.0000
  O   O8        1.0  0.86785  0.82326  0.14621  1.0000
  O   O9        1.0  0.18558  0.40156  0.95951  1.0000
  O   O10       1.0  0.67095  0.60609  0.07080  1.0000
  O   O11       1.0  0.79656  0.66407  0.34426  1.0000
  O   O12       1.0  0.27591  0.34107  0.61824  1.0000
