data_image0
_chemical_formula_structural       Mn3H28C24N2O22
_chemical_formula_sum              "Mn3 H28 C24 N2 O22"
_cell_length_a       7.55396
_cell_length_b       8.25979
_cell_length_c       13.034
_cell_angle_alpha    93.8477
_cell_angle_beta     99.748
_cell_angle_gamma    113.618

_space_group_name_H-M_alt    "P 1"
_space_group_IT_number       1

loop_
  _space_group_symop_operation_xyz
  'x, y, z'

loop_
  _atom_site_type_symbol
  _atom_site_label
  _atom_site_symmetry_multiplicity
  _atom_site_fract_x
  _atom_site_fract_y
  _atom_site_fract_z
  _atom_site_occupancy
  Mn  Mn1       1.0  0.50005  0.99996  0.00009  1.0000
  Mn  Mn2       1.0  0.88810  0.64778  0.18719  1.0000
  Mn  Mn3       1.0  0.11187  0.35218  0.81277  1.0000
  H   H1        1.0  0.61141  0.84252  0.64750  1.0000
  H   H2        1.0  0.38861  0.15753  0.35250  1.0000
  H   H3        1.0  0.94599  0.21708  0.58521  1.0000
  H   H4        1.0  0.05404  0.78297  0.41475  1.0000
  H   H5        1.0  0.52901  0.79867  0.31165  1.0000
  H   H6        1.0  0.47101  0.20132  0.68835  1.0000
  H   H7        1.0  0.20506  0.44343  0.11076  1.0000
  H   H8        1.0  0.79517  0.55660  0.88925  1.0000
  H   H9        1.0  0.43630  0.55362  0.19688  1.0000
  H   H10       1.0  0.56388  0.44654  0.80314  1.0000
  H   H11       1.0  0.96908  0.28875  0.31721  1.0000
  H   H12       1.0  0.03085  0.71131  0.68276  1.0000
  H   H13       1.0  0.11055  0.22091  0.24479  1.0000
  H   H14       1.0  0.88934  0.77899  0.75525  1.0000
  H   H15       1.0  0.11712  0.39436  0.45553  1.0000
  H   H16       1.0  0.88293  0.60563  0.54449  1.0000
  H   H17       1.0  0.73985  0.75632  0.99559  1.0000
  H   H18       1.0  0.25997  0.24356  0.00440  1.0000
  H   H19       1.0  0.58212  0.67243  0.05876  1.0000
  H   H20       1.0  0.41767  0.32728  0.94117  1.0000
  H   H21       1.0  0.85833  0.93511  0.30623  1.0000
  H   H22       1.0  0.14152  0.06487  0.69367  1.0000
  H   H23       1.0  0.82588  0.96074  0.18563  1.0000
  H   H24       1.0  0.17404  0.03926  0.81429  1.0000
  H   H25       1.0  0.26488  0.00452  0.12679  1.0000
  H   H26       1.0  0.73514  0.99545  0.87331  1.0000
  H   H27       1.0  0.43070  0.20731  0.16296  1.0000
  H   H28       1.0  0.56928  0.79266  0.83711  1.0000
  C   C1        1.0  0.35723  0.61074  0.55950  1.0000
  C   C2        1.0  0.64280  0.38929  0.44050  1.0000
  C   C3        1.0  0.52627  0.77062  0.57000  1.0000
  C   C4        1.0  0.47376  0.22941  0.43000  1.0000
  C   C5        1.0  0.58565  0.83473  0.47933  1.0000
  C   C6        1.0  0.41437  0.16528  0.52068  1.0000
  C   C7        1.0  0.47695  0.74204  0.37950  1.0000
  C   C8        1.0  0.52309  0.25795  0.62050  1.0000
  C   C9        1.0  0.30280  0.58410  0.36751  1.0000
  C   C10       1.0  0.69724  0.41588  0.63250  1.0000
  C   C11       1.0  0.30017  0.53872  0.65717  1.0000
  C   C12       1.0  0.69986  0.46132  0.34283  1.0000
  C   C13       1.0  0.76360  0.00453  0.48732  1.0000
  C   C14       1.0  0.23641  0.99549  0.51265  1.0000
  C   C15       1.0  0.28617  0.54783  0.17916  1.0000
  C   C16       1.0  0.71395  0.45220  0.82085  1.0000
  C   C17       1.0  0.29697  0.71898  0.13936  1.0000
  C   C18       1.0  0.70297  0.28104  0.86071  1.0000
  C   C19       1.0  0.04323  0.31676  0.25078  1.0000
  C   C20       1.0  0.95678  0.68322  0.74920  1.0000
  C   C21       1.0  0.88049  0.27471  0.15280  1.0000
  C   C22       1.0  0.11960  0.72537  0.84716  1.0000
  C   C23       1.0  0.24656  0.51875  0.45981  1.0000
  C   C24       1.0  0.75348  0.48125  0.54020  1.0000
  N   N1        1.0  0.18954  0.50061  0.26688  1.0000
  N   N2        1.0  0.81057  0.49933  0.73312  1.0000
  O   O1        1.0  0.13459  0.40152  0.65031  1.0000
  O   O2        1.0  0.86543  0.59854  0.34969  1.0000
  O   O3        1.0  0.41438  0.61211  0.74596  1.0000
  O   O4        1.0  0.58569  0.38791  0.25403  1.0000
  O   O5        1.0  0.82519  0.10267  0.58157  1.0000
  O   O6        1.0  0.17485  0.89738  0.41840  1.0000
  O   O7        1.0  0.84819  0.05377  0.41373  1.0000
  O   O8        1.0  0.15177  0.94621  0.58622  1.0000
  O   O9        1.0  0.77946  0.10893  0.11551  1.0000
  O   O10       1.0  0.22057  0.89118  0.88439  1.0000
  O   O11       1.0  0.84981  0.39894  0.11346  1.0000
  O   O12       1.0  0.15037  0.60123  0.88656  1.0000
  O   O13       1.0  0.17543  0.78542  0.15441  1.0000
  O   O14       1.0  0.82453  0.21456  0.84579  1.0000
  O   O15       1.0  0.43347  0.78680  0.08960  1.0000
  O   O16       1.0  0.56634  0.21332  0.91041  1.0000
  O   O17       1.0  0.70061  0.66244  0.04106  1.0000
  O   O18       1.0  0.29925  0.33741  0.95891  1.0000
  O   O19       1.0  0.86334  0.88700  0.23528  1.0000
  O   O20       1.0  0.13647  0.11294  0.76462  1.0000
  O   O21       1.0  0.34298  0.11685  0.10070  1.0000
  O   O22       1.0  0.65703  0.88308  0.89937  1.0000
