data_image0
_chemical_formula_structural       Dy2Cd4H38C40N12Cl4O26
_chemical_formula_sum              "Dy2 Cd4 H38 C40 N12 Cl4 O26"
_cell_length_a       7.35165
_cell_length_b       12.4985
_cell_length_c       17.2484
_cell_angle_alpha    68.7943
_cell_angle_beta     87.0725
_cell_angle_gamma    81.3765

_space_group_name_H-M_alt    "P 1"
_space_group_IT_number       1

loop_
  _space_group_symop_operation_xyz
  'x, y, z'

loop_
  _atom_site_type_symbol
  _atom_site_label
  _atom_site_symmetry_multiplicity
  _atom_site_fract_x
  _atom_site_fract_y
  _atom_site_fract_z
  _atom_site_occupancy
  Dy  Dy1       1.0  0.77467  0.58837  0.77424  1.0000
  Dy  Dy2       1.0  0.27487  0.36224  0.22603  1.0000
  Cd  Cd1       1.0  0.81396  0.02067  0.90492  1.0000
  Cd  Cd2       1.0  0.31376  0.92553  0.09471  1.0000
  Cd  Cd3       1.0  0.55651  0.83499  0.47299  1.0000
  Cd  Cd4       1.0  0.05620  0.30872  0.52700  1.0000
  H   H1        1.0  0.26848  0.32840  0.83334  1.0000
  H   H2        1.0  0.76838  0.16252  0.16676  1.0000
  H   H3        1.0  0.37951  0.77754  0.84464  1.0000
  H   H4        1.0  0.87927  0.62194  0.15498  1.0000
  H   H5        1.0  0.34795  0.48360  0.57972  1.0000
  H   H6        1.0  0.84785  0.06288  0.42074  1.0000
  H   H7        1.0  0.20366  0.86865  0.60183  1.0000
  H   H8        1.0  0.70478  0.47001  0.39736  1.0000
  H   H9        1.0  0.86045  0.70846  0.55462  1.0000
  H   H10       1.0  0.35909  0.26294  0.44549  1.0000
  H   H11       1.0  0.82832  0.61363  0.52008  1.0000
  H   H12       1.0  0.32735  0.13362  0.47992  1.0000
  H   H13       1.0  0.53317  0.30285  0.57183  1.0000
  H   H14       1.0  0.03323  0.87421  0.42856  1.0000
  H   H15       1.0  0.24454  0.96991  0.85033  1.0000
  H   H16       1.0  0.74408  0.82000  0.14932  1.0000
  H   H17       1.0  0.05289  0.06421  0.59721  1.0000
  H   H18       1.0  0.55453  0.66087  0.40208  1.0000
  H   H19       1.0  0.44047  0.14045  0.83647  1.0000
  H   H20       1.0  0.94066  0.97784  0.16351  1.0000
  H   H21       1.0  0.94695  0.40316  0.94733  1.0000
  H   H22       1.0  0.44678  0.35090  0.05251  1.0000
  H   H23       1.0  0.09584  0.48403  0.91225  1.0000
  H   H24       1.0  0.59526  0.39674  0.08806  1.0000
  H   H25       1.0  0.55770  0.08824  0.58799  1.0000
  H   H26       1.0  0.05827  0.67642  0.41210  1.0000
  H   H27       1.0  0.46435  0.62272  0.67062  1.0000
  H   H28       1.0  0.96548  0.29255  0.32923  1.0000
  H   H29       1.0  0.39993  0.70443  0.72402  1.0000
  H   H30       1.0  0.90060  0.42770  0.27570  1.0000
  H   H31       1.0  0.17540  0.50924  0.73291  1.0000
  H   H32       1.0  0.67578  0.24198  0.26764  1.0000
  H   H33       1.0  0.16239  0.62173  0.75856  1.0000
  H   H34       1.0  0.66203  0.38031  0.24211  1.0000
  H   H35       1.0  0.57266  0.51653  0.94547  1.0000
  H   H36       1.0  0.07267  0.46161  0.05443  1.0000
  H   H37       1.0  0.67467  0.62554  0.92450  1.0000
  H   H38       1.0  0.17438  0.54966  0.07578  1.0000
  C   C1        1.0  0.74466  0.91738  0.76075  1.0000
  C   C2        1.0  0.24437  0.67821  0.23968  1.0000
  C   C3        1.0  0.89821  0.26236  0.78286  1.0000
  C   C4        1.0  0.39856  0.04504  0.21690  1.0000
  C   C5        1.0  0.69916  0.93536  0.67854  1.0000
  C   C6        1.0  0.19921  0.61401  0.32176  1.0000
  C   C7        1.0  0.32914  0.31933  0.77655  1.0000
  C   C8        1.0  0.82919  0.09639  0.22360  1.0000
  C   C9        1.0  0.91920  0.32154  0.69707  1.0000
  C   C10       1.0  0.41982  0.01804  0.30279  1.0000
  C   C11       1.0  0.60077  0.09398  0.70780  1.0000
  C   C12       1.0  0.10081  0.80196  0.29243  1.0000
  C   C13       1.0  0.30725  0.84449  0.79116  1.0000
  C   C14       1.0  0.80724  0.63536  0.20837  1.0000
  C   C15       1.0  0.04389  0.14164  0.72877  1.0000
  C   C16       1.0  0.54437  0.86999  0.27095  1.0000
  C   C17       1.0  0.85384  0.44070  0.64113  1.0000
  C   C18       1.0  0.35457  0.08113  0.35876  1.0000
  C   C19       1.0  0.80761  0.29332  0.85283  1.0000
  C   C20       1.0  0.30791  0.14628  0.14684  1.0000
  C   C21       1.0  0.84561  0.81719  0.82865  1.0000
  C   C22       1.0  0.34439  0.64569  0.17189  1.0000
  C   C23       1.0  0.37283  0.40548  0.63513  1.0000
  C   C24       1.0  0.87280  0.04043  0.36525  1.0000
  C   C25       1.0  0.13721  0.03325  0.72387  1.0000
  C   C26       1.0  0.63773  0.75674  0.27564  1.0000
  C   C27       1.0  0.50175  0.20603  0.70396  1.0000
  C   C28       1.0  0.00184  0.91022  0.29623  1.0000
  C   C29       1.0  0.20879  0.89602  0.65494  1.0000
  C   C30       1.0  0.70976  0.55051  0.34437  1.0000
  C   C31       1.0  0.47446  0.30415  0.63086  1.0000
  C   C32       1.0  0.97447  0.93486  0.36946  1.0000
  C   C33       1.0  0.23099  0.95121  0.79412  1.0000
  C   C34       1.0  0.73089  0.74504  0.20543  1.0000
  C   C35       1.0  0.12849  0.00489  0.65256  1.0000
  C   C36       1.0  0.62963  0.65697  0.34680  1.0000
  C   C37       1.0  0.42672  0.21472  0.77828  1.0000
  C   C38       1.0  0.92689  0.99361  0.22180  1.0000
  C   C39       1.0  0.72513  0.86503  0.62460  1.0000
  C   C40       1.0  0.22484  0.48969  0.37563  1.0000
  N   N1        1.0  0.97577  0.14962  0.80108  1.0000
  N   N2        1.0  0.47599  0.95061  0.19860  1.0000
  N   N3        1.0  0.01022  0.24323  0.66434  1.0000
  N   N4        1.0  0.51084  0.90687  0.33550  1.0000
  N   N5        1.0  0.30075  0.41323  0.70657  1.0000
  N   N6        1.0  0.80075  0.11992  0.29370  1.0000
  N   N7        1.0  0.29474  0.81700  0.72329  1.0000
  N   N8        1.0  0.79519  0.53989  0.27611  1.0000
  N   N9        1.0  0.61132  0.04815  0.64693  1.0000
  N   N10       1.0  0.11153  0.69523  0.35326  1.0000
  N   N11       1.0  0.68363  0.01610  0.77672  1.0000
  N   N12       1.0  0.18336  0.79295  0.22364  1.0000
  Cl  Cl1       1.0  0.32559  0.70548  0.53918  1.0000
  Cl  Cl2       1.0  0.82534  0.24476  0.46065  1.0000
  Cl  Cl3       1.0  0.99247  0.92626  0.03925  1.0000
  Cl  Cl4       1.0  0.49347  0.96460  0.96108  1.0000
  O   O1        1.0  0.86681  0.71688  0.82231  1.0000
  O   O2        1.0  0.36595  0.53894  0.17847  1.0000
  O   O3        1.0  0.80522  0.39751  0.85184  1.0000
  O   O4        1.0  0.30585  0.24932  0.14808  1.0000
  O   O5        1.0  0.74404  0.21450  0.91130  1.0000
  O   O6        1.0  0.24401  0.12625  0.08811  1.0000
  O   O7        1.0  0.83523  0.69917  0.50187  1.0000
  O   O8        1.0  0.33426  0.20089  0.49817  1.0000
  O   O9        1.0  0.86593  0.46423  0.56273  1.0000
  O   O10       1.0  0.36626  0.02616  0.43717  1.0000
  O   O11       1.0  0.02677  0.44880  0.96262  1.0000
  O   O12       1.0  0.52708  0.41143  0.03732  1.0000
  O   O13       1.0  0.47780  0.62435  0.72668  1.0000
  O   O14       1.0  0.97835  0.35026  0.27324  1.0000
  O   O15       1.0  0.67625  0.92091  0.54904  1.0000
  O   O16       1.0  0.17568  0.47016  0.45103  1.0000
  O   O17       1.0  0.09540  0.55782  0.76384  1.0000
  O   O18       1.0  0.59516  0.32163  0.23676  1.0000
  O   O19       1.0  0.78638  0.51623  0.67213  1.0000
  O   O20       1.0  0.28743  0.18782  0.32775  1.0000
  O   O21       1.0  0.78967  0.75778  0.65345  1.0000
  O   O22       1.0  0.28935  0.41115  0.34697  1.0000
  O   O23       1.0  0.90276  0.83611  0.88917  1.0000
  O   O24       1.0  0.40042  0.72496  0.11118  1.0000
  O   O25       1.0  0.60507  0.58644  0.89879  1.0000
  O   O26       1.0  0.10513  0.48481  0.10124  1.0000
