data_image0
_chemical_formula_structural       Tb2Cd4H38C40N12Cl4O26
_chemical_formula_sum              "Tb2 Cd4 H38 C40 N12 Cl4 O26"
_cell_length_a       7.37343
_cell_length_b       12.515
_cell_length_c       17.2766
_cell_angle_alpha    68.7993
_cell_angle_beta     87.0509
_cell_angle_gamma    81.3423

_space_group_name_H-M_alt    "P 1"
_space_group_IT_number       1

loop_
  _space_group_symop_operation_xyz
  'x, y, z'

loop_
  _atom_site_type_symbol
  _atom_site_label
  _atom_site_symmetry_multiplicity
  _atom_site_fract_x
  _atom_site_fract_y
  _atom_site_fract_z
  _atom_site_occupancy
  Tb  Tb1       1.0  0.77300  0.58680  0.77458  1.0000
  Tb  Tb2       1.0  0.27321  0.36103  0.22554  1.0000
  Cd  Cd1       1.0  0.81805  0.01821  0.90519  1.0000
  Cd  Cd2       1.0  0.31820  0.92320  0.09450  1.0000
  Cd  Cd3       1.0  0.55425  0.83425  0.47322  1.0000
  Cd  Cd4       1.0  0.05359  0.30786  0.52681  1.0000
  H   H1        1.0  0.26997  0.32213  0.83708  1.0000
  H   H2        1.0  0.77033  0.15980  0.16291  1.0000
  H   H3        1.0  0.38220  0.77821  0.84436  1.0000
  H   H4        1.0  0.88274  0.62201  0.15585  1.0000
  H   H5        1.0  0.34238  0.48087  0.58369  1.0000
  H   H6        1.0  0.84269  0.06391  0.41664  1.0000
  H   H7        1.0  0.20487  0.86723  0.60246  1.0000
  H   H8        1.0  0.70569  0.46927  0.39722  1.0000
  H   H9        1.0  0.85673  0.70790  0.55485  1.0000
  H   H10       1.0  0.35567  0.26264  0.44535  1.0000
  H   H11       1.0  0.82585  0.61317  0.52016  1.0000
  H   H12       1.0  0.32528  0.13327  0.47987  1.0000
  H   H13       1.0  0.52821  0.30185  0.57364  1.0000
  H   H14       1.0  0.02847  0.87477  0.42667  1.0000
  H   H15       1.0  0.24594  0.97025  0.84967  1.0000
  H   H16       1.0  0.74633  0.81948  0.15034  1.0000
  H   H17       1.0  0.05253  0.06238  0.59761  1.0000
  H   H18       1.0  0.55388  0.65970  0.40193  1.0000
  H   H19       1.0  0.44339  0.13580  0.83811  1.0000
  H   H20       1.0  0.94407  0.97457  0.16180  1.0000
  H   H21       1.0  0.94596  0.40197  0.94815  1.0000
  H   H22       1.0  0.44648  0.35028  0.05152  1.0000
  H   H23       1.0  0.09136  0.48424  0.91082  1.0000
  H   H24       1.0  0.59118  0.39526  0.08941  1.0000
  H   H25       1.0  0.55609  0.08676  0.58877  1.0000
  H   H26       1.0  0.05649  0.67551  0.41112  1.0000
  H   H27       1.0  0.46105  0.62211  0.67062  1.0000
  H   H28       1.0  0.96228  0.29202  0.32917  1.0000
  H   H29       1.0  0.39917  0.70402  0.72399  1.0000
  H   H30       1.0  0.89981  0.42741  0.27603  1.0000
  H   H31       1.0  0.17495  0.50377  0.73637  1.0000
  H   H32       1.0  0.67534  0.23986  0.26386  1.0000
  H   H33       1.0  0.16359  0.61711  0.76071  1.0000
  H   H34       1.0  0.66350  0.37760  0.23961  1.0000
  H   H35       1.0  0.57199  0.51650  0.94666  1.0000
  H   H36       1.0  0.07182  0.46314  0.05303  1.0000
  H   H37       1.0  0.67535  0.62475  0.92516  1.0000
  H   H38       1.0  0.17533  0.54969  0.07493  1.0000
  C   C1        1.0  0.74636  0.91631  0.76032  1.0000
  C   C2        1.0  0.24629  0.67654  0.23995  1.0000
  C   C3        1.0  0.89752  0.26064  0.78272  1.0000
  C   C4        1.0  0.39795  0.04312  0.21709  1.0000
  C   C5        1.0  0.69936  0.93438  0.67844  1.0000
  C   C6        1.0  0.19936  0.61272  0.32169  1.0000
  C   C7        1.0  0.32933  0.31423  0.77985  1.0000
  C   C8        1.0  0.82972  0.09439  0.22021  1.0000
  C   C9        1.0  0.91787  0.31994  0.69702  1.0000
  C   C10       1.0  0.41864  0.01644  0.30287  1.0000
  C   C11       1.0  0.60081  0.09223  0.70835  1.0000
  C   C12       1.0  0.10115  0.80061  0.29171  1.0000
  C   C13       1.0  0.30954  0.84464  0.79093  1.0000
  C   C14       1.0  0.81013  0.63510  0.20911  1.0000
  C   C15       1.0  0.04380  0.14053  0.72851  1.0000
  C   C16       1.0  0.54449  0.86866  0.27130  1.0000
  C   C17       1.0  0.85245  0.43896  0.64118  1.0000
  C   C18       1.0  0.35342  0.07959  0.35870  1.0000
  C   C19       1.0  0.80743  0.29082  0.85296  1.0000
  C   C20       1.0  0.30765  0.14376  0.14678  1.0000
  C   C21       1.0  0.84781  0.81639  0.82789  1.0000
  C   C22       1.0  0.34707  0.64401  0.17251  1.0000
  C   C23       1.0  0.36905  0.40236  0.63850  1.0000
  C   C24       1.0  0.86944  0.04048  0.36174  1.0000
  C   C25       1.0  0.13786  0.03245  0.72368  1.0000
  C   C26       1.0  0.63864  0.75575  0.27610  1.0000
  C   C27       1.0  0.50085  0.20348  0.70551  1.0000
  C   C28       1.0  0.00136  0.90902  0.29458  1.0000
  C   C29       1.0  0.21011  0.89505  0.65524  1.0000
  C   C30       1.0  0.71100  0.54984  0.34453  1.0000
  C   C31       1.0  0.47121  0.30207  0.63307  1.0000
  C   C32       1.0  0.97159  0.93475  0.36717  1.0000
  C   C33       1.0  0.23256  0.95118  0.79371  1.0000
  C   C34       1.0  0.73308  0.74446  0.20624  1.0000
  C   C35       1.0  0.12887  0.00363  0.65273  1.0000
  C   C36       1.0  0.62995  0.65599  0.34695  1.0000
  C   C37       1.0  0.42776  0.21062  0.78042  1.0000
  C   C38       1.0  0.92832  0.99141  0.21958  1.0000
  C   C39       1.0  0.72401  0.86429  0.62451  1.0000
  C   C40       1.0  0.22360  0.48866  0.37559  1.0000
  N   N1        1.0  0.97606  0.14827  0.80078  1.0000
  N   N2        1.0  0.47646  0.94887  0.19899  1.0000
  N   N3        1.0  0.00937  0.24197  0.66423  1.0000
  N   N4        1.0  0.51024  0.90560  0.33566  1.0000
  N   N5        1.0  0.29863  0.40855  0.71046  1.0000
  N   N6        1.0  0.79904  0.11895  0.28970  1.0000
  N   N7        1.0  0.29710  0.81680  0.72336  1.0000
  N   N8        1.0  0.79779  0.53968  0.27657  1.0000
  N   N9        1.0  0.61046  0.04676  0.64741  1.0000
  N   N10       1.0  0.11067  0.69417  0.35259  1.0000
  N   N11       1.0  0.68532  0.01454  0.77669  1.0000
  N   N12       1.0  0.18541  0.79120  0.22354  1.0000
  Cl  Cl1       1.0  0.32553  0.70392  0.53958  1.0000
  Cl  Cl2       1.0  0.82524  0.24329  0.46021  1.0000
  Cl  Cl3       1.0  0.99807  0.92184  0.03886  1.0000
  Cl  Cl4       1.0  0.49882  0.95997  0.96138  1.0000
  O   O1        1.0  0.86722  0.71601  0.82207  1.0000
  O   O2        1.0  0.36689  0.53767  0.17858  1.0000
  O   O3        1.0  0.80334  0.39484  0.85214  1.0000
  O   O4        1.0  0.30371  0.24689  0.14776  1.0000
  O   O5        1.0  0.74610  0.21134  0.91158  1.0000
  O   O6        1.0  0.24610  0.12312  0.08794  1.0000
  O   O7        1.0  0.83244  0.69849  0.50213  1.0000
  O   O8        1.0  0.33172  0.20048  0.49800  1.0000
  O   O9        1.0  0.86498  0.46268  0.56290  1.0000
  O   O10       1.0  0.36578  0.02503  0.43698  1.0000
  O   O11       1.0  0.02369  0.44993  0.96174  1.0000
  O   O12       1.0  0.52494  0.41131  0.03803  1.0000
  O   O13       1.0  0.47474  0.62337  0.72667  1.0000
  O   O14       1.0  0.97536  0.34953  0.27324  1.0000
  O   O15       1.0  0.67412  0.91997  0.54923  1.0000
  O   O16       1.0  0.17275  0.46922  0.45063  1.0000
  O   O17       1.0  0.09513  0.55381  0.76650  1.0000
  O   O18       1.0  0.59512  0.32009  0.23372  1.0000
  O   O19       1.0  0.78492  0.51427  0.67224  1.0000
  O   O20       1.0  0.28612  0.18609  0.32756  1.0000
  O   O21       1.0  0.78827  0.75712  0.65318  1.0000
  O   O22       1.0  0.28852  0.41005  0.34717  1.0000
  O   O23       1.0  0.90675  0.83546  0.88787  1.0000
  O   O24       1.0  0.40504  0.72290  0.11242  1.0000
  O   O25       1.0  0.60467  0.58595  0.89982  1.0000
  O   O26       1.0  0.10491  0.48553  0.10005  1.0000
