data_image0
_chemical_formula_structural       Ag10H32C50N18
_chemical_formula_sum              "Ag10 H32 C50 N18"
_cell_length_a       9.19926
_cell_length_b       11.1504
_cell_length_c       13.6089
_cell_angle_alpha    87.5988
_cell_angle_beta     72.7476
_cell_angle_gamma    85.0654

_space_group_name_H-M_alt    "P 1"
_space_group_IT_number       1

loop_
  _space_group_symop_operation_xyz
  'x, y, z'

loop_
  _atom_site_type_symbol
  _atom_site_label
  _atom_site_symmetry_multiplicity
  _atom_site_fract_x
  _atom_site_fract_y
  _atom_site_fract_z
  _atom_site_occupancy
  Ag  Ag1       1.0  0.93960  0.98821  0.32344  1.0000
  Ag  Ag2       1.0  0.06041  0.01179  0.67656  1.0000
  Ag  Ag3       1.0  0.70865  0.29060  0.02222  1.0000
  Ag  Ag4       1.0  0.29134  0.70940  0.97778  1.0000
  Ag  Ag5       1.0  0.08135  0.54292  0.15052  1.0000
  Ag  Ag6       1.0  0.91864  0.45707  0.84949  1.0000
  Ag  Ag7       1.0  0.49333  0.24102  0.24279  1.0000
  Ag  Ag8       1.0  0.50667  0.75898  0.75721  1.0000
  Ag  Ag9       1.0  0.28204  0.20856  0.50001  1.0000
  Ag  Ag10      1.0  0.71797  0.79144  0.49998  1.0000
  H   H1        1.0  0.59344  0.08367  0.51555  1.0000
  H   H2        1.0  0.40656  0.91633  0.48445  1.0000
  H   H3        1.0  0.46963  0.04513  0.79735  1.0000
  H   H4        1.0  0.53036  0.95487  0.20265  1.0000
  H   H5        1.0  0.85549  0.01094  0.08259  1.0000
  H   H6        1.0  0.14450  0.98906  0.91741  1.0000
  H   H7        1.0  0.58098  0.47312  0.67403  1.0000
  H   H8        1.0  0.41901  0.52688  0.32597  1.0000
  H   H9        1.0  0.43457  0.43437  0.96076  1.0000
  H   H10       1.0  0.56543  0.56563  0.03924  1.0000
  H   H11       1.0  0.99606  0.42814  0.57301  1.0000
  H   H12       1.0  0.00394  0.57187  0.42699  1.0000
  H   H13       1.0  0.42160  0.59965  0.65105  1.0000
  H   H14       1.0  0.57840  0.40035  0.34895  1.0000
  H   H15       1.0  0.79844  0.32264  0.66686  1.0000
  H   H16       1.0  0.20156  0.67736  0.33313  1.0000
  H   H17       1.0  0.96544  0.64476  0.62426  1.0000
  H   H18       1.0  0.03456  0.35525  0.37574  1.0000
  H   H19       1.0  0.80719  0.12372  0.58366  1.0000
  H   H20       1.0  0.19281  0.87628  0.41634  1.0000
  H   H21       1.0  0.94429  0.81906  0.98507  1.0000
  H   H22       1.0  0.05571  0.18094  0.01492  1.0000
  H   H23       1.0  0.27408  0.20313  0.77617  1.0000
  H   H24       1.0  0.72592  0.79687  0.22384  1.0000
  H   H25       1.0  0.25362  0.40238  0.86185  1.0000
  H   H26       1.0  0.74638  0.59762  0.13816  1.0000
  H   H27       1.0  0.66956  0.94284  0.78852  1.0000
  H   H28       1.0  0.33044  0.05716  0.21147  1.0000
  H   H29       1.0  0.84720  0.78527  0.83499  1.0000
  H   H30       1.0  0.15280  0.21473  0.16501  1.0000
  H   H31       1.0  0.18586  0.73107  0.66305  1.0000
  H   H32       1.0  0.81414  0.26893  0.33695  1.0000
  C   C1        1.0  0.33435  0.44363  0.60398  1.0000
  C   C2        1.0  0.66565  0.55637  0.39602  1.0000
  C   C3        1.0  0.03555  0.72332  0.19849  1.0000
  C   C4        1.0  0.96445  0.27667  0.80151  1.0000
  C   C5        1.0  0.59427  0.16949  0.55086  1.0000
  C   C6        1.0  0.40572  0.83051  0.44914  1.0000
  C   C7        1.0  0.07806  0.07604  0.38869  1.0000
  C   C8        1.0  0.92194  0.92397  0.61130  1.0000
  C   C9        1.0  0.93215  0.42992  0.11228  1.0000
  C   C10       1.0  0.06784  0.57008  0.88773  1.0000
  C   C11       1.0  0.72906  0.05141  0.30419  1.0000
  C   C12       1.0  0.27094  0.94859  0.69581  1.0000
  C   C13       1.0  0.46176  0.13262  0.83163  1.0000
  C   C14       1.0  0.53824  0.86738  0.16837  1.0000
  C   C15       1.0  0.66654  0.05969  0.91265  1.0000
  C   C16       1.0  0.33346  0.94031  0.08735  1.0000
  C   C17       1.0  0.27456  0.44428  0.17750  1.0000
  C   C18       1.0  0.72544  0.55571  0.82250  1.0000
  C   C19       1.0  0.81757  0.99292  0.01626  1.0000
  C   C20       1.0  0.18243  0.00707  0.98374  1.0000
  C   C21       1.0  0.58723  0.38742  0.63713  1.0000
  C   C22       1.0  0.41276  0.61258  0.36287  1.0000
  C   C23       1.0  0.55615  0.15495  0.89171  1.0000
  C   C24       1.0  0.44385  0.84505  0.10829  1.0000
  C   C25       1.0  0.43974  0.34881  0.92347  1.0000
  C   C26       1.0  0.56026  0.65118  0.07653  1.0000
  C   C27       1.0  0.08868  0.47006  0.58983  1.0000
  C   C28       1.0  0.91132  0.52994  0.41017  1.0000
  C   C29       1.0  0.32575  0.56356  0.63365  1.0000
  C   C30       1.0  0.67425  0.43645  0.36635  1.0000
  C   C31       1.0  0.70946  0.30340  0.63315  1.0000
  C   C32       1.0  0.29054  0.69660  0.36685  1.0000
  C   C33       1.0  0.07155  0.59018  0.61867  1.0000
  C   C34       1.0  0.92845  0.40982  0.38133  1.0000
  C   C35       1.0  0.71394  0.19237  0.58858  1.0000
  C   C36       1.0  0.28605  0.80763  0.41142  1.0000
  C   C37       1.0  0.86657  0.88609  0.96223  1.0000
  C   C38       1.0  0.13343  0.11391  0.03777  1.0000
  C   C39       1.0  0.35179  0.22100  0.81978  1.0000
  C   C40       1.0  0.64821  0.77900  0.18022  1.0000
  C   C41       1.0  0.47049  0.35877  0.59748  1.0000
  C   C42       1.0  0.52951  0.64123  0.40252  1.0000
  C   C43       1.0  0.33966  0.33122  0.86716  1.0000
  C   C44       1.0  0.66034  0.66878  0.13285  1.0000
  C   C45       1.0  0.71051  0.95499  0.85445  1.0000
  C   C46       1.0  0.28949  0.04501  0.14554  1.0000
  C   C47       1.0  0.81210  0.86741  0.87937  1.0000
  C   C48       1.0  0.18791  0.13259  0.12063  1.0000
  C   C49       1.0  0.19365  0.63765  0.64039  1.0000
  C   C50       1.0  0.80635  0.36235  0.35961  1.0000
  N   N1        1.0  0.47521  0.25011  0.55508  1.0000
  N   N2        1.0  0.52479  0.74989  0.44492  1.0000
  N   N3        1.0  0.21664  0.39922  0.58130  1.0000
  N   N4        1.0  0.78335  0.60078  0.41871  1.0000
  N   N5        1.0  0.35882  0.37614  0.20594  1.0000
  N   N6        1.0  0.64118  0.62386  0.79406  1.0000
  N   N7        1.0  0.72143  0.07769  0.99201  1.0000
  N   N8        1.0  0.27857  0.92231  0.00798  1.0000
  N   N9        1.0  0.54531  0.26329  0.93592  1.0000
  N   N10       1.0  0.45469  0.73671  0.06408  1.0000
  N   N11       1.0  0.01446  0.81599  0.24047  1.0000
  N   N12       1.0  0.98555  0.18401  0.75952  1.0000
  N   N13       1.0  0.62864  0.10942  0.28408  1.0000
  N   N14       1.0  0.37136  0.89058  0.71592  1.0000
  N   N15       1.0  0.84600  0.37269  0.08951  1.0000
  N   N16       1.0  0.15400  0.62731  0.91049  1.0000
  N   N17       1.0  0.15686  0.12574  0.42492  1.0000
  N   N18       1.0  0.84314  0.87427  0.57507  1.0000
