data_image0
_chemical_formula_structural       Cu4H24C16O20
_chemical_formula_sum              "Cu4 H24 C16 O20"
_cell_length_a       6.57224
_cell_length_b       8.73642
_cell_length_c       11.6022
_cell_angle_alpha    79.1928
_cell_angle_beta     85.3901
_cell_angle_gamma    69.6102

_space_group_name_H-M_alt    "P 1"
_space_group_IT_number       1

loop_
  _space_group_symop_operation_xyz
  'x, y, z'

loop_
  _atom_site_type_symbol
  _atom_site_label
  _atom_site_symmetry_multiplicity
  _atom_site_fract_x
  _atom_site_fract_y
  _atom_site_fract_z
  _atom_site_occupancy
  Cu  Cu1       1.0  0.13326  0.36468  0.47458  1.0000
  Cu  Cu2       1.0  0.86673  0.63531  0.52542  1.0000
  Cu  Cu3       1.0  0.85191  0.14153  0.97193  1.0000
  Cu  Cu4       1.0  0.14809  0.85848  0.02808  1.0000
  H   H1        1.0  0.27883  0.73371  0.29606  1.0000
  H   H2        1.0  0.72119  0.26626  0.70394  1.0000
  H   H3        1.0  0.65526  0.52387  0.26073  1.0000
  H   H4        1.0  0.34475  0.47612  0.73927  1.0000
  H   H5        1.0  0.61587  0.22518  0.40119  1.0000
  H   H6        1.0  0.38414  0.77483  0.59880  1.0000
  H   H7        1.0  0.68598  0.02476  0.36006  1.0000
  H   H8        1.0  0.31404  0.97524  0.63992  1.0000
  H   H9        1.0  0.40649  0.89479  0.38997  1.0000
  H   H10       1.0  0.59354  0.10520  0.61001  1.0000
  H   H11       1.0  0.14839  0.00903  0.44779  1.0000
  H   H12       1.0  0.85163  0.99097  0.55219  1.0000
  H   H13       1.0  0.17179  0.15867  0.23155  1.0000
  H   H14       1.0  0.82821  0.84135  0.76846  1.0000
  H   H15       1.0  0.62835  0.86073  0.20717  1.0000
  H   H16       1.0  0.37166  0.13926  0.79284  1.0000
  H   H17       1.0  0.35347  0.28382  0.99851  1.0000
  H   H18       1.0  0.64651  0.71619  0.00148  1.0000
  H   H19       1.0  0.23806  0.49725  0.93074  1.0000
  H   H20       1.0  0.76192  0.50276  0.06925  1.0000
  H   H21       1.0  0.49278  0.63779  0.84433  1.0000
  H   H22       1.0  0.50719  0.36222  0.15566  1.0000
  H   H23       1.0  0.77649  0.51887  0.85350  1.0000
  H   H24       1.0  0.22349  0.48114  0.14649  1.0000
  C   C1        1.0  0.19612  0.66336  0.35978  1.0000
  C   C2        1.0  0.80390  0.33661  0.64022  1.0000
  C   C3        1.0  0.76178  0.51495  0.33253  1.0000
  C   C4        1.0  0.23823  0.48505  0.66747  1.0000
  C   C5        1.0  0.59667  0.10334  0.42446  1.0000
  C   C6        1.0  0.40337  0.89665  0.57554  1.0000
  C   C7        1.0  0.32424  0.97808  0.45259  1.0000
  C   C8        1.0  0.67577  0.02190  0.54742  1.0000
  C   C9        1.0  0.12019  0.11067  0.16148  1.0000
  C   C10       1.0  0.87982  0.88934  0.83853  1.0000
  C   C11       1.0  0.74311  0.90131  0.14475  1.0000
  C   C12       1.0  0.25689  0.09870  0.85526  1.0000
  C   C13       1.0  0.37260  0.40551  0.98377  1.0000
  C   C14       1.0  0.62738  0.59450  0.01623  1.0000
  C   C15       1.0  0.61975  0.54178  0.90016  1.0000
  C   C16       1.0  0.38024  0.45823  0.09983  1.0000
  O   O1        1.0  0.27272  0.50678  0.36837  1.0000
  O   O2        1.0  0.72728  0.49320  0.63163  1.0000
  O   O3        1.0  0.93228  0.38816  0.34683  1.0000
  O   O4        1.0  0.06772  0.61183  0.65318  1.0000
  O   O5        1.0  0.36736  0.13180  0.41736  1.0000
  O   O6        1.0  0.63262  0.86823  0.58262  1.0000
  O   O7        1.0  0.96452  0.24984  0.58510  1.0000
  O   O8        1.0  0.03549  0.75015  0.41490  1.0000
  O   O9        1.0  0.30395  0.36663  0.60944  1.0000
  O   O10       1.0  0.69606  0.63336  0.39056  1.0000
  O   O11       1.0  0.96327  0.21343  0.10019  1.0000
  O   O12       1.0  0.03671  0.78660  0.89982  1.0000
  O   O13       1.0  0.22432  0.96061  0.15211  1.0000
  O   O14       1.0  0.77566  0.03941  0.84790  1.0000
  O   O15       1.0  0.66966  0.04911  0.09013  1.0000
  O   O16       1.0  0.33032  0.95090  0.90988  1.0000
  O   O17       1.0  0.93027  0.79400  0.13672  1.0000
  O   O18       1.0  0.06972  0.20602  0.86329  1.0000
  O   O19       1.0  0.57460  0.38783  0.91815  1.0000
  O   O20       1.0  0.42540  0.61217  0.08184  1.0000
