data_image0
_chemical_formula_structural       Cu8H16C16O32
_chemical_formula_sum              "Cu8 H16 C16 O32"
_cell_length_a       6.23806
_cell_length_b       8.97953
_cell_length_c       14.3226
_cell_angle_alpha    90
_cell_angle_beta     90
_cell_angle_gamma    89.9999

_space_group_name_H-M_alt    "P 1"
_space_group_IT_number       1

loop_
  _space_group_symop_operation_xyz
  'x, y, z'

loop_
  _atom_site_type_symbol
  _atom_site_label
  _atom_site_symmetry_multiplicity
  _atom_site_fract_x
  _atom_site_fract_y
  _atom_site_fract_z
  _atom_site_occupancy
  Cu  Cu1       1.0  0.00192  0.94254  0.88328  1.0000
  Cu  Cu2       1.0  0.50192  0.05746  0.61672  1.0000
  Cu  Cu3       1.0  0.99808  0.55746  0.38328  1.0000
  Cu  Cu4       1.0  0.49808  0.44254  0.11672  1.0000
  Cu  Cu5       1.0  0.99808  0.05746  0.11672  1.0000
  Cu  Cu6       1.0  0.49808  0.94254  0.38328  1.0000
  Cu  Cu7       1.0  0.00192  0.44254  0.61672  1.0000
  Cu  Cu8       1.0  0.50192  0.55746  0.88328  1.0000
  H   H1        1.0  0.96598  0.68723  0.03553  1.0000
  H   H2        1.0  0.46598  0.31277  0.46447  1.0000
  H   H3        1.0  0.03402  0.81277  0.53553  1.0000
  H   H4        1.0  0.53402  0.18723  0.96447  1.0000
  H   H5        1.0  0.03402  0.31277  0.96447  1.0000
  H   H6        1.0  0.53402  0.68723  0.53553  1.0000
  H   H7        1.0  0.96598  0.18723  0.46447  1.0000
  H   H8        1.0  0.46598  0.81277  0.03553  1.0000
  H   H9        1.0  0.82911  0.75269  0.73892  1.0000
  H   H10       1.0  0.32911  0.24731  0.76108  1.0000
  H   H11       1.0  0.17089  0.74731  0.23892  1.0000
  H   H12       1.0  0.67089  0.25269  0.26108  1.0000
  H   H13       1.0  0.17089  0.24731  0.26108  1.0000
  H   H14       1.0  0.67089  0.75269  0.23892  1.0000
  H   H15       1.0  0.82911  0.25269  0.76108  1.0000
  H   H16       1.0  0.32911  0.74732  0.73892  1.0000
  C   C1        1.0  0.84600  0.67384  0.97984  1.0000
  C   C2        1.0  0.34600  0.32616  0.52016  1.0000
  C   C3        1.0  0.15400  0.82616  0.47984  1.0000
  C   C4        1.0  0.65400  0.17384  0.02016  1.0000
  C   C5        1.0  0.15401  0.32616  0.02016  1.0000
  C   C6        1.0  0.65400  0.67384  0.47984  1.0000
  C   C7        1.0  0.84600  0.17384  0.52016  1.0000
  C   C8        1.0  0.34600  0.82616  0.97984  1.0000
  C   C9        1.0  0.76492  0.86404  0.72260  1.0000
  C   C10       1.0  0.26492  0.13596  0.77740  1.0000
  C   C11       1.0  0.23509  0.63596  0.22260  1.0000
  C   C12       1.0  0.73508  0.36405  0.27740  1.0000
  C   C13       1.0  0.23507  0.13596  0.27740  1.0000
  C   C14       1.0  0.73508  0.86405  0.22260  1.0000
  C   C15       1.0  0.76492  0.36405  0.77740  1.0000
  C   C16       1.0  0.26492  0.63596  0.72260  1.0000
  O   O1        1.0  0.84746  0.75657  0.90820  1.0000
  O   O2        1.0  0.34746  0.24343  0.59180  1.0000
  O   O3        1.0  0.15254  0.74343  0.40820  1.0000
  O   O4        1.0  0.65254  0.25657  0.09180  1.0000
  O   O5        1.0  0.15254  0.24343  0.09180  1.0000
  O   O6        1.0  0.65254  0.75657  0.40820  1.0000
  O   O7        1.0  0.84746  0.25657  0.59180  1.0000
  O   O8        1.0  0.34746  0.74343  0.90820  1.0000
  O   O9        1.0  0.80943  0.97397  0.77489  1.0000
  O   O10       1.0  0.30943  0.02603  0.72510  1.0000
  O   O11       1.0  0.19057  0.52603  0.27489  1.0000
  O   O12       1.0  0.69057  0.47397  0.22511  1.0000
  O   O13       1.0  0.19056  0.02603  0.22511  1.0000
  O   O14       1.0  0.69057  0.97397  0.27489  1.0000
  O   O15       1.0  0.80943  0.47397  0.72511  1.0000
  O   O16       1.0  0.30943  0.52603  0.77489  1.0000
  O   O17       1.0  0.70468  0.57263  0.99105  1.0000
  O   O18       1.0  0.20469  0.42737  0.50896  1.0000
  O   O19       1.0  0.29531  0.92737  0.49105  1.0000
  O   O20       1.0  0.79532  0.07263  0.00895  1.0000
  O   O21       1.0  0.29532  0.42737  0.00895  1.0000
  O   O22       1.0  0.79532  0.57263  0.49105  1.0000
  O   O23       1.0  0.70469  0.07263  0.50896  1.0000
  O   O24       1.0  0.20468  0.92737  0.99104  1.0000
  O   O25       1.0  0.64688  0.87153  0.65035  1.0000
  O   O26       1.0  0.14688  0.12847  0.84965  1.0000
  O   O27       1.0  0.35312  0.62847  0.15035  1.0000
  O   O28       1.0  0.85312  0.37153  0.34965  1.0000
  O   O29       1.0  0.35311  0.12847  0.34966  1.0000
  O   O30       1.0  0.85312  0.87153  0.15035  1.0000
  O   O31       1.0  0.64688  0.37153  0.84965  1.0000
  O   O32       1.0  0.14689  0.62847  0.65035  1.0000
