data_image0
_chemical_formula_structural       U4H24C32O30
_chemical_formula_sum              "U4 H24 C32 O30"
_cell_length_a       8.67582
_cell_length_b       10.5924
_cell_length_c       14.1887
_cell_angle_alpha    71.1403
_cell_angle_beta     72.5469
_cell_angle_gamma    65.0466

_space_group_name_H-M_alt    "P 1"
_space_group_IT_number       1

loop_
  _space_group_symop_operation_xyz
  'x, y, z'

loop_
  _atom_site_type_symbol
  _atom_site_label
  _atom_site_symmetry_multiplicity
  _atom_site_fract_x
  _atom_site_fract_y
  _atom_site_fract_z
  _atom_site_occupancy
  U   U1        1.0  0.40086  0.27350  0.04289  1.0000
  U   U2        1.0  0.59912  0.72650  0.95711  1.0000
  U   U3        1.0  0.14024  0.21480  0.50209  1.0000
  U   U4        1.0  0.85978  0.78520  0.49790  1.0000
  H   H1        1.0  0.08813  0.22146  0.22509  1.0000
  H   H2        1.0  0.91186  0.77854  0.77491  1.0000
  H   H3        1.0  0.08404  0.38152  0.20289  1.0000
  H   H4        1.0  0.91595  0.61847  0.79711  1.0000
  H   H5        1.0  0.30123  0.21197  0.28507  1.0000
  H   H6        1.0  0.69876  0.78802  0.71493  1.0000
  H   H7        1.0  0.45943  0.20620  0.32205  1.0000
  H   H8        1.0  0.54056  0.79380  0.67794  1.0000
  H   H9        1.0  0.15709  0.95212  0.43590  1.0000
  H   H10       1.0  0.84292  0.04788  0.56411  1.0000
  H   H11       1.0  0.34565  0.95652  0.41423  1.0000
  H   H12       1.0  0.65436  0.04347  0.58578  1.0000
  H   H13       1.0  0.99301  0.27757  0.96827  1.0000
  H   H14       1.0  0.00697  0.72243  0.03174  1.0000
  H   H15       1.0  0.22557  0.04438  0.94646  1.0000
  H   H16       1.0  0.77442  0.95563  0.05354  1.0000
  H   H17       1.0  0.21437  0.91841  0.82899  1.0000
  H   H18       1.0  0.78564  0.08159  0.17101  1.0000
  H   H19       1.0  0.34964  0.19256  0.75040  1.0000
  H   H20       1.0  0.65036  0.80746  0.24959  1.0000
  H   H21       1.0  0.28933  0.42312  0.62030  1.0000
  H   H22       1.0  0.71069  0.57690  0.37969  1.0000
  H   H23       1.0  0.49633  0.55192  0.56651  1.0000
  H   H24       1.0  0.50370  0.44808  0.43349  1.0000
  C   C1        1.0  0.84676  0.21281  0.79637  1.0000
  C   C2        1.0  0.15322  0.78717  0.20364  1.0000
  C   C3        1.0  0.85140  0.27973  0.86607  1.0000
  C   C4        1.0  0.14860  0.72026  0.13392  1.0000
  C   C5        1.0  0.99093  0.22185  0.91654  1.0000
  C   C6        1.0  0.00905  0.77815  0.08347  1.0000
  C   C7        1.0  0.12125  0.09175  0.90382  1.0000
  C   C8        1.0  0.87874  0.90827  0.09618  1.0000
  C   C9        1.0  0.11464  0.02125  0.83848  1.0000
  C   C10       1.0  0.88535  0.97876  0.16153  1.0000
  C   C11       1.0  0.98185  0.08308  0.78275  1.0000
  C   C12       1.0  0.01815  0.91692  0.21725  1.0000
  C   C13       1.0  0.70419  0.40515  0.89841  1.0000
  C   C14       1.0  0.29579  0.59484  0.10160  1.0000
  C   C15       1.0  0.99072  0.00800  0.70726  1.0000
  C   C16       1.0  0.00925  0.99202  0.29274  1.0000
  C   C17       1.0  0.69796  0.27113  0.74362  1.0000
  C   C18       1.0  0.30204  0.72887  0.25638  1.0000
  C   C19       1.0  0.57883  0.20105  0.77452  1.0000
  C   C20       1.0  0.42118  0.79895  0.22547  1.0000
  C   C21       1.0  0.43688  0.25149  0.72720  1.0000
  C   C22       1.0  0.56312  0.74852  0.27280  1.0000
  C   C23       1.0  0.40390  0.37996  0.65413  1.0000
  C   C24       1.0  0.59611  0.62004  0.34586  1.0000
  C   C25       1.0  0.51880  0.45225  0.62420  1.0000
  C   C26       1.0  0.48120  0.54775  0.37580  1.0000
  C   C27       1.0  0.67027  0.39457  0.66429  1.0000
  C   C28       1.0  0.32974  0.60543  0.33571  1.0000
  C   C29       1.0  0.59586  0.07741  0.86501  1.0000
  C   C30       1.0  0.40412  0.92260  0.13499  1.0000
  C   C31       1.0  0.80497  0.46015  0.61290  1.0000
  C   C32       1.0  0.19506  0.53984  0.38711  1.0000
  O   O1        1.0  0.24275  0.31854  0.96758  1.0000
  O   O2        1.0  0.75724  0.68147  0.03242  1.0000
  O   O3        1.0  0.55390  0.23575  0.12020  1.0000
  O   O4        1.0  0.44609  0.76424  0.87980  1.0000
  O   O5        1.0  0.97910  0.29544  0.42325  1.0000
  O   O6        1.0  0.02091  0.70456  0.57675  1.0000
  O   O7        1.0  0.30451  0.13370  0.57934  1.0000
  O   O8        1.0  0.69551  0.86629  0.42065  1.0000
  O   O9        1.0  0.54962  0.40702  0.91679  1.0000
  O   O10       1.0  0.45035  0.59298  0.08321  1.0000
  O   O11       1.0  0.74152  0.50205  0.91066  1.0000
  O   O12       1.0  0.25846  0.49795  0.08934  1.0000
  O   O13       1.0  0.96785  0.08795  0.61614  1.0000
  O   O14       1.0  0.03217  0.91204  0.38386  1.0000
  O   O15       1.0  0.02071  0.87739  0.73062  1.0000
  O   O16       1.0  0.97927  0.12260  0.26938  1.0000
  O   O17       1.0  0.58777  0.10235  0.94932  1.0000
  O   O18       1.0  0.41222  0.89764  0.05068  1.0000
  O   O19       1.0  0.61601  0.95705  0.85464  1.0000
  O   O20       1.0  0.38398  0.04295  0.14536  1.0000
  O   O21       1.0  0.96501  0.37803  0.60311  1.0000
  O   O22       1.0  0.03502  0.62196  0.39690  1.0000
  O   O23       1.0  0.75427  0.59434  0.57687  1.0000
  O   O24       1.0  0.24575  0.40566  0.42313  1.0000
  O   O25       1.0  0.16134  0.28338  0.20095  1.0000
  O   O26       1.0  0.83865  0.71661  0.79905  1.0000
  O   O27       1.0  0.36458  0.17089  0.34266  1.0000
  O   O28       1.0  0.63542  0.82912  0.65734  1.0000
  O   O29       1.0  0.23531  0.97441  0.46216  1.0000
  O   O30       1.0  0.76470  0.02558  0.53784  1.0000
