data_image0
_chemical_formula_structural       Cu4P2H28C34Br4N2
_chemical_formula_sum              "Cu4 P2 H28 C34 Br4 N2"
_cell_length_a       7.10666
_cell_length_b       10.3689
_cell_length_c       13.0388
_cell_angle_alpha    81.106
_cell_angle_beta     82.507
_cell_angle_gamma    83.9567

_space_group_name_H-M_alt    "P 1"
_space_group_IT_number       1

loop_
  _space_group_symop_operation_xyz
  'x, y, z'

loop_
  _atom_site_type_symbol
  _atom_site_label
  _atom_site_symmetry_multiplicity
  _atom_site_fract_x
  _atom_site_fract_y
  _atom_site_fract_z
  _atom_site_occupancy
  Cu  Cu1       1.0  0.06720  0.10219  0.43151  1.0000
  Cu  Cu2       1.0  0.93281  0.89780  0.56849  1.0000
  Cu  Cu3       1.0  0.69443  0.05013  0.45407  1.0000
  Cu  Cu4       1.0  0.30559  0.94985  0.54593  1.0000
  P   P1        1.0  0.95886  0.20738  0.28788  1.0000
  P   P2        1.0  0.04115  0.79263  0.71213  1.0000
  H   H1        1.0  0.95195  0.39852  0.42150  1.0000
  H   H2        1.0  0.04808  0.60148  0.57848  1.0000
  H   H3        1.0  0.73184  0.59513  0.45651  1.0000
  H   H4        1.0  0.26820  0.40487  0.54348  1.0000
  H   H5        1.0  0.43909  0.64753  0.36835  1.0000
  H   H6        1.0  0.56093  0.35247  0.63166  1.0000
  H   H7        1.0  0.37067  0.50957  0.23927  1.0000
  H   H8        1.0  0.62933  0.49042  0.76075  1.0000
  H   H9        1.0  0.59318  0.31881  0.19969  1.0000
  H   H10       1.0  0.40680  0.68118  0.80033  1.0000
  H   H11       1.0  0.30574  0.08533  0.18912  1.0000
  H   H12       1.0  0.69426  0.91467  0.81087  1.0000
  H   H13       1.0  0.53036  0.15727  0.03315  1.0000
  H   H14       1.0  0.46963  0.84275  0.96684  1.0000
  H   H15       1.0  0.48519  0.38303  0.93587  1.0000
  H   H16       1.0  0.51479  0.61698  0.06413  1.0000
  H   H17       1.0  0.21514  0.53620  0.99551  1.0000
  H   H18       1.0  0.78485  0.46381  0.00450  1.0000
  H   H19       1.0  0.98481  0.46300  0.14869  1.0000
  H   H20       1.0  0.01519  0.53701  0.85132  1.0000
  H   H21       1.0  0.93328  0.14337  0.06960  1.0000
  H   H22       1.0  0.06669  0.85665  0.93039  1.0000
  H   H23       1.0  0.79405  0.95266  0.01825  1.0000
  H   H24       1.0  0.20593  0.04735  0.98174  1.0000
  H   H25       1.0  0.62175  0.79907  0.15934  1.0000
  H   H26       1.0  0.37825  0.20093  0.84065  1.0000
  H   H27       1.0  0.58257  0.84895  0.34332  1.0000
  H   H28       1.0  0.41745  0.15102  0.65668  1.0000
  C   C1        1.0  0.78910  0.34777  0.30673  1.0000
  C   C2        1.0  0.21091  0.65223  0.69328  1.0000
  C   C3        1.0  0.82704  0.42568  0.37955  1.0000
  C   C4        1.0  0.17297  0.57433  0.62045  1.0000
  C   C5        1.0  0.70373  0.53478  0.39965  1.0000
  C   C6        1.0  0.29629  0.46522  0.60035  1.0000
  C   C7        1.0  0.53955  0.56523  0.34908  1.0000
  C   C8        1.0  0.46046  0.43477  0.65092  1.0000
  C   C9        1.0  0.50124  0.48807  0.27676  1.0000
  C   C10       1.0  0.49876  0.51192  0.72324  1.0000
  C   C11       1.0  0.62626  0.37995  0.25469  1.0000
  C   C12       1.0  0.37375  0.62004  0.74532  1.0000
  C   C13       1.0  0.12700  0.26845  0.17706  1.0000
  C   C14       1.0  0.87298  0.73155  0.82295  1.0000
  C   C15       1.0  0.28390  0.18340  0.14534  1.0000
  C   C16       1.0  0.71609  0.81660  0.85466  1.0000
  C   C17       1.0  0.41080  0.22430  0.05829  1.0000
  C   C18       1.0  0.58919  0.77570  0.94171  1.0000
  C   C19       1.0  0.38605  0.35096  0.00386  1.0000
  C   C20       1.0  0.61394  0.64906  0.99615  1.0000
  C   C21       1.0  0.23421  0.43711  0.03733  1.0000
  C   C22       1.0  0.76577  0.56291  0.96267  1.0000
  C   C23       1.0  0.10469  0.39610  0.12334  1.0000
  C   C24       1.0  0.89529  0.60390  0.87666  1.0000
  C   C25       1.0  0.83687  0.09195  0.23295  1.0000
  C   C26       1.0  0.16314  0.90804  0.76706  1.0000
  C   C27       1.0  0.85684  0.07472  0.12786  1.0000
  C   C28       1.0  0.14315  0.92529  0.87213  1.0000
  C   C29       1.0  0.77925  0.96889  0.09965  1.0000
  C   C30       1.0  0.22074  0.03112  0.90034  1.0000
  C   C31       1.0  0.68077  0.88475  0.17717  1.0000
  C   C32       1.0  0.31924  0.11525  0.82282  1.0000
  C   C33       1.0  0.65997  0.91067  0.27990  1.0000
  C   C34       1.0  0.34004  0.08933  0.72009  1.0000
  Br  Br1       1.0  0.37455  0.18583  0.44823  1.0000
  Br  Br2       1.0  0.62545  0.81415  0.55176  1.0000
  Br  Br3       1.0  0.83082  0.13929  0.59110  1.0000
  Br  Br4       1.0  0.16919  0.86070  0.40889  1.0000
  N   N1        1.0  0.73748  0.01100  0.30778  1.0000
  N   N2        1.0  0.26251  0.98899  0.69222  1.0000
