data_image0
_chemical_formula_structural       Cd2B2H24C26N16O4
_chemical_formula_sum              "Cd2 B2 H24 C26 N16 O4"
_cell_length_a       8.68447
_cell_length_b       9.70941
_cell_length_c       10.8439
_cell_angle_alpha    95.6308
_cell_angle_beta     96.691
_cell_angle_gamma    105.624

_space_group_name_H-M_alt    "P 1"
_space_group_IT_number       1

loop_
  _space_group_symop_operation_xyz
  'x, y, z'

loop_
  _atom_site_type_symbol
  _atom_site_label
  _atom_site_symmetry_multiplicity
  _atom_site_fract_x
  _atom_site_fract_y
  _atom_site_fract_z
  _atom_site_occupancy
  Cd  Cd1       1.0  0.72751  0.21872  0.69279  1.0000
  Cd  Cd2       1.0  0.27251  0.78128  0.30722  1.0000
  B   B1        1.0  0.35749  0.61971  0.80479  1.0000
  B   B2        1.0  0.64251  0.38029  0.19521  1.0000
  H   H1        1.0  0.03467  0.20448  0.94973  1.0000
  H   H2        1.0  0.96534  0.79550  0.05026  1.0000
  H   H3        1.0  0.31672  0.43111  0.00101  1.0000
  H   H4        1.0  0.68329  0.56888  0.99900  1.0000
  H   H5        1.0  0.05680  0.45201  0.65166  1.0000
  H   H6        1.0  0.94321  0.54799  0.34835  1.0000
  H   H7        1.0  0.15907  0.81759  0.79873  1.0000
  H   H8        1.0  0.84091  0.18241  0.20126  1.0000
  H   H9        1.0  0.36198  0.59338  0.53801  1.0000
  H   H10       1.0  0.63800  0.40660  0.46200  1.0000
  H   H11       1.0  0.44883  0.35503  0.79086  1.0000
  H   H12       1.0  0.55119  0.64498  0.20914  1.0000
  H   H13       1.0  0.65273  0.83329  0.93932  1.0000
  H   H14       1.0  0.34725  0.16671  0.06068  1.0000
  H   H15       1.0  0.05104  0.85848  0.55734  1.0000
  H   H16       1.0  0.94896  0.14153  0.44264  1.0000
  H   H17       1.0  0.64766  0.77969  0.70911  1.0000
  H   H18       1.0  0.35234  0.22031  0.29089  1.0000
  H   H19       1.0  0.16962  0.66215  0.99733  1.0000
  H   H20       1.0  0.83037  0.33784  0.00267  1.0000
  H   H21       1.0  0.85767  0.61717  0.66908  1.0000
  H   H22       1.0  0.14233  0.38285  0.33091  1.0000
  H   H23       1.0  0.60926  0.95541  0.17151  1.0000
  H   H24       1.0  0.39073  0.04458  0.82849  1.0000
  C   C1        1.0  0.08116  0.28982  0.89481  1.0000
  C   C2        1.0  0.91885  0.71017  0.10520  1.0000
  C   C3        1.0  0.22178  0.40123  0.92098  1.0000
  C   C4        1.0  0.77822  0.59877  0.07903  1.0000
  C   C5        1.0  0.08865  0.41474  0.73945  1.0000
  C   C6        1.0  0.91134  0.58527  0.26056  1.0000
  C   C7        1.0  0.18428  0.77745  0.70876  1.0000
  C   C8        1.0  0.81570  0.22255  0.29123  1.0000
  C   C9        1.0  0.28945  0.65829  0.57468  1.0000
  C   C10       1.0  0.71054  0.34169  0.42532  1.0000
  C   C11       1.0  0.53452  0.44845  0.76663  1.0000
  C   C12       1.0  0.46549  0.55156  0.23338  1.0000
  C   C13       1.0  0.54694  0.81648  0.98604  1.0000
  C   C14       1.0  0.45304  0.18354  0.01395  1.0000
  C   C15       1.0  0.56008  0.95113  0.50518  1.0000
  C   C16       1.0  0.43995  0.04886  0.49482  1.0000
  C   C17       1.0  0.13028  0.79540  0.58870  1.0000
  C   C18       1.0  0.86973  0.20460  0.41129  1.0000
  C   C19       1.0  0.63995  0.66942  0.72525  1.0000
  C   C20       1.0  0.36004  0.33059  0.27475  1.0000
  C   C21       1.0  0.29393  0.72908  0.01288  1.0000
  C   C22       1.0  0.70606  0.27090  0.98712  1.0000
  C   C23       1.0  0.74242  0.58643  0.70335  1.0000
  C   C24       1.0  0.25759  0.41358  0.29665  1.0000
  C   C25       1.0  0.52373  0.87754  0.09975  1.0000
  C   C26       1.0  0.47625  0.12248  0.90024  1.0000
  N   N1        1.0  0.99846  0.29957  0.78062  1.0000
  N   N2        1.0  0.00154  0.70042  0.21940  1.0000
  N   N3        1.0  0.22581  0.48094  0.82141  1.0000
  N   N4        1.0  0.77419  0.51906  0.17860  1.0000
  N   N5        1.0  0.28678  0.69058  0.69932  1.0000
  N   N6        1.0  0.71321  0.30942  0.30068  1.0000
  N   N7        1.0  0.39989  0.72087  0.93114  1.0000
  N   N8        1.0  0.60010  0.27913  0.06886  1.0000
  N   N9        1.0  0.50726  0.58031  0.76657  1.0000
  N   N10       1.0  0.49274  0.41969  0.23343  1.0000
  N   N11       1.0  0.19674  0.71955  0.50530  1.0000
  N   N12       1.0  0.80326  0.28044  0.49469  1.0000
  N   N13       1.0  0.67527  0.44842  0.72978  1.0000
  N   N14       1.0  0.32474  0.55159  0.27023  1.0000
  N   N15       1.0  0.36411  0.82229  0.11529  1.0000
  N   N16       1.0  0.63588  0.17772  0.88471  1.0000
  O   O1        1.0  0.67146  0.98310  0.59945  1.0000
  O   O2        1.0  0.32856  0.01693  0.40056  1.0000
  O   O3        1.0  0.53773  0.84639  0.41985  1.0000
  O   O4        1.0  0.46229  0.15359  0.58015  1.0000
