data_image0
_chemical_formula_structural       Mn2B2H24C26N16O4
_chemical_formula_sum              "Mn2 B2 H24 C26 N16 O4"
_cell_length_a       8.49236
_cell_length_b       9.7784
_cell_length_c       10.5115
_cell_angle_alpha    98.7022
_cell_angle_beta     97.4433
_cell_angle_gamma    106.03

_space_group_name_H-M_alt    "P 1"
_space_group_IT_number       1

loop_
  _space_group_symop_operation_xyz
  'x, y, z'

loop_
  _atom_site_type_symbol
  _atom_site_label
  _atom_site_symmetry_multiplicity
  _atom_site_fract_x
  _atom_site_fract_y
  _atom_site_fract_z
  _atom_site_occupancy
  Mn  Mn1       1.0  0.21413  0.72111  0.17797  1.0000
  Mn  Mn2       1.0  0.78495  0.26347  0.82079  1.0000
  B   B1        1.0  0.85418  0.11875  0.31096  1.0000
  B   B2        1.0  0.14330  0.89070  0.69114  1.0000
  H   H1        1.0  0.54317  0.95120  0.14176  1.0000
  H   H2        1.0  0.46323  0.02478  0.85544  1.0000
  H   H3        1.0  0.81527  0.92304  0.49793  1.0000
  H   H4        1.0  0.19865  0.10856  0.52138  1.0000
  H   H5        1.0  0.90337  0.10473  0.04322  1.0000
  H   H6        1.0  0.12621  0.90740  0.96361  1.0000
  H   H7        1.0  0.93715  0.85049  0.28111  1.0000
  H   H8        1.0  0.06348  0.15967  0.72434  1.0000
  H   H9        1.0  0.52185  0.69489  0.42973  1.0000
  H   H10       1.0  0.51307  0.30779  0.58881  1.0000
  H   H11       1.0  0.36786  0.11102  0.17965  1.0000
  H   H12       1.0  0.62882  0.89705  0.82081  1.0000
  H   H13       1.0  0.63488  0.29987  0.28740  1.0000
  H   H14       1.0  0.33672  0.68726  0.68734  1.0000
  H   H15       1.0  0.56979  0.35343  0.03630  1.0000
  H   H16       1.0  0.43635  0.63880  0.93545  1.0000
  H   H17       1.0  0.16644  0.28089  0.23915  1.0000
  H   H18       1.0  0.83620  0.73124  0.77122  1.0000
  H   H19       1.0  0.66659  0.12728  0.51810  1.0000
  H   H20       1.0  0.33123  0.85764  0.48835  1.0000
  H   H21       1.0  0.13649  0.36903  0.45646  1.0000
  H   H22       1.0  0.84283  0.66170  0.54505  1.0000
  H   H23       1.0  0.09806  0.46285  0.70915  1.0000
  H   H24       1.0  0.88811  0.53115  0.30478  1.0000
  C   C1        1.0  0.57606  0.91202  0.22931  1.0000
  C   C2        1.0  0.43640  0.07402  0.77325  1.0000
  C   C3        1.0  0.92142  0.52973  0.98437  1.0000
  C   C4        1.0  0.05146  0.44921  0.99730  1.0000
  C   C5        1.0  0.71579  0.89474  0.41416  1.0000
  C   C6        1.0  0.29974  0.12026  0.60043  1.0000
  C   C7        1.0  0.81918  0.16314  0.07373  1.0000
  C   C8        1.0  0.19900  0.84193  0.92361  1.0000
  C   C9        1.0  0.02967  0.94450  0.26487  1.0000
  C   C10       1.0  0.97028  0.06573  0.73944  1.0000
  C   C11       1.0  0.56974  0.78245  0.37951  1.0000
  C   C12       1.0  0.45647  0.21870  0.63431  1.0000
  C   C13       1.0  0.24956  0.08164  0.21289  1.0000
  C   C14       1.0  0.74853  0.92793  0.79034  1.0000
  C   C15       1.0  0.67927  0.26674  0.19920  1.0000
  C   C16       1.0  0.30877  0.72517  0.78156  1.0000
  C   C17       1.0  0.64641  0.29150  0.07448  1.0000
  C   C18       1.0  0.35859  0.70345  0.90470  1.0000
  C   C19       1.0  0.15183  0.16825  0.24477  1.0000
  C   C20       1.0  0.84934  0.84298  0.76304  1.0000
  C   C21       1.0  0.78712  0.20815  0.53574  1.0000
  C   C22       1.0  0.20597  0.78360  0.47101  1.0000
  C   C23       1.0  0.03332  0.33307  0.50643  1.0000
  C   C24       1.0  0.95044  0.68234  0.49765  1.0000
  C   C25       1.0  0.01235  0.38055  0.63114  1.0000
  C   C26       1.0  0.97470  0.61734  0.37952  1.0000
  N   N1        1.0  0.48217  0.79458  0.26339  1.0000
  N   N2        1.0  0.54357  0.18717  0.74199  1.0000
  N   N3        1.0  0.78999  0.18583  0.19857  1.0000
  N   N4        1.0  0.20596  0.81286  0.79443  1.0000
  N   N5        1.0  0.71872  0.97777  0.31789  1.0000
  N   N6        1.0  0.28720  0.02776  0.68887  1.0000
  N   N7        1.0  0.88994  0.22203  0.44578  1.0000
  N   N8        1.0  0.09804  0.78969  0.55503  1.0000
  N   N9        1.0  0.01124  0.07981  0.27877  1.0000
  N   N10       1.0  0.99045  0.93177  0.72985  1.0000
  N   N11       1.0  0.17183  0.94145  0.22595  1.0000
  N   N12       1.0  0.82521  0.06785  0.77512  1.0000
  N   N13       1.0  0.85771  0.29974  0.64965  1.0000
  N   N14       1.0  0.13610  0.68150  0.36373  1.0000
  N   N15       1.0  0.73587  0.22639  0.99598  1.0000
  N   N16       1.0  0.28864  0.77747  0.99307  1.0000
  O   O1        1.0  0.94733  0.65064  0.05999  1.0000
  O   O2        1.0  0.02446  0.33737  0.90679  1.0000
  O   O3        1.0  0.79529  0.46616  0.89146  1.0000
  O   O4        1.0  0.17649  0.49722  0.08960  1.0000
