data_image0
_chemical_formula_structural       Cu2B2H24C26N16O4
_chemical_formula_sum              "Cu2 B2 H24 C26 N16 O4"
_cell_length_a       8.45561
_cell_length_b       10.3296
_cell_length_c       10.2956
_cell_angle_alpha    99.5304
_cell_angle_beta     104.475
_cell_angle_gamma    98.1202

_space_group_name_H-M_alt    "P 1"
_space_group_IT_number       1

loop_
  _space_group_symop_operation_xyz
  'x, y, z'

loop_
  _atom_site_type_symbol
  _atom_site_label
  _atom_site_symmetry_multiplicity
  _atom_site_fract_x
  _atom_site_fract_y
  _atom_site_fract_z
  _atom_site_occupancy
  Cu  Cu1       1.0  0.26234  0.83630  0.27311  1.0000
  Cu  Cu2       1.0  0.73766  0.16371  0.72690  1.0000
  B   B1        1.0  0.65443  0.68272  0.88366  1.0000
  B   B2        1.0  0.34557  0.31728  0.11634  1.0000
  H   H1        1.0  0.40452  0.53856  0.62994  1.0000
  H   H2        1.0  0.59547  0.46143  0.37006  1.0000
  H   H3        1.0  0.84754  0.67474  0.68237  1.0000
  H   H4        1.0  0.15247  0.32527  0.31763  1.0000
  H   H5        1.0  0.97971  0.84643  0.01736  1.0000
  H   H6        1.0  0.02029  0.15358  0.98264  1.0000
  H   H7        1.0  0.92218  0.92200  0.61406  1.0000
  H   H8        1.0  0.07781  0.07801  0.38594  1.0000
  H   H9        1.0  0.96626  0.60861  0.31031  1.0000
  H   H10       1.0  0.03375  0.39138  0.68968  1.0000
  H   H11       1.0  0.63640  0.95971  0.89458  1.0000
  H   H12       1.0  0.36358  0.04028  0.10542  1.0000
  H   H13       1.0  0.82896  0.46107  0.90175  1.0000
  H   H14       1.0  0.17105  0.53893  0.09824  1.0000
  H   H15       1.0  0.67038  0.53040  0.10174  1.0000
  H   H16       1.0  0.32963  0.46960  0.89824  1.0000
  H   H17       1.0  0.55105  0.75392  0.13229  1.0000
  H   H18       1.0  0.44897  0.24607  0.86771  1.0000
  H   H19       1.0  0.45499  0.28570  0.53455  1.0000
  H   H20       1.0  0.54500  0.71429  0.46546  1.0000
  H   H21       1.0  0.13500  0.81676  0.84453  1.0000
  H   H22       1.0  0.86499  0.18323  0.15546  1.0000
  H   H23       1.0  0.35341  0.73313  0.70656  1.0000
  H   H24       1.0  0.64660  0.26686  0.29344  1.0000
  C   C1        1.0  0.49976  0.48534  0.67220  1.0000
  C   C2        1.0  0.50024  0.51465  0.32780  1.0000
  C   C3        1.0  0.81590  0.77033  0.71605  1.0000
  C   C4        1.0  0.18410  0.22968  0.28395  1.0000
  C   C5        1.0  0.44222  0.99495  0.54899  1.0000
  C   C6        1.0  0.55776  0.00506  0.45102  1.0000
  C   C7        1.0  0.93586  0.77229  0.06959  1.0000
  C   C8        1.0  0.06415  0.22771  0.93041  1.0000
  C   C9        1.0  0.85304  0.89296  0.68362  1.0000
  C   C10       1.0  0.14696  0.10704  0.31638  1.0000
  C   C11       1.0  0.92448  0.64686  0.21829  1.0000
  C   C12       1.0  0.07553  0.35314  0.78170  1.0000
  C   C13       1.0  0.70609  0.91632  0.82935  1.0000
  C   C14       1.0  0.29391  0.08368  0.17065  1.0000
  C   C15       1.0  0.72256  0.44819  0.81351  1.0000
  C   C16       1.0  0.27744  0.55181  0.18649  1.0000
  C   C17       1.0  0.77746  0.60784  0.11550  1.0000
  C   C18       1.0  0.22256  0.39216  0.88449  1.0000
  C   C19       1.0  0.46367  0.75518  0.03557  1.0000
  C   C20       1.0  0.53632  0.24482  0.96442  1.0000
  C   C21       1.0  0.52703  0.36074  0.62427  1.0000
  C   C22       1.0  0.47297  0.63926  0.37574  1.0000
  C   C23       1.0  0.25269  0.78734  0.88526  1.0000
  C   C24       1.0  0.74731  0.21266  0.11474  1.0000
  C   C25       1.0  0.35881  0.74234  0.81411  1.0000
  C   C26       1.0  0.64120  0.25766  0.18588  1.0000
  N   N1        1.0  0.02266  0.74976  0.18788  1.0000
  N   N2        1.0  0.97734  0.25025  0.81212  1.0000
  N   N3        1.0  0.78558  0.68826  0.02082  1.0000
  N   N4        1.0  0.21442  0.31174  0.97918  1.0000
  N   N5        1.0  0.49428  0.72035  0.91090  1.0000
  N   N6        1.0  0.50572  0.27965  0.08910  1.0000
  N   N7        1.0  0.62401  0.54049  0.79349  1.0000
  N   N8        1.0  0.37600  0.45950  0.20651  1.0000
  N   N9        1.0  0.72219  0.78613  0.80857  1.0000
  N   N10       1.0  0.27781  0.21386  0.19143  1.0000
  N   N11       1.0  0.66719  0.33888  0.71391  1.0000
  N   N12       1.0  0.33282  0.66113  0.28609  1.0000
  N   N13       1.0  0.78328  0.98310  0.75570  1.0000
  N   N14       1.0  0.21671  0.01690  0.24431  1.0000
  N   N15       1.0  0.31909  0.79485  0.02381  1.0000
  N   N16       1.0  0.68091  0.20515  0.97619  1.0000
  O   O1        1.0  0.30838  0.91082  0.50793  1.0000
  O   O2        1.0  0.69160  0.08918  0.49209  1.0000
  O   O3        1.0  0.49345  0.07525  0.66626  1.0000
  O   O4        1.0  0.50653  0.92476  0.33376  1.0000
