data_image0
_chemical_formula_structural       Zn2B2H24C26N16O4
_chemical_formula_sum              "Zn2 B2 H24 C26 N16 O4"
_cell_length_a       8.58459
_cell_length_b       10.6299
_cell_length_c       9.8344
_cell_angle_alpha    99.5991
_cell_angle_beta     105.858
_cell_angle_gamma    96.9756

_space_group_name_H-M_alt    "P 1"
_space_group_IT_number       1

loop_
  _space_group_symop_operation_xyz
  'x, y, z'

loop_
  _atom_site_type_symbol
  _atom_site_label
  _atom_site_symmetry_multiplicity
  _atom_site_fract_x
  _atom_site_fract_y
  _atom_site_fract_z
  _atom_site_occupancy
  Zn  Zn1       1.0  0.77771  0.32346  0.26876  1.0000
  Zn  Zn2       1.0  0.22228  0.67652  0.73121  1.0000
  B   B1        1.0  0.14282  0.18854  0.88664  1.0000
  B   B2        1.0  0.85718  0.81147  0.11336  1.0000
  H   H1        1.0  0.45661  0.35377  0.03490  1.0000
  H   H2        1.0  0.54338  0.64624  0.96511  1.0000
  H   H3        1.0  0.18919  0.01669  0.09419  1.0000
  H   H4        1.0  0.81081  0.98332  0.90582  1.0000
  H   H5        1.0  0.11906  0.45873  0.90428  1.0000
  H   H6        1.0  0.88095  0.54128  0.09573  1.0000
  H   H7        1.0  0.05881  0.22799  0.15407  1.0000
  H   H8        1.0  0.94120  0.77200  0.84593  1.0000
  H   H9        1.0  0.33185  0.98543  0.86966  1.0000
  H   H10       1.0  0.66815  0.01457  0.13036  1.0000
  H   H11       1.0  0.63124  0.31664  0.88566  1.0000
  H   H12       1.0  0.36877  0.68337  0.11435  1.0000
  H   H13       1.0  0.49108  0.08680  0.30756  1.0000
  H   H14       1.0  0.50893  0.91321  0.69244  1.0000
  H   H15       1.0  0.83821  0.25936  0.72233  1.0000
  H   H16       1.0  0.16181  0.74066  0.27768  1.0000
  H   H17       1.0  0.43108  0.43328  0.64083  1.0000
  H   H18       1.0  0.56894  0.56671  0.35918  1.0000
  H   H19       1.0  0.34052  0.18802  0.68972  1.0000
  H   H20       1.0  0.65946  0.81197  0.31027  1.0000
  H   H21       1.0  0.90580  0.79574  0.53585  1.0000
  H   H22       1.0  0.09422  0.20426  0.46414  1.0000
  H   H23       1.0  0.85674  0.03987  0.64854  1.0000
  H   H24       1.0  0.14326  0.96013  0.35147  1.0000
  C   C1        1.0  0.42565  0.27184  0.08064  1.0000
  C   C2        1.0  0.57435  0.72817  0.91936  1.0000
  C   C3        1.0  0.28865  0.09698  0.11412  1.0000
  C   C4        1.0  0.71135  0.90303  0.88587  1.0000
  C   C5        1.0  0.19409  0.42004  0.84079  1.0000
  C   C6        1.0  0.80592  0.57997  0.15921  1.0000
  C   C7        1.0  0.93522  0.49386  0.54288  1.0000
  C   C8        1.0  0.06477  0.50614  0.45712  1.0000
  C   C9        1.0  0.96762  0.24015  0.05865  1.0000
  C   C10       1.0  0.03238  0.75984  0.94135  1.0000
  C   C11       1.0  0.21104  0.96706  0.79108  1.0000
  C   C12       1.0  0.78896  0.03293  0.20893  1.0000
  C   C13       1.0  0.74987  0.28658  0.91784  1.0000
  C   C14       1.0  0.25014  0.71342  0.08216  1.0000
  C   C15       1.0  0.43873  0.13214  0.21878  1.0000
  C   C16       1.0  0.56127  0.86787  0.78122  1.0000
  C   C17       1.0  0.85038  0.25573  0.83433  1.0000
  C   C18       1.0  0.14963  0.74427  0.16568  1.0000
  C   C19       1.0  0.35479  0.40270  0.70508  1.0000
  C   C20       1.0  0.64521  0.59729  0.29492  1.0000
  C   C21       1.0  0.30955  0.28079  0.72695  1.0000
  C   C22       1.0  0.69044  0.71921  0.27304  1.0000
  C   C23       1.0  0.98857  0.87243  0.62072  1.0000
  C   C24       1.0  0.01144  0.12757  0.37928  1.0000
  C   C25       1.0  0.96235  0.99261  0.67690  1.0000
  C   C26       1.0  0.03766  0.00739  0.32310  1.0000
  N   N1        1.0  0.20596  0.29240  0.81296  1.0000
  N   N2        1.0  0.79404  0.70760  0.18704  1.0000
  N   N3        1.0  0.28105  0.18670  0.02583  1.0000
  N   N4        1.0  0.71896  0.81331  0.97417  1.0000
  N   N5        1.0  0.52404  0.24161  0.19608  1.0000
  N   N6        1.0  0.47596  0.75840  0.80392  1.0000
  N   N7        1.0  0.10463  0.05252  0.78683  1.0000
  N   N8        1.0  0.89537  0.94748  0.21318  1.0000
  N   N9        1.0  0.98935  0.22521  0.92517  1.0000
  N   N10       1.0  0.01066  0.77479  0.07484  1.0000
  N   N11       1.0  0.14526  0.85749  0.69328  1.0000
  N   N12       1.0  0.85474  0.14251  0.30673  1.0000
  N   N13       1.0  0.82455  0.27638  0.05817  1.0000
  N   N14       1.0  0.17545  0.72361  0.94184  1.0000
  N   N15       1.0  0.28151  0.48921  0.77735  1.0000
  N   N16       1.0  0.71849  0.51079  0.22265  1.0000
  O   O1        1.0  0.81108  0.40325  0.48867  1.0000
  O   O2        1.0  0.18888  0.59674  0.51130  1.0000
  O   O3        1.0  0.96411  0.57487  0.66025  1.0000
  O   O4        1.0  0.03586  0.42512  0.33971  1.0000
