data_image0
_chemical_formula_structural       Cu4H36C20N4O20
_chemical_formula_sum              "Cu4 H36 C20 N4 O20"
_cell_length_a       7.1475
_cell_length_b       10.0913
_cell_length_c       10.8571
_cell_angle_alpha    90.0278
_cell_angle_beta     89.9933
_cell_angle_gamma    90.0106

_space_group_name_H-M_alt    "P 1"
_space_group_IT_number       1

loop_
  _space_group_symop_operation_xyz
  'x, y, z'

loop_
  _atom_site_type_symbol
  _atom_site_label
  _atom_site_symmetry_multiplicity
  _atom_site_fract_x
  _atom_site_fract_y
  _atom_site_fract_z
  _atom_site_occupancy
  Cu  Cu1       1.0  0.92912  0.05154  0.49800  1.0000
  Cu  Cu2       1.0  0.57032  0.94847  0.99779  1.0000
  Cu  Cu3       1.0  0.42908  0.44842  0.50204  1.0000
  Cu  Cu4       1.0  0.07069  0.55151  0.00216  1.0000
  H   H1        1.0  0.79281  0.31185  0.72781  1.0000
  H   H2        1.0  0.70761  0.68870  0.22757  1.0000
  H   H3        1.0  0.29293  0.18808  0.27224  1.0000
  H   H4        1.0  0.20739  0.81155  0.77244  1.0000
  H   H5        1.0  0.63571  0.93765  0.48698  1.0000
  H   H6        1.0  0.86395  0.06237  0.98667  1.0000
  H   H7        1.0  0.13575  0.56225  0.51306  1.0000
  H   H8        1.0  0.36433  0.43779  0.01320  1.0000
  H   H9        1.0  0.74816  0.79552  0.51390  1.0000
  H   H10       1.0  0.75167  0.20457  0.01377  1.0000
  H   H11       1.0  0.24826  0.70439  0.48618  1.0000
  H   H12       1.0  0.25198  0.29559  0.98610  1.0000
  H   H13       1.0  0.81391  0.05063  0.72491  1.0000
  H   H14       1.0  0.68535  0.94989  0.22480  1.0000
  H   H15       1.0  0.31424  0.44937  0.27510  1.0000
  H   H16       1.0  0.18559  0.55029  0.77516  1.0000
  H   H17       1.0  0.67741  0.13517  0.62853  1.0000
  H   H18       1.0  0.82227  0.86555  0.12841  1.0000
  H   H19       1.0  0.17749  0.36482  0.37138  1.0000
  H   H20       1.0  0.32237  0.63480  0.87152  1.0000
  H   H21       1.0  0.10227  0.32578  0.81303  1.0000
  H   H22       1.0  0.39823  0.67423  0.31299  1.0000
  H   H23       1.0  0.60250  0.17421  0.18702  1.0000
  H   H24       1.0  0.89802  0.82572  0.68707  1.0000
  H   H25       1.0  0.98444  0.18847  0.87214  1.0000
  H   H26       1.0  0.51575  0.81174  0.37211  1.0000
  H   H27       1.0  0.48465  0.31145  0.12783  1.0000
  H   H28       1.0  0.01568  0.68832  0.62789  1.0000
  H   H29       1.0  0.31327  0.18802  0.69036  1.0000
  H   H30       1.0  0.18663  0.81172  0.19061  1.0000
  H   H31       1.0  0.81321  0.31219  0.30978  1.0000
  H   H32       1.0  0.68672  0.68801  0.80957  1.0000
  H   H33       1.0  0.17112  0.04727  0.70584  1.0000
  H   H34       1.0  0.32848  0.95264  0.20607  1.0000
  H   H35       1.0  0.67110  0.45287  0.29402  1.0000
  H   H36       1.0  0.82864  0.54720  0.79388  1.0000
  C   C1        1.0  0.98527  0.31069  0.57818  1.0000
  C   C2        1.0  0.51500  0.68935  0.07806  1.0000
  C   C3        1.0  0.48534  0.18928  0.42184  1.0000
  C   C4        1.0  0.01485  0.81063  0.92201  1.0000
  C   C5        1.0  0.90034  0.24459  0.69102  1.0000
  C   C6        1.0  0.59976  0.75574  0.19089  1.0000
  C   C7        1.0  0.40046  0.25539  0.30900  1.0000
  C   C8        1.0  0.09966  0.74438  0.80912  1.0000
  C   C9        1.0  0.05170  0.22673  0.78902  1.0000
  C   C10       1.0  0.44848  0.77336  0.28902  1.0000
  C   C11       1.0  0.55185  0.27325  0.21097  1.0000
  C   C12       1.0  0.94839  0.72663  0.71101  1.0000
  C   C13       1.0  0.21627  0.13781  0.75406  1.0000
  C   C14       1.0  0.28361  0.86205  0.25428  1.0000
  C   C15       1.0  0.71635  0.36226  0.24594  1.0000
  C   C16       1.0  0.78363  0.63780  0.74578  1.0000
  C   C17       1.0  0.32795  0.09290  0.86560  1.0000
  C   C18       1.0  0.17193  0.90691  0.36593  1.0000
  C   C19       1.0  0.82828  0.40706  0.13443  1.0000
  C   C20       1.0  0.67183  0.59298  0.63420  1.0000
  N   N1        1.0  0.81394  0.11771  0.65408  1.0000
  N   N2        1.0  0.68567  0.88276  0.15392  1.0000
  N   N3        1.0  0.31407  0.38225  0.34590  1.0000
  N   N4        1.0  0.18580  0.61744  0.84601  1.0000
  O   O1        1.0  0.75604  0.89597  0.50921  1.0000
  O   O2        1.0  0.74328  0.10419  0.00787  1.0000
  O   O3        1.0  0.25605  0.60392  0.49069  1.0000
  O   O4        1.0  0.24385  0.39601  0.99141  1.0000
  O   O5        1.0  0.01486  0.23788  0.48150  1.0000
  O   O6        1.0  0.48511  0.76200  0.98139  1.0000
  O   O7        1.0  0.51481  0.26209  0.51854  1.0000
  O   O8        1.0  0.98512  0.73788  0.01867  1.0000
  O   O9        1.0  0.03009  0.43011  0.58576  1.0000
  O   O10       1.0  0.47065  0.56985  0.08565  1.0000
  O   O11       1.0  0.53024  0.06990  0.41424  1.0000
  O   O12       1.0  0.97032  0.93006  0.91451  1.0000
  O   O13       1.0  0.44476  0.99740  0.84601  1.0000
  O   O14       1.0  0.05462  0.00209  0.34630  1.0000
  O   O15       1.0  0.94542  0.50236  0.15405  1.0000
  O   O16       1.0  0.55447  0.49781  0.65384  1.0000
  O   O17       1.0  0.30687  0.14462  0.97069  1.0000
  O   O18       1.0  0.19354  0.85550  0.47104  1.0000
  O   O19       1.0  0.80698  0.35540  0.02933  1.0000
  O   O20       1.0  0.69341  0.64443  0.52909  1.0000
