data_image0
_chemical_formula_structural       Ba4H16C16O24
_chemical_formula_sum              "Ba4 H16 C16 O24"
_cell_length_a       7.30034
_cell_length_b       8.26453
_cell_length_c       10.2799
_cell_angle_alpha    89.9993
_cell_angle_beta     89.9998
_cell_angle_gamma    90.7215

_space_group_name_H-M_alt    "P 1"
_space_group_IT_number       1

loop_
  _space_group_symop_operation_xyz
  'x, y, z'

loop_
  _atom_site_type_symbol
  _atom_site_label
  _atom_site_symmetry_multiplicity
  _atom_site_fract_x
  _atom_site_fract_y
  _atom_site_fract_z
  _atom_site_occupancy
  Ba  Ba1       1.0  0.09528  0.26105  0.38444  1.0000
  Ba  Ba2       1.0  0.40472  0.73895  0.88445  1.0000
  Ba  Ba3       1.0  0.90471  0.73895  0.61555  1.0000
  Ba  Ba4       1.0  0.59528  0.26105  0.11555  1.0000
  H   H1        1.0  0.24973  0.03760  0.05792  1.0000
  H   H2        1.0  0.25027  0.96240  0.55792  1.0000
  H   H3        1.0  0.75027  0.96240  0.94208  1.0000
  H   H4        1.0  0.74973  0.03760  0.44208  1.0000
  H   H5        1.0  0.43568  0.33017  0.85054  1.0000
  H   H6        1.0  0.06432  0.66982  0.35055  1.0000
  H   H7        1.0  0.56432  0.66983  0.14946  1.0000
  H   H8        1.0  0.93568  0.33017  0.64945  1.0000
  H   H9        1.0  0.02738  0.10588  0.91105  1.0000
  H   H10       1.0  0.47262  0.89412  0.41105  1.0000
  H   H11       1.0  0.97262  0.89413  0.08895  1.0000
  H   H12       1.0  0.52738  0.10587  0.58894  1.0000
  H   H13       1.0  0.07703  0.38961  0.86722  1.0000
  H   H14       1.0  0.42297  0.61039  0.36723  1.0000
  H   H15       1.0  0.92297  0.61039  0.13278  1.0000
  H   H16       1.0  0.57703  0.38961  0.63278  1.0000
  C   C1        1.0  0.19644  0.11573  0.74520  1.0000
  C   C2        1.0  0.30356  0.88428  0.24520  1.0000
  C   C3        1.0  0.80356  0.88429  0.25481  1.0000
  C   C4        1.0  0.69644  0.11571  0.75481  1.0000
  C   C5        1.0  0.16953  0.14610  0.89127  1.0000
  C   C6        1.0  0.33047  0.85390  0.39128  1.0000
  C   C7        1.0  0.83047  0.85391  0.10872  1.0000
  C   C8        1.0  0.66953  0.14610  0.60872  1.0000
  C   C9        1.0  0.17864  0.32600  0.92663  1.0000
  C   C10       1.0  0.32136  0.67399  0.42664  1.0000
  C   C11       1.0  0.82136  0.67400  0.07337  1.0000
  C   C12       1.0  0.67864  0.32600  0.57336  1.0000
  C   C13       1.0  0.12359  0.34061  0.07045  1.0000
  C   C14       1.0  0.37641  0.65939  0.57046  1.0000
  C   C15       1.0  0.87642  0.65939  0.92955  1.0000
  C   C16       1.0  0.62358  0.34061  0.42954  1.0000
  O   O1        1.0  0.13362  0.21784  0.66615  1.0000
  O   O2        1.0  0.36638  0.78216  0.16615  1.0000
  O   O3        1.0  0.86639  0.78217  0.33385  1.0000
  O   O4        1.0  0.63362  0.21783  0.83385  1.0000
  O   O5        1.0  0.27515  0.98440  0.71216  1.0000
  O   O6        1.0  0.22486  0.01560  0.21216  1.0000
  O   O7        1.0  0.72487  0.01560  0.28784  1.0000
  O   O8        1.0  0.77513  0.98440  0.78784  1.0000
  O   O9        1.0  0.29619  0.05392  0.96548  1.0000
  O   O10       1.0  0.20381  0.94607  0.46549  1.0000
  O   O11       1.0  0.70382  0.94608  0.03452  1.0000
  O   O12       1.0  0.79619  0.05392  0.53451  1.0000
  O   O13       1.0  0.35657  0.39669  0.90777  1.0000
  O   O14       1.0  0.14343  0.60331  0.40777  1.0000
  O   O15       1.0  0.64343  0.60331  0.09223  1.0000
  O   O16       1.0  0.85657  0.39669  0.59223  1.0000
  O   O17       1.0  0.95981  0.30167  0.09952  1.0000
  O   O18       1.0  0.54017  0.69833  0.59953  1.0000
  O   O19       1.0  0.04019  0.69833  0.90048  1.0000
  O   O20       1.0  0.45982  0.30167  0.40047  1.0000
  O   O21       1.0  0.24528  0.38178  0.15247  1.0000
  O   O22       1.0  0.25471  0.61822  0.65247  1.0000
  O   O23       1.0  0.75472  0.61822  0.84753  1.0000
  O   O24       1.0  0.74528  0.38178  0.34753  1.0000
