data_image0
_chemical_formula_structural       Ca4H16C16O24
_chemical_formula_sum              "Ca4 H16 C16 O24"
_cell_length_a       7.91723
_cell_length_b       9.46901
_cell_length_c       9.63706
_cell_angle_alpha    118.121
_cell_angle_beta     114.252
_cell_angle_gamma    90.008

_space_group_name_H-M_alt    "P 1"
_space_group_IT_number       1

loop_
  _space_group_symop_operation_xyz
  'x, y, z'

loop_
  _atom_site_type_symbol
  _atom_site_label
  _atom_site_symmetry_multiplicity
  _atom_site_fract_x
  _atom_site_fract_y
  _atom_site_fract_z
  _atom_site_occupancy
  Ca  Ca1       1.0  0.60695  0.70101  0.75030  1.0000
  Ca  Ca2       1.0  0.85667  0.79900  0.24969  1.0000
  Ca  Ca3       1.0  0.39305  0.29899  0.24970  1.0000
  Ca  Ca4       1.0  0.14333  0.20100  0.75031  1.0000
  H   H1        1.0  0.98055  0.35413  0.14940  1.0000
  H   H2        1.0  0.83109  0.14591  0.85054  1.0000
  H   H3        1.0  0.01945  0.64587  0.85060  1.0000
  H   H4        1.0  0.16891  0.85409  0.14946  1.0000
  H   H5        1.0  0.73313  0.43859  0.26524  1.0000
  H   H6        1.0  0.46791  0.06152  0.73486  1.0000
  H   H7        1.0  0.26687  0.56141  0.73476  1.0000
  H   H8        1.0  0.53209  0.93848  0.26514  1.0000
  H   H9        1.0  0.06774  0.15072  0.30809  1.0000
  H   H10       1.0  0.75965  0.34936  0.69188  1.0000
  H   H11       1.0  0.93226  0.84928  0.69191  1.0000
  H   H12       1.0  0.24035  0.65065  0.30812  1.0000
  H   H13       1.0  0.95201  0.38561  0.45543  1.0000
  H   H14       1.0  0.49643  0.11435  0.54452  1.0000
  H   H15       1.0  0.04799  0.61439  0.54457  1.0000
  H   H16       1.0  0.50357  0.88565  0.45548  1.0000
  C   C1        1.0  0.83058  0.03364  0.05122  1.0000
  C   C2        1.0  0.77930  0.46636  0.94869  1.0000
  C   C3        1.0  0.16942  0.96636  0.94878  1.0000
  C   C4        1.0  0.22070  0.53364  0.05131  1.0000
  C   C5        1.0  0.96209  0.19121  0.22690  1.0000
  C   C6        1.0  0.73513  0.30882  0.77301  1.0000
  C   C7        1.0  0.03791  0.80879  0.77310  1.0000
  C   C8        1.0  0.26486  0.69118  0.22699  1.0000
  C   C9        1.0  0.84925  0.27675  0.32847  1.0000
  C   C10       1.0  0.52071  0.22325  0.67146  1.0000
  C   C11       1.0  0.15075  0.72326  0.67153  1.0000
  C   C12       1.0  0.47929  0.77675  0.32854  1.0000
  C   C13       1.0  0.77686  0.16457  0.37590  1.0000
  C   C14       1.0  0.40092  0.33542  0.62405  1.0000
  C   C15       1.0  0.22314  0.83544  0.62410  1.0000
  C   C16       1.0  0.59908  0.66458  0.37595  1.0000
  O   O1        1.0  0.76462  0.91916  0.06388  1.0000
  O   O2        1.0  0.70073  0.58086  0.93607  1.0000
  O   O3        1.0  0.23538  0.08084  0.93612  1.0000
  O   O4        1.0  0.29927  0.41914  0.06393  1.0000
  O   O5        1.0  0.79087  0.01653  0.90226  1.0000
  O   O6        1.0  0.88850  0.48345  0.09766  1.0000
  O   O7        1.0  0.20913  0.98347  0.09774  1.0000
  O   O8        1.0  0.11150  0.51655  0.90234  1.0000
  O   O9        1.0  0.06503  0.29897  0.20961  1.0000
  O   O10       1.0  0.85532  0.20107  0.79030  1.0000
  O   O11       1.0  0.93497  0.70103  0.79039  1.0000
  O   O12       1.0  0.14468  0.79893  0.20970  1.0000
  O   O13       1.0  0.69349  0.32163  0.23037  1.0000
  O   O14       1.0  0.46317  0.17848  0.76974  1.0000
  O   O15       1.0  0.30651  0.67837  0.76963  1.0000
  O   O16       1.0  0.53683  0.82152  0.23026  1.0000
  O   O17       1.0  0.60183  0.14007  0.33682  1.0000
  O   O18       1.0  0.26501  0.35990  0.66319  1.0000
  O   O19       1.0  0.39817  0.85993  0.66318  1.0000
  O   O20       1.0  0.73499  0.64010  0.33681  1.0000
  O   O21       1.0  0.89632  0.10140  0.45141  1.0000
  O   O22       1.0  0.44481  0.39864  0.54855  1.0000
  O   O23       1.0  0.10368  0.89860  0.54859  1.0000
  O   O24       1.0  0.55519  0.60136  0.45145  1.0000
