data_image0
_chemical_formula_structural       Ca2H8C8O12
_chemical_formula_sum              "Ca2 H8 C8 O12"
_cell_length_a       6.27491
_cell_length_b       6.27491
_cell_length_c       7.23738
_cell_angle_alpha    90
_cell_angle_beta     90
_cell_angle_gamma    104.807

_space_group_name_H-M_alt    "P 1"
_space_group_IT_number       1

loop_
  _space_group_symop_operation_xyz
  'x, y, z'

loop_
  _atom_site_type_symbol
  _atom_site_label
  _atom_site_symmetry_multiplicity
  _atom_site_fract_x
  _atom_site_fract_y
  _atom_site_fract_z
  _atom_site_occupancy
  Ca  Ca1       1.0  0.59063  0.40937  0.25000  1.0000
  Ca  Ca2       1.0  0.40937  0.59063  0.75000  1.0000
  H   H1        1.0  0.78772  0.88854  0.26142  1.0000
  H   H2        1.0  0.21228  0.11146  0.76142  1.0000
  H   H3        1.0  0.11146  0.21228  0.23858  1.0000
  H   H4        1.0  0.88854  0.78772  0.73858  1.0000
  H   H5        1.0  0.12278  0.88621  0.45808  1.0000
  H   H6        1.0  0.87722  0.11379  0.95808  1.0000
  H   H7        1.0  0.11379  0.87722  0.04192  1.0000
  H   H8        1.0  0.88621  0.12278  0.54192  1.0000
  C   C1        1.0  0.11960  0.56799  0.35321  1.0000
  C   C2        1.0  0.88040  0.43200  0.85321  1.0000
  C   C3        1.0  0.43201  0.88040  0.14679  1.0000
  C   C4        1.0  0.56799  0.11960  0.64679  1.0000
  C   C5        1.0  0.07017  0.79302  0.32963  1.0000
  C   C6        1.0  0.92983  0.20698  0.82963  1.0000
  C   C7        1.0  0.20698  0.92983  0.17037  1.0000
  C   C8        1.0  0.79302  0.07017  0.67037  1.0000
  O   O1        1.0  0.97646  0.39866  0.29554  1.0000
  O   O2        1.0  0.02354  0.60134  0.79554  1.0000
  O   O3        1.0  0.60134  0.02354  0.20446  1.0000
  O   O4        1.0  0.39866  0.97646  0.70446  1.0000
  O   O5        1.0  0.30272  0.56598  0.42677  1.0000
  O   O6        1.0  0.69728  0.43402  0.92677  1.0000
  O   O7        1.0  0.43402  0.69728  0.07323  1.0000
  O   O8        1.0  0.56598  0.30272  0.57323  1.0000
  O   O9        1.0  0.84112  0.75681  0.29838  1.0000
  O   O10       1.0  0.15888  0.24319  0.79838  1.0000
  O   O11       1.0  0.24319  0.15888  0.20162  1.0000
  O   O12       1.0  0.75681  0.84112  0.70162  1.0000
