data_image0
_chemical_formula_structural       Ba4H32C16O32
_chemical_formula_sum              "Ba4 H32 C16 O32"
_cell_length_a       6.51204
_cell_length_b       8.05284
_cell_length_c       16.2865
_cell_angle_alpha    90
_cell_angle_beta     95.2543
_cell_angle_gamma    90

_space_group_name_H-M_alt    "P 1"
_space_group_IT_number       1

loop_
  _space_group_symop_operation_xyz
  'x, y, z'

loop_
  _atom_site_type_symbol
  _atom_site_label
  _atom_site_symmetry_multiplicity
  _atom_site_fract_x
  _atom_site_fract_y
  _atom_site_fract_z
  _atom_site_occupancy
  Ba  Ba1       1.0  0.99682  0.24502  0.14458  1.0000
  Ba  Ba2       1.0  0.00318  0.74502  0.35542  1.0000
  Ba  Ba3       1.0  0.00318  0.75498  0.85542  1.0000
  Ba  Ba4       1.0  0.99681  0.25498  0.64458  1.0000
  H   H1        1.0  0.54961  0.72353  0.29316  1.0000
  H   H2        1.0  0.45039  0.22353  0.20684  1.0000
  H   H3        1.0  0.45039  0.27647  0.70684  1.0000
  H   H4        1.0  0.54961  0.77647  0.79316  1.0000
  H   H5        1.0  0.92691  0.64403  0.08078  1.0000
  H   H6        1.0  0.07309  0.14403  0.41922  1.0000
  H   H7        1.0  0.07309  0.35597  0.91922  1.0000
  H   H8        1.0  0.92691  0.85597  0.58078  1.0000
  H   H9        1.0  0.28002  0.05053  0.00081  1.0000
  H   H10       1.0  0.71998  0.55053  0.49919  1.0000
  H   H11       1.0  0.71998  0.94947  0.99919  1.0000
  H   H12       1.0  0.28002  0.44947  0.50081  1.0000
  H   H13       1.0  0.42078  0.02685  0.08243  1.0000
  H   H14       1.0  0.57922  0.52685  0.41757  1.0000
  H   H15       1.0  0.57922  0.97315  0.91757  1.0000
  H   H16       1.0  0.42078  0.47315  0.58243  1.0000
  H   H17       1.0  0.83081  0.16031  0.94930  1.0000
  H   H18       1.0  0.16919  0.66031  0.55070  1.0000
  H   H19       1.0  0.16919  0.83969  0.05070  1.0000
  H   H20       1.0  0.83081  0.33969  0.44930  1.0000
  H   H21       1.0  0.79415  0.35846  0.94557  1.0000
  H   H22       1.0  0.20585  0.85846  0.55443  1.0000
  H   H23       1.0  0.20585  0.64154  0.05443  1.0000
  H   H24       1.0  0.79415  0.14154  0.44557  1.0000
  H   H25       1.0  0.43912  0.78261  0.16676  1.0000
  H   H26       1.0  0.56088  0.28261  0.33324  1.0000
  H   H27       1.0  0.56088  0.21739  0.83324  1.0000
  H   H28       1.0  0.43912  0.71739  0.66676  1.0000
  H   H29       1.0  0.58477  0.66703  0.04775  1.0000
  H   H30       1.0  0.41523  0.16703  0.45225  1.0000
  H   H31       1.0  0.41523  0.33296  0.95225  1.0000
  H   H32       1.0  0.58477  0.83297  0.54775  1.0000
  C   C1        1.0  0.73792  0.89252  0.16340  1.0000
  C   C2        1.0  0.26208  0.39252  0.33660  1.0000
  C   C3        1.0  0.26208  0.10748  0.83660  1.0000
  C   C4        1.0  0.73792  0.60748  0.66340  1.0000
  C   C5        1.0  0.60093  0.74091  0.17607  1.0000
  C   C6        1.0  0.39907  0.24091  0.32393  1.0000
  C   C7        1.0  0.39907  0.25909  0.82393  1.0000
  C   C8        1.0  0.60093  0.75909  0.67607  1.0000
  C   C9        1.0  0.63620  0.61200  0.10819  1.0000
  C   C10       1.0  0.36380  0.11199  0.39181  1.0000
  C   C11       1.0  0.36380  0.38800  0.89181  1.0000
  C   C12       1.0  0.63620  0.88801  0.60819  1.0000
  C   C13       1.0  0.50128  0.46039  0.12154  1.0000
  C   C14       1.0  0.49872  0.96039  0.37846  1.0000
  C   C15       1.0  0.49873  0.53961  0.87846  1.0000
  C   C16       1.0  0.50127  0.03961  0.62154  1.0000
  O   O1        1.0  0.68629  0.98283  0.09973  1.0000
  O   O2        1.0  0.31371  0.48283  0.40027  1.0000
  O   O3        1.0  0.31371  0.01717  0.90027  1.0000
  O   O4        1.0  0.68629  0.51717  0.59973  1.0000
  O   O5        1.0  0.89344  0.92204  0.21318  1.0000
  O   O6        1.0  0.10656  0.42203  0.28682  1.0000
  O   O7        1.0  0.10656  0.07797  0.78682  1.0000
  O   O8        1.0  0.89344  0.57796  0.71318  1.0000
  O   O9        1.0  0.64127  0.66645  0.25474  1.0000
  O   O10       1.0  0.35873  0.16644  0.24526  1.0000
  O   O11       1.0  0.35873  0.33356  0.74526  1.0000
  O   O12       1.0  0.64127  0.83355  0.75474  1.0000
  O   O13       1.0  0.84552  0.56300  0.11148  1.0000
  O   O14       1.0  0.15449  0.06300  0.38852  1.0000
  O   O15       1.0  0.15449  0.43700  0.88852  1.0000
  O   O16       1.0  0.84551  0.93700  0.61148  1.0000
  O   O17       1.0  0.58940  0.33107  0.15241  1.0000
  O   O18       1.0  0.41060  0.83108  0.34759  1.0000
  O   O19       1.0  0.41060  0.66892  0.84759  1.0000
  O   O20       1.0  0.58939  0.16893  0.65241  1.0000
  O   O21       1.0  0.30845  0.47511  0.10273  1.0000
  O   O22       1.0  0.69155  0.97511  0.39727  1.0000
  O   O23       1.0  0.69155  0.52490  0.89727  1.0000
  O   O24       1.0  0.30845  0.02490  0.60273  1.0000
  O   O25       1.0  0.27269  0.03990  0.06147  1.0000
  O   O26       1.0  0.72731  0.53990  0.43853  1.0000
  O   O27       1.0  0.72731  0.96010  0.93853  1.0000
  O   O28       1.0  0.27269  0.46010  0.56147  1.0000
  O   O29       1.0  0.88938  0.26875  0.96979  1.0000
  O   O30       1.0  0.11062  0.76875  0.53021  1.0000
  O   O31       1.0  0.11062  0.73125  0.03021  1.0000
  O   O32       1.0  0.88938  0.23125  0.46979  1.0000
