data_image0
_chemical_formula_structural       Ba4H36C16O34
_chemical_formula_sum              "Ba4 H36 C16 O34"
_cell_length_a       5.10057
_cell_length_b       9.64598
_cell_length_c       18.4963
_cell_angle_alpha    102.899
_cell_angle_beta     89.9918
_cell_angle_gamma    105.341

_space_group_name_H-M_alt    "P 1"
_space_group_IT_number       1

loop_
  _space_group_symop_operation_xyz
  'x, y, z'

loop_
  _atom_site_type_symbol
  _atom_site_label
  _atom_site_symmetry_multiplicity
  _atom_site_fract_x
  _atom_site_fract_y
  _atom_site_fract_z
  _atom_site_occupancy
  Ba  Ba1       1.0  0.82427  0.15420  0.85887  1.0000
  Ba  Ba2       1.0  0.66996  0.84546  0.64114  1.0000
  Ba  Ba3       1.0  0.17574  0.84579  0.14113  1.0000
  Ba  Ba4       1.0  0.33003  0.15455  0.35886  1.0000
  H   H1        1.0  0.70638  0.66407  0.85861  1.0000
  H   H2        1.0  0.04160  0.33548  0.64140  1.0000
  H   H3        1.0  0.29362  0.33592  0.14139  1.0000
  H   H4        1.0  0.95839  0.66453  0.35860  1.0000
  H   H5        1.0  0.34814  0.60652  0.93513  1.0000
  H   H6        1.0  0.74135  0.39333  0.56497  1.0000
  H   H7        1.0  0.65187  0.39348  0.06487  1.0000
  H   H8        1.0  0.25864  0.60668  0.43504  1.0000
  H   H9        1.0  0.00327  0.87459  0.91309  1.0000
  H   H10       1.0  0.12790  0.12508  0.58681  1.0000
  H   H11       1.0  0.99673  0.12540  0.08690  1.0000
  H   H12       1.0  0.87209  0.87493  0.41319  1.0000
  H   H13       1.0  0.10165  0.74405  0.97741  1.0000
  H   H14       1.0  0.35726  0.25602  0.52259  1.0000
  H   H15       1.0  0.89836  0.25595  0.02259  1.0000
  H   H16       1.0  0.64274  0.74398  0.47741  1.0000
  H   H17       1.0  0.33625  0.35475  0.76150  1.0000
  H   H18       1.0  0.98144  0.64485  0.73852  1.0000
  H   H19       1.0  0.66375  0.64524  0.23850  1.0000
  H   H20       1.0  0.01856  0.35515  0.26148  1.0000
  H   H21       1.0  0.18682  0.93481  0.76899  1.0000
  H   H22       1.0  0.25210  0.06490  0.73104  1.0000
  H   H23       1.0  0.81318  0.06519  0.23101  1.0000
  H   H24       1.0  0.74791  0.93510  0.26896  1.0000
  H   H25       1.0  0.18802  0.46592  0.80905  1.0000
  H   H26       1.0  0.72178  0.53375  0.69102  1.0000
  H   H27       1.0  0.81198  0.53408  0.19095  1.0000
  H   H28       1.0  0.27821  0.46625  0.30898  1.0000
  H   H29       1.0  0.74625  0.50625  0.93125  1.0000
  H   H30       1.0  0.23944  0.49359  0.56875  1.0000
  H   H31       1.0  0.25375  0.49375  0.06875  1.0000
  H   H32       1.0  0.76056  0.50642  0.43125  1.0000
  H   H33       1.0  0.52598  0.41050  0.86526  1.0000
  H   H34       1.0  0.11505  0.58928  0.63479  1.0000
  H   H35       1.0  0.47402  0.58950  0.13474  1.0000
  H   H36       1.0  0.88495  0.41072  0.36521  1.0000
  C   C1        1.0  0.41426  0.75969  0.82093  1.0000
  C   C2        1.0  0.65378  0.23986  0.67903  1.0000
  C   C3        1.0  0.58574  0.24030  0.17907  1.0000
  C   C4        1.0  0.34622  0.76014  0.32097  1.0000
  C   C5        1.0  0.61972  0.75699  0.88108  1.0000
  C   C6        1.0  0.86199  0.24259  0.61887  1.0000
  C   C7        1.0  0.38028  0.24301  0.11891  1.0000
  C   C8        1.0  0.13801  0.75742  0.38113  1.0000
  C   C9        1.0  0.46140  0.72454  0.94962  1.0000
  C   C10       1.0  0.73640  0.27529  0.55035  1.0000
  C   C11       1.0  0.53860  0.27545  0.05038  1.0000
  C   C12       1.0  0.26360  0.72472  0.44965  1.0000
  C   C13       1.0  0.66270  0.74572  0.01528  1.0000
  C   C14       1.0  0.91674  0.25430  0.48469  1.0000
  C   C15       1.0  0.33730  0.25427  0.98472  1.0000
  C   C16       1.0  0.08326  0.74571  0.51531  1.0000
  O   O1        1.0  0.46288  0.87060  0.79118  1.0000
  O   O2        1.0  0.59167  0.12903  0.70882  1.0000
  O   O3        1.0  0.53712  0.12940  0.20882  1.0000
  O   O4        1.0  0.40833  0.87098  0.29118  1.0000
  O   O5        1.0  0.20558  0.65033  0.80486  1.0000
  O   O6        1.0  0.55444  0.34922  0.69507  1.0000
  O   O7        1.0  0.79442  0.34966  0.19514  1.0000
  O   O8        1.0  0.44554  0.65079  0.30492  1.0000
  O   O9        1.0  0.83217  0.89188  0.89761  1.0000
  O   O10       1.0  0.93951  0.10772  0.60230  1.0000
  O   O11       1.0  0.16784  0.10811  0.10239  1.0000
  O   O12       1.0  0.06049  0.89229  0.39770  1.0000
  O   O13       1.0  0.27581  0.81263  0.96781  1.0000
  O   O14       1.0  0.46262  0.18731  0.53211  1.0000
  O   O15       1.0  0.72420  0.18736  0.03219  1.0000
  O   O16       1.0  0.53738  0.81269  0.46789  1.0000
  O   O17       1.0  0.82077  0.65916  0.00572  1.0000
  O   O18       1.0  0.16128  0.34097  0.49426  1.0000
  O   O19       1.0  0.17924  0.34083  0.99427  1.0000
  O   O20       1.0  0.83872  0.65904  0.50575  1.0000
  O   O21       1.0  0.67261  0.84392  0.07355  1.0000
  O   O22       1.0  0.82856  0.15612  0.42640  1.0000
  O   O23       1.0  0.32740  0.15607  0.92645  1.0000
  O   O24       1.0  0.17144  0.84390  0.57360  1.0000
  O   O25       1.0  0.09511  0.99986  0.75000  1.0000
  O   O26       1.0  0.90489  0.00014  0.25000  1.0000
  O   O27       1.0  0.22216  0.36794  0.80557  1.0000
  O   O28       1.0  0.85392  0.63173  0.69452  1.0000
  O   O29       1.0  0.77784  0.63205  0.19443  1.0000
  O   O30       1.0  0.14607  0.36827  0.30548  1.0000
  O   O31       1.0  0.71073  0.42220  0.88698  1.0000
  O   O32       1.0  0.28805  0.57762  0.61303  1.0000
  O   O33       1.0  0.28927  0.57779  0.11302  1.0000
  O   O34       1.0  0.71194  0.42239  0.38697  1.0000
