data_image0
_chemical_formula_structural       Sr2H12C8O14
_chemical_formula_sum              "Sr2 H12 C8 O14"
_cell_length_a       6.61758
_cell_length_b       7.10249
_cell_length_c       7.87409
_cell_angle_alpha    90.0002
_cell_angle_beta     98.2777
_cell_angle_gamma    89.9999

_space_group_name_H-M_alt    "P 1"
_space_group_IT_number       1

loop_
  _space_group_symop_operation_xyz
  'x, y, z'

loop_
  _atom_site_type_symbol
  _atom_site_label
  _atom_site_symmetry_multiplicity
  _atom_site_fract_x
  _atom_site_fract_y
  _atom_site_fract_z
  _atom_site_occupancy
  Sr  Sr1       1.0  0.10069  0.24892  0.10869  1.0000
  Sr  Sr2       1.0  0.89931  0.74892  0.89131  1.0000
  H   H1        1.0  0.43768  0.76992  0.40505  1.0000
  H   H2        1.0  0.56232  0.26992  0.59495  1.0000
  H   H3        1.0  0.22127  0.99077  0.53345  1.0000
  H   H4        1.0  0.77873  0.49077  0.46654  1.0000
  H   H5        1.0  0.37380  0.45346  0.40909  1.0000
  H   H6        1.0  0.62620  0.95346  0.59091  1.0000
  H   H7        1.0  0.91197  0.89835  0.54088  1.0000
  H   H8        1.0  0.08803  0.39835  0.45912  1.0000
  H   H9        1.0  0.50204  0.28042  0.96283  1.0000
  H   H10       1.0  0.49796  0.78042  0.03717  1.0000
  H   H11       1.0  0.36039  0.41217  0.83526  1.0000
  H   H12       1.0  0.63961  0.91217  0.16474  1.0000
  C   C1        1.0  0.15001  0.74324  0.24967  1.0000
  C   C2        1.0  0.84999  0.24323  0.75033  1.0000
  C   C3        1.0  0.28455  0.72045  0.42433  1.0000
  C   C4        1.0  0.71545  0.22045  0.57567  1.0000
  C   C5        1.0  0.21037  0.84030  0.56495  1.0000
  C   C6        1.0  0.78963  0.34029  0.43505  1.0000
  C   C7        1.0  0.35657  0.80118  0.73171  1.0000
  C   C8        1.0  0.64344  0.30118  0.26829  1.0000
  O   O1        1.0  0.11865  0.90874  0.19010  1.0000
  O   O2        1.0  0.88135  0.40874  0.80990  1.0000
  O   O3        1.0  0.08175  0.59653  0.16890  1.0000
  O   O4        1.0  0.91824  0.09653  0.83110  1.0000
  O   O5        1.0  0.29605  0.53154  0.48609  1.0000
  O   O6        1.0  0.70395  0.03154  0.51391  1.0000
  O   O7        1.0  0.00596  0.79189  0.58290  1.0000
  O   O8        1.0  0.99404  0.29189  0.41710  1.0000
  O   O9        1.0  0.54646  0.82307  0.72488  1.0000
  O   O10       1.0  0.45354  0.32307  0.27512  1.0000
  O   O11       1.0  0.28640  0.74624  0.86460  1.0000
  O   O12       1.0  0.71361  0.24624  0.13540  1.0000
  O   O13       1.0  0.36781  0.28752  0.88787  1.0000
  O   O14       1.0  0.63219  0.78752  0.11213  1.0000
