data_image0
_chemical_formula_structural       Sr2H8C8O12
_chemical_formula_sum              "Sr2 H8 C8 O12"
_cell_length_a       6.40947
_cell_length_b       6.40948
_cell_length_c       7.57893
_cell_angle_alpha    90
_cell_angle_beta     90.0001
_cell_angle_gamma    103.247

_space_group_name_H-M_alt    "P 1"
_space_group_IT_number       1

loop_
  _space_group_symop_operation_xyz
  'x, y, z'

loop_
  _atom_site_type_symbol
  _atom_site_label
  _atom_site_symmetry_multiplicity
  _atom_site_fract_x
  _atom_site_fract_y
  _atom_site_fract_z
  _atom_site_occupancy
  Sr  Sr1       1.0  0.08841  0.91159  0.25000  1.0000
  Sr  Sr2       1.0  0.91159  0.08841  0.75000  1.0000
  H   H1        1.0  0.62534  0.38677  0.44905  1.0000
  H   H2        1.0  0.37466  0.61324  0.94905  1.0000
  H   H3        1.0  0.61323  0.37466  0.05095  1.0000
  H   H4        1.0  0.38677  0.62534  0.55095  1.0000
  H   H5        1.0  0.29479  0.39393  0.26182  1.0000
  H   H6        1.0  0.70521  0.60607  0.76182  1.0000
  H   H7        1.0  0.60607  0.70521  0.23818  1.0000
  H   H8        1.0  0.39394  0.29480  0.73818  1.0000
  C   C1        1.0  0.62202  0.07410  0.34972  1.0000
  C   C2        1.0  0.37798  0.92590  0.84972  1.0000
  C   C3        1.0  0.92590  0.37798  0.15028  1.0000
  C   C4        1.0  0.07410  0.62202  0.65028  1.0000
  C   C5        1.0  0.57304  0.29657  0.32662  1.0000
  C   C6        1.0  0.42696  0.70344  0.82662  1.0000
  C   C7        1.0  0.70343  0.42696  0.17338  1.0000
  C   C8        1.0  0.29657  0.57304  0.67338  1.0000
  O   O1        1.0  0.48591  0.91062  0.29427  1.0000
  O   O2        1.0  0.51410  0.08938  0.79427  1.0000
  O   O3        1.0  0.08938  0.51409  0.20573  1.0000
  O   O4        1.0  0.91062  0.48590  0.70573  1.0000
  O   O5        1.0  0.79929  0.07034  0.42305  1.0000
  O   O6        1.0  0.20071  0.92966  0.92306  1.0000
  O   O7        1.0  0.92966  0.20071  0.07695  1.0000
  O   O8        1.0  0.07034  0.79929  0.57695  1.0000
  O   O9        1.0  0.34927  0.26686  0.29975  1.0000
  O   O10       1.0  0.65072  0.73314  0.79975  1.0000
  O   O11       1.0  0.73314  0.65072  0.20025  1.0000
  O   O12       1.0  0.26686  0.34927  0.70025  1.0000
