data_image0
_chemical_formula_structural       Cu2H14C14S2N4
_chemical_formula_sum              "Cu2 H14 C14 S2 N4"
_cell_length_a       5.71966
_cell_length_b       7.40228
_cell_length_c       9.55439
_cell_angle_alpha    97.5126
_cell_angle_beta     99.9984
_cell_angle_gamma    101.658

_space_group_name_H-M_alt    "P 1"
_space_group_IT_number       1

loop_
  _space_group_symop_operation_xyz
  'x, y, z'

loop_
  _atom_site_type_symbol
  _atom_site_label
  _atom_site_symmetry_multiplicity
  _atom_site_fract_x
  _atom_site_fract_y
  _atom_site_fract_z
  _atom_site_occupancy
  Cu  Cu1       1.0  0.64280  0.99826  0.66704  1.0000
  Cu  Cu2       1.0  0.35717  0.00174  0.33295  1.0000
  H   H1        1.0  0.85687  0.80233  0.91630  1.0000
  H   H2        1.0  0.14316  0.19767  0.08369  1.0000
  H   H3        1.0  0.74328  0.00194  0.96181  1.0000
  H   H4        1.0  0.25672  0.99806  0.03818  1.0000
  H   H5        1.0  0.71676  0.82178  0.06886  1.0000
  H   H6        1.0  0.28326  0.17823  0.93114  1.0000
  H   H7        1.0  0.34062  0.59264  0.01600  1.0000
  H   H8        1.0  0.65937  0.40737  0.98400  1.0000
  H   H9        1.0  0.93385  0.44162  0.85033  1.0000
  H   H10       1.0  0.06615  0.55838  0.14968  1.0000
  H   H11       1.0  0.84360  0.54287  0.60893  1.0000
  H   H12       1.0  0.15642  0.45713  0.39108  1.0000
  H   H13       1.0  0.16918  0.76734  0.53795  1.0000
  H   H14       1.0  0.83082  0.23265  0.46205  1.0000
  C   C1        1.0  0.17109  0.14957  0.65286  1.0000
  C   C2        1.0  0.82889  0.85044  0.34714  1.0000
  C   C3        1.0  0.46737  0.75561  0.86305  1.0000
  C   C4        1.0  0.53265  0.24440  0.13695  1.0000
  C   C5        1.0  0.29482  0.62612  0.90834  1.0000
  C   C6        1.0  0.70516  0.37388  0.09166  1.0000
  C   C7        1.0  0.06928  0.54439  0.81743  1.0000
  C   C8        1.0  0.93074  0.45562  0.18259  1.0000
  C   C9        1.0  0.01954  0.59655  0.68247  1.0000
  C   C10       1.0  0.98042  0.40343  0.31752  1.0000
  C   C11       1.0  0.19997  0.72298  0.64252  1.0000
  C   C12       1.0  0.80007  0.27703  0.35748  1.0000
  C   C13       1.0  0.70847  0.84983  0.95862  1.0000
  C   C14       1.0  0.29154  0.15017  0.04138  1.0000
  S   S1        1.0  0.55415  0.76228  0.36844  1.0000
  S   S2        1.0  0.44583  0.23773  0.63158  1.0000
  N   N1        1.0  0.97217  0.08456  0.66808  1.0000
  N   N2        1.0  0.02780  0.91543  0.33192  1.0000
  N   N3        1.0  0.42002  0.80113  0.72939  1.0000
  N   N4        1.0  0.57997  0.19886  0.27060  1.0000
