data_image0
_chemical_formula_structural       Cu4H36C32S4N8
_chemical_formula_sum              "Cu4 H36 C32 S4 N8"
_cell_length_a       7.49494
_cell_length_b       7.5696
_cell_length_c       16.0046
_cell_angle_alpha    89.9994
_cell_angle_beta     92.4804
_cell_angle_gamma    89.9987

_space_group_name_H-M_alt    "P 1"
_space_group_IT_number       1

loop_
  _space_group_symop_operation_xyz
  'x, y, z'

loop_
  _atom_site_type_symbol
  _atom_site_label
  _atom_site_symmetry_multiplicity
  _atom_site_fract_x
  _atom_site_fract_y
  _atom_site_fract_z
  _atom_site_occupancy
  Cu  Cu1       1.0  0.21703  0.10927  0.18359  1.0000
  Cu  Cu2       1.0  0.78296  0.60928  0.31641  1.0000
  Cu  Cu3       1.0  0.78297  0.89071  0.81642  1.0000
  Cu  Cu4       1.0  0.21702  0.39071  0.68358  1.0000
  H   H1        1.0  0.11530  0.94494  0.03857  1.0000
  H   H2        1.0  0.88472  0.44493  0.46143  1.0000
  H   H3        1.0  0.88471  0.05505  0.96144  1.0000
  H   H4        1.0  0.11528  0.55507  0.53856  1.0000
  H   H5        1.0  0.11687  0.75872  0.10591  1.0000
  H   H6        1.0  0.88315  0.25871  0.39408  1.0000
  H   H7        1.0  0.88315  0.24127  0.89409  1.0000
  H   H8        1.0  0.11684  0.74129  0.60591  1.0000
  H   H9        1.0  0.16440  0.73051  0.99896  1.0000
  H   H10       1.0  0.83563  0.23050  0.50104  1.0000
  H   H11       1.0  0.83562  0.26949  0.00105  1.0000
  H   H12       1.0  0.16437  0.76950  0.49896  1.0000
  H   H13       1.0  0.47987  0.64971  0.99663  1.0000
  H   H14       1.0  0.52016  0.14970  0.50337  1.0000
  H   H15       1.0  0.52015  0.35030  0.00338  1.0000
  H   H16       1.0  0.47984  0.85030  0.49663  1.0000
  H   H17       1.0  0.79763  0.70561  0.04580  1.0000
  H   H18       1.0  0.20240  0.20560  0.45421  1.0000
  H   H19       1.0  0.20239  0.29442  0.95420  1.0000
  H   H20       1.0  0.79760  0.79439  0.54580  1.0000
  H   H21       1.0  0.86055  0.94927  0.14942  1.0000
  H   H22       1.0  0.13946  0.44926  0.35058  1.0000
  H   H23       1.0  0.13946  0.05076  0.85058  1.0000
  H   H24       1.0  0.86053  0.55073  0.64942  1.0000
  H   H25       1.0  0.75415  0.18731  0.23266  1.0000
  H   H26       1.0  0.24585  0.68731  0.26734  1.0000
  H   H27       1.0  0.24586  0.81270  0.76734  1.0000
  H   H28       1.0  0.75413  0.31269  0.73266  1.0000
  H   H29       1.0  0.55051  0.28559  0.19448  1.0000
  H   H30       1.0  0.44948  0.78558  0.30552  1.0000
  H   H31       1.0  0.44949  0.71442  0.80552  1.0000
  H   H32       1.0  0.55051  0.21442  0.69449  1.0000
  H   H33       1.0  0.54834  0.13185  0.27791  1.0000
  H   H34       1.0  0.45166  0.63184  0.22209  1.0000
  H   H35       1.0  0.45167  0.86816  0.72209  1.0000
  H   H36       1.0  0.54833  0.36815  0.77791  1.0000
  C   C1        1.0  0.99103  0.95612  0.31875  1.0000
  C   C2        1.0  0.00896  0.45612  0.18125  1.0000
  C   C3        1.0  0.00895  0.04387  0.68125  1.0000
  C   C4        1.0  0.99104  0.54387  0.81875  1.0000
  C   C5        1.0  0.37568  0.85066  0.07594  1.0000
  C   C6        1.0  0.62434  0.35064  0.42406  1.0000
  C   C7        1.0  0.62433  0.14934  0.92406  1.0000
  C   C8        1.0  0.37566  0.64935  0.57594  1.0000
  C   C9        1.0  0.18318  0.81895  0.05284  1.0000
  C   C10       1.0  0.81684  0.31894  0.44715  1.0000
  C   C11       1.0  0.81684  0.18104  0.94716  1.0000
  C   C12       1.0  0.18315  0.68106  0.55284  1.0000
  C   C13       1.0  0.51284  0.75128  0.04298  1.0000
  C   C14       1.0  0.48718  0.25127  0.45701  1.0000
  C   C15       1.0  0.48717  0.24873  0.95702  1.0000
  C   C16       1.0  0.51282  0.74873  0.54298  1.0000
  C   C17       1.0  0.68905  0.78368  0.06988  1.0000
  C   C18       1.0  0.31098  0.28368  0.43012  1.0000
  C   C19       1.0  0.31097  0.21634  0.93012  1.0000
  C   C20       1.0  0.68902  0.71631  0.56988  1.0000
  C   C21       1.0  0.72463  0.91846  0.12743  1.0000
  C   C22       1.0  0.27539  0.41845  0.37257  1.0000
  C   C23       1.0  0.27539  0.08157  0.87257  1.0000
  C   C24       1.0  0.72460  0.58155  0.62742  1.0000
  C   C25       1.0  0.58364  0.01605  0.15776  1.0000
  C   C26       1.0  0.41637  0.51604  0.34223  1.0000
  C   C27       1.0  0.41637  0.98396  0.84224  1.0000
  C   C28       1.0  0.58362  0.48395  0.65776  1.0000
  C   C29       1.0  0.61201  0.16308  0.21899  1.0000
  C   C30       1.0  0.38799  0.66307  0.28101  1.0000
  C   C31       1.0  0.38799  0.83693  0.78101  1.0000
  C   C32       1.0  0.61200  0.33692  0.71899  1.0000
  S   S1        1.0  0.14650  0.36206  0.11808  1.0000
  S   S2        1.0  0.85347  0.86208  0.38192  1.0000
  S   S3        1.0  0.85351  0.63792  0.88192  1.0000
  S   S4        1.0  0.14649  0.13792  0.61808  1.0000
  N   N1        1.0  0.08763  0.02833  0.27316  1.0000
  N   N2        1.0  0.91238  0.52833  0.22685  1.0000
  N   N3        1.0  0.91237  0.97166  0.72685  1.0000
  N   N4        1.0  0.08762  0.47165  0.77315  1.0000
  N   N5        1.0  0.41197  0.98010  0.13287  1.0000
  N   N6        1.0  0.58804  0.48009  0.36713  1.0000
  N   N7        1.0  0.58804  0.01990  0.86714  1.0000
  N   N8        1.0  0.41195  0.51990  0.63287  1.0000
