data_image0
_chemical_formula_structural       Cu4H56C52S4N12
_chemical_formula_sum              "Cu4 H56 C52 S4 N12"
_cell_length_a       7.86321
_cell_length_b       8.84954
_cell_length_c       22.137
_cell_angle_alpha    85.709
_cell_angle_beta     80.3042
_cell_angle_gamma    63.6232

_space_group_name_H-M_alt    "P 1"
_space_group_IT_number       1

loop_
  _space_group_symop_operation_xyz
  'x, y, z'

loop_
  _atom_site_type_symbol
  _atom_site_label
  _atom_site_symmetry_multiplicity
  _atom_site_fract_x
  _atom_site_fract_y
  _atom_site_fract_z
  _atom_site_occupancy
  Cu  Cu1       1.0  0.15158  0.60730  0.09470  1.0000
  Cu  Cu2       1.0  0.85045  0.39235  0.90603  1.0000
  Cu  Cu3       1.0  0.49358  0.10816  0.40577  1.0000
  Cu  Cu4       1.0  0.01006  0.89186  0.59446  1.0000
  H   H1        1.0  0.26373  0.52019  0.23646  1.0000
  H   H2        1.0  0.01209  0.48000  0.76443  1.0000
  H   H3        1.0  0.74236  0.02025  0.26402  1.0000
  H   H4        1.0  0.03478  0.97971  0.73631  1.0000
  H   H5        1.0  0.83949  0.88878  0.04977  1.0000
  H   H6        1.0  0.77881  0.11038  0.95129  1.0000
  H   H7        1.0  0.14035  0.39010  0.45133  1.0000
  H   H8        1.0  0.97972  0.61013  0.54967  1.0000
  H   H9        1.0  0.16700  0.72993  0.20917  1.0000
  H   H10       1.0  0.09951  0.27076  0.79225  1.0000
  H   H11       1.0  0.62076  0.22953  0.29184  1.0000
  H   H12       1.0  0.14778  0.76990  0.70900  1.0000
  H   H13       1.0  0.79698  0.91154  0.13011  1.0000
  H   H14       1.0  0.83408  0.08776  0.87091  1.0000
  H   H15       1.0  0.17285  0.41258  0.37096  1.0000
  H   H16       1.0  0.95951  0.58785  0.63004  1.0000
  H   H17       1.0  0.10905  0.68756  0.28844  1.0000
  H   H18       1.0  0.07689  0.31145  0.71269  1.0000
  H   H19       1.0  0.63840  0.18887  0.21232  1.0000
  H   H20       1.0  0.04725  0.81240  0.78828  1.0000
  H   H21       1.0  0.71275  0.09551  0.08330  1.0000
  H   H22       1.0  0.89047  0.90371  0.91770  1.0000
  H   H23       1.0  0.04529  0.59673  0.41771  1.0000
  H   H24       1.0  0.05953  0.40358  0.58335  1.0000
  H   H25       1.0  0.81516  0.66859  0.31952  1.0000
  H   H26       1.0  0.79489  0.33079  0.68047  1.0000
  H   H27       1.0  0.37507  0.17013  0.18030  1.0000
  H   H28       1.0  0.73377  0.83292  0.81942  1.0000
  H   H29       1.0  0.90468  0.24446  0.06737  1.0000
  H   H30       1.0  0.21747  0.75470  0.93214  1.0000
  H   H31       1.0  0.22339  0.74550  0.43239  1.0000
  H   H32       1.0  0.40024  0.25461  0.56769  1.0000
  H   H33       1.0  0.54148  0.62504  0.29462  1.0000
  H   H34       1.0  0.45427  0.37357  0.70422  1.0000
  H   H35       1.0  0.07730  0.12725  0.20427  1.0000
  H   H36       1.0  0.41662  0.87641  0.79449  1.0000
  H   H37       1.0  0.22339  0.24907  0.06312  1.0000
  H   H38       1.0  0.53688  0.75064  0.93575  1.0000
  H   H39       1.0  0.53887  0.74949  0.43583  1.0000
  H   H40       1.0  0.72356  0.25020  0.56322  1.0000
  H   H41       1.0  0.55438  0.54783  0.18495  1.0000
  H   H42       1.0  0.28321  0.44939  0.81370  1.0000
  H   H43       1.0  0.98288  0.05085  0.31375  1.0000
  H   H44       1.0  0.35306  0.95211  0.68469  1.0000
  H   H45       1.0  0.51044  0.97351  0.07715  1.0000
  H   H46       1.0  0.56023  0.02688  0.92244  1.0000
  H   H47       1.0  0.83847  0.47328  0.42222  1.0000
  H   H48       1.0  0.73506  0.52589  0.57686  1.0000
  H   H49       1.0  0.82953  0.53246  0.10750  1.0000
  H   H50       1.0  0.46688  0.46460  0.89204  1.0000
  H   H51       1.0  0.18247  0.03539  0.39192  1.0000
  H   H52       1.0  0.61342  0.96623  0.60720  1.0000
  H   H53       1.0  0.46526  0.71088  0.09320  1.0000
  H   H54       1.0  0.26631  0.28959  0.90752  1.0000
  H   H55       1.0  0.80713  0.21067  0.40721  1.0000
  H   H56       1.0  0.42724  0.78858  0.59287  1.0000
  C   C1        1.0  0.01712  0.58535  0.97193  1.0000
  C   C2        1.0  0.57459  0.41536  0.02806  1.0000
  C   C3        1.0  0.24061  0.08480  0.52780  1.0000
  C   C4        1.0  0.85303  0.91443  0.47176  1.0000
  C   C5        1.0  0.96653  0.62186  0.22716  1.0000
  C   C6        1.0  0.80926  0.37686  0.77320  1.0000
  C   C7        1.0  0.43635  0.12349  0.27294  1.0000
  C   C8        1.0  0.83917  0.87819  0.72696  1.0000
  C   C9        1.0  0.81355  0.63706  0.27301  1.0000
  C   C10       1.0  0.71655  0.36174  0.72687  1.0000
  C   C11       1.0  0.32809  0.13890  0.22670  1.0000
  C   C12       1.0  0.70097  0.86388  0.77286  1.0000
  C   C13       1.0  0.66136  0.61246  0.25909  1.0000
  C   C14       1.0  0.52661  0.38590  0.74016  1.0000
  C   C15       1.0  0.16236  0.11466  0.24013  1.0000
  C   C16       1.0  0.52418  0.88845  0.75893  1.0000
  C   C17       1.0  0.66679  0.57132  0.19897  1.0000
  C   C18       1.0  0.43242  0.42638  0.80016  1.0000
  C   C19       1.0  0.10903  0.07396  0.30013  1.0000
  C   C20       1.0  0.48889  0.92879  0.69874  1.0000
  C   C21       1.0  0.82116  0.56068  0.15538  1.0000
  C   C22       1.0  0.53335  0.43684  0.84424  1.0000
  C   C23       1.0  0.22077  0.06337  0.34411  1.0000
  C   C24       1.0  0.63295  0.93867  0.65512  1.0000
  C   C25       1.0  0.13487  0.64223  0.24143  1.0000
  C   C26       1.0  0.01124  0.35738  0.75956  1.0000
  C   C27       1.0  0.61886  0.14289  0.25919  1.0000
  C   C28       1.0  0.02794  0.85766  0.74125  1.0000
  C   C29       1.0  0.01729  0.97738  0.08405  1.0000
  C   C30       1.0  0.07733  0.02225  0.91651  1.0000
  C   C31       1.0  0.35078  0.47810  0.41646  1.0000
  C   C32       1.0  0.24583  0.52183  0.58407  1.0000
  C   C33       1.0  0.03238  0.12932  0.07392  1.0000
  C   C34       1.0  0.23562  0.87017  0.92586  1.0000
  C   C35       1.0  0.35701  0.63007  0.42597  1.0000
  C   C36       1.0  0.41280  0.36982  0.57409  1.0000
  C   C37       1.0  0.20955  0.13150  0.07125  1.0000
  C   C38       1.0  0.41248  0.86829  0.92819  1.0000
  C   C39       1.0  0.53207  0.63189  0.42820  1.0000
  C   C40       1.0  0.59210  0.36776  0.57128  1.0000
  C   C41       1.0  0.36853  0.97944  0.07903  1.0000
  C   C42       1.0  0.42606  0.02069  0.92080  1.0000
  C   C43       1.0  0.69804  0.47950  0.42064  1.0000
  C   C44       1.0  0.59906  0.51992  0.57885  1.0000
  C   C45       1.0  0.34437  0.83292  0.08823  1.0000
  C   C46       1.0  0.26332  0.16731  0.91227  1.0000
  C   C47       1.0  0.68185  0.33295  0.41204  1.0000
  C   C48       1.0  0.42839  0.66648  0.58800  1.0000
  C   C49       1.0  0.83032  0.96939  0.08684  1.0000
  C   C50       1.0  0.88499  0.02993  0.91410  1.0000
  C   C51       1.0  0.16603  0.47049  0.41411  1.0000
  C   C52       1.0  0.05091  0.52977  0.58683  1.0000
  S   S1        1.0  0.46159  0.40273  0.09625  1.0000
  S   S2        1.0  0.95905  0.59644  0.90338  1.0000
  S   S3        1.0  0.80617  0.90379  0.40316  1.0000
  S   S4        1.0  0.11523  0.09669  0.59599  1.0000
  N   N1        1.0  0.06094  0.58040  0.02100  1.0000
  N   N2        1.0  0.66120  0.42090  0.97928  1.0000
  N   N3        1.0  0.33286  0.07962  0.47906  1.0000
  N   N4        1.0  0.89204  0.91898  0.52084  1.0000
  N   N5        1.0  0.96805  0.58696  0.16822  1.0000
  N   N6        1.0  0.71850  0.41128  0.83200  1.0000
  N   N7        1.0  0.38036  0.08899  0.33176  1.0000
  N   N8        1.0  0.80612  0.91242  0.66797  1.0000
  N   N9        1.0  0.17331  0.82973  0.09080  1.0000
  N   N10       1.0  0.09143  0.17023  0.91003  1.0000
  N   N11       1.0  0.51283  0.33013  0.40983  1.0000
  N   N12       1.0  0.25413  0.66959  0.59065  1.0000
