data_image0
_chemical_formula_structural       Cu2H28C26S2N6
_chemical_formula_sum              "Cu2 H28 C26 S2 N6"
_cell_length_a       5.74199
_cell_length_b       8.08829
_cell_length_c       14.5617
_cell_angle_alpha    106.402
_cell_angle_beta     90.0002
_cell_angle_gamma    90.0011

_space_group_name_H-M_alt    "P 1"
_space_group_IT_number       1

loop_
  _space_group_symop_operation_xyz
  'x, y, z'

loop_
  _atom_site_type_symbol
  _atom_site_label
  _atom_site_symmetry_multiplicity
  _atom_site_fract_x
  _atom_site_fract_y
  _atom_site_fract_z
  _atom_site_occupancy
  Cu  Cu1       1.0  0.00950  0.98712  0.21907  1.0000
  Cu  Cu2       1.0  0.50955  0.01289  0.78093  1.0000
  H   H1        1.0  0.22163  0.70684  0.07161  1.0000
  H   H2        1.0  0.72164  0.29317  0.92839  1.0000
  H   H3        1.0  0.22970  0.94646  0.39437  1.0000
  H   H4        1.0  0.72968  0.05355  0.60564  1.0000
  H   H5        1.0  0.12975  0.51346  0.91090  1.0000
  H   H6        1.0  0.62975  0.48655  0.08910  1.0000
  H   H7        1.0  0.13038  0.82794  0.53057  1.0000
  H   H8        1.0  0.63038  0.17205  0.46944  1.0000
  H   H9        1.0  0.82724  0.56949  0.74926  1.0000
  H   H10       1.0  0.32716  0.43049  0.25073  1.0000
  H   H11       1.0  0.87853  0.64813  0.59605  1.0000
  H   H12       1.0  0.37853  0.35186  0.40395  1.0000
  H   H13       1.0  0.77765  0.38996  0.79405  1.0000
  H   H14       1.0  0.27768  0.61003  0.20595  1.0000
  H   H15       1.0  0.58590  0.71065  0.58629  1.0000
  H   H16       1.0  0.08593  0.28932  0.41371  1.0000
  H   H17       1.0  0.54553  0.53386  0.79004  1.0000
  H   H18       1.0  0.04551  0.46619  0.20994  1.0000
  H   H19       1.0  0.68201  0.50616  0.51598  1.0000
  H   H20       1.0  0.18201  0.49381  0.48402  1.0000
  H   H21       1.0  0.48902  0.79655  0.91996  1.0000
  H   H22       1.0  0.98898  0.20346  0.08004  1.0000
  H   H23       1.0  0.49635  0.62980  0.38047  1.0000
  H   H24       1.0  0.99635  0.37019  0.61953  1.0000
  H   H25       1.0  0.60434  0.97710  0.08198  1.0000
  H   H26       1.0  0.10431  0.02289  0.91802  1.0000
  H   H27       1.0  0.61804  0.76090  0.25244  1.0000
  H   H28       1.0  0.11802  0.23909  0.74756  1.0000
  C   C1        1.0  0.51010  0.12783  0.24955  1.0000
  C   C2        1.0  0.01013  0.87216  0.75045  1.0000
  C   C3        1.0  0.05871  0.72140  0.03632  1.0000
  C   C4        1.0  0.55872  0.27861  0.96368  1.0000
  C   C5        1.0  0.00632  0.61418  0.94594  1.0000
  C   C6        1.0  0.50632  0.38584  0.05406  1.0000
  C   C7        1.0  0.79707  0.63665  0.90124  1.0000
  C   C8        1.0  0.29706  0.36340  0.09877  1.0000
  C   C9        1.0  0.65199  0.77080  0.95173  1.0000
  C   C10       1.0  0.15199  0.22924  0.04828  1.0000
  C   C11       1.0  0.71609  0.87260  0.04200  1.0000
  C   C12       1.0  0.21608  0.12741  0.95801  1.0000
  C   C13       1.0  0.73237  0.52573  0.80374  1.0000
  C   C14       1.0  0.23235  0.47431  0.19626  1.0000
  C   C15       1.0  0.06775  0.87610  0.39451  1.0000
  C   C16       1.0  0.56774  0.12390  0.60549  1.0000
  C   C17       1.0  0.01166  0.80914  0.46983  1.0000
  C   C18       1.0  0.51165  0.19085  0.53017  1.0000
  C   C19       1.0  0.80340  0.71731  0.46709  1.0000
  C   C20       1.0  0.30339  0.28267  0.53290  1.0000
  C   C21       1.0  0.66020  0.70004  0.38694  1.0000
  C   C22       1.0  0.16021  0.29994  0.61305  1.0000
  C   C23       1.0  0.72762  0.77175  0.31502  1.0000
  C   C24       1.0  0.22760  0.22823  0.68498  1.0000
  C   C25       1.0  0.73506  0.64113  0.54550  1.0000
  C   C26       1.0  0.23507  0.35884  0.45450  1.0000
  S   S1        1.0  0.76135  0.22685  0.26518  1.0000
  S   S2        1.0  0.26137  0.77314  0.73482  1.0000
  N   N1        1.0  0.32561  0.05907  0.23779  1.0000
  N   N2        1.0  0.82565  0.94092  0.76221  1.0000
  N   N3        1.0  0.91659  0.84923  0.08542  1.0000
  N   N4        1.0  0.41661  0.15077  0.91457  1.0000
  N   N5        1.0  0.92916  0.85880  0.31760  1.0000
  N   N6        1.0  0.42916  0.14118  0.68240  1.0000
