data_image0
_chemical_formula_structural       Cu2H28C26S2N6
_chemical_formula_sum              "Cu2 H28 C26 S2 N6"
_cell_length_a       5.73865
_cell_length_b       8.34779
_cell_length_c       14.1637
_cell_angle_alpha    106.654
_cell_angle_beta     89.9981
_cell_angle_gamma    90.0013

_space_group_name_H-M_alt    "P 1"
_space_group_IT_number       1

loop_
  _space_group_symop_operation_xyz
  'x, y, z'

loop_
  _atom_site_type_symbol
  _atom_site_label
  _atom_site_symmetry_multiplicity
  _atom_site_fract_x
  _atom_site_fract_y
  _atom_site_fract_z
  _atom_site_occupancy
  Cu  Cu1       1.0  0.45626  0.49074  0.77230  1.0000
  Cu  Cu2       1.0  0.95623  0.50924  0.22769  1.0000
  H   H1        1.0  0.67427  0.54545  0.59454  1.0000
  H   H2        1.0  0.17423  0.45457  0.40545  1.0000
  H   H3        1.0  0.57990  0.68694  0.46573  1.0000
  H   H4        1.0  0.07990  0.31306  0.53425  1.0000
  H   H5        1.0  0.94650  0.86430  0.62581  1.0000
  H   H6        1.0  0.44643  0.13573  0.37423  1.0000
  H   H7        1.0  0.06195  0.70974  0.74535  1.0000
  H   H8        1.0  0.56185  0.29032  0.25470  1.0000
  H   H9        1.0  0.32740  0.87063  0.40720  1.0000
  H   H10       1.0  0.82742  0.12935  0.59280  1.0000
  H   H11       1.0  0.02854  0.82875  0.42257  1.0000
  H   H12       1.0  0.52855  0.17117  0.57742  1.0000
  H   H13       1.0  0.15779  0.01292  0.49969  1.0000
  H   H14       1.0  0.65786  0.98704  0.50029  1.0000
  H   H15       1.0  0.05756  0.50869  0.91702  1.0000
  H   H16       1.0  0.55753  0.49129  0.08297  1.0000
  H   H17       1.0  0.93704  0.69839  0.07971  1.0000
  H   H18       1.0  0.43706  0.30157  0.92028  1.0000
  H   H19       1.0  0.56713  0.97957  0.07856  1.0000
  H   H20       1.0  0.06720  0.02044  0.92143  1.0000
  H   H21       1.0  0.66344  0.77847  0.91657  1.0000
  H   H22       1.0  0.16344  0.22156  0.08342  1.0000
  H   H23       1.0  0.20898  0.91064  0.24901  1.0000
  H   H24       1.0  0.70904  0.08934  0.75097  1.0000
  H   H25       1.0  0.27157  0.08969  0.20928  1.0000
  H   H26       1.0  0.77162  0.91029  0.79072  1.0000
  H   H27       1.0  0.98622  0.00100  0.19516  1.0000
  H   H28       1.0  0.48627  0.99900  0.80483  1.0000
  C   C1        1.0  0.95765  0.35602  0.74552  1.0000
  C   C2        1.0  0.45764  0.64398  0.25450  1.0000
  C   C3        1.0  0.51397  0.61725  0.59839  1.0000
  C   C4        1.0  0.01392  0.38278  0.40161  1.0000
  C   C5        1.0  0.46073  0.69714  0.52732  1.0000
  C   C6        1.0  0.96072  0.30286  0.47268  1.0000
  C   C7        1.0  0.25436  0.78985  0.53516  1.0000
  C   C8        1.0  0.75433  0.21016  0.46485  1.0000
  C   C9        1.0  0.10954  0.79467  0.61569  1.0000
  C   C10       1.0  0.60949  0.20536  0.38434  1.0000
  C   C11       1.0  0.17357  0.71024  0.68300  1.0000
  C   C12       1.0  0.67348  0.28981  0.31703  1.0000
  C   C13       1.0  0.18949  0.88030  0.46193  1.0000
  C   C14       1.0  0.68952  0.11966  0.53806  1.0000
  C   C15       1.0  0.16559  0.61519  0.95500  1.0000
  C   C16       1.0  0.66558  0.38479  0.04500  1.0000
  C   C17       1.0  0.09860  0.72181  0.04544  1.0000
  C   C18       1.0  0.59860  0.27817  0.95456  1.0000
  C   C19       1.0  0.24011  0.85780  0.09319  1.0000
  C   C20       1.0  0.74016  0.14220  0.90680  1.0000
  C   C21       1.0  0.44722  0.87762  0.04538  1.0000
  C   C22       1.0  0.94725  0.12239  0.95461  1.0000
  C   C23       1.0  0.50238  0.76584  0.95468  1.0000
  C   C24       1.0  0.00239  0.23416  0.04531  1.0000
  C   C25       1.0  0.17324  0.97233  0.19157  1.0000
  C   C26       1.0  0.67330  0.02767  0.80842  1.0000
  S   S1        1.0  0.20859  0.25921  0.73288  1.0000
  S   S2        1.0  0.70857  0.74080  0.26714  1.0000
  N   N1        1.0  0.77302  0.42260  0.75478  1.0000
  N   N2        1.0  0.27301  0.57739  0.24523  1.0000
  N   N3        1.0  0.37378  0.62262  0.67566  1.0000
  N   N4        1.0  0.87372  0.37741  0.32435  1.0000
  N   N5        1.0  0.36457  0.63575  0.90864  1.0000
  N   N6        1.0  0.86454  0.36425  0.09136  1.0000
