data_image0
_chemical_formula_structural       Ca2H28C14O12
_chemical_formula_sum              "Ca2 H28 C14 O12"
_cell_length_a       6.46295
_cell_length_b       6.83872
_cell_length_c       12.431
_cell_angle_alpha    88.0225
_cell_angle_beta     81.6596
_cell_angle_gamma    70.7923

_space_group_name_H-M_alt    "P 1"
_space_group_IT_number       1

loop_
  _space_group_symop_operation_xyz
  'x, y, z'

loop_
  _atom_site_type_symbol
  _atom_site_label
  _atom_site_symmetry_multiplicity
  _atom_site_fract_x
  _atom_site_fract_y
  _atom_site_fract_z
  _atom_site_occupancy
  Ca  Ca1       1.0  0.06258  0.22416  0.07502  1.0000
  Ca  Ca2       1.0  0.93742  0.77584  0.92497  1.0000
  H   H1        1.0  0.61011  0.77132  0.30097  1.0000
  H   H2        1.0  0.38989  0.22868  0.69903  1.0000
  H   H3        1.0  0.70381  0.98696  0.28010  1.0000
  H   H4        1.0  0.29619  0.01305  0.71990  1.0000
  H   H5        1.0  0.57067  0.94536  0.41147  1.0000
  H   H6        1.0  0.42933  0.05464  0.58853  1.0000
  H   H7        1.0  0.20558  0.13975  0.45316  1.0000
  H   H8        1.0  0.79442  0.86026  0.54684  1.0000
  H   H9        1.0  0.61811  0.34401  0.43610  1.0000
  H   H10       1.0  0.38189  0.65599  0.56389  1.0000
  H   H11       1.0  0.76945  0.50394  0.46745  1.0000
  H   H12       1.0  0.23054  0.49606  0.53255  1.0000
  H   H13       1.0  0.82408  0.25443  0.52524  1.0000
  H   H14       1.0  0.17592  0.74556  0.47476  1.0000
  H   H15       1.0  0.67443  0.35687  0.75912  1.0000
  H   H16       1.0  0.32557  0.64312  0.24088  1.0000
  H   H17       1.0  0.91879  0.16485  0.69828  1.0000
  H   H18       1.0  0.08122  0.83514  0.30172  1.0000
  H   H19       1.0  0.90146  0.43381  0.70182  1.0000
  H   H20       1.0  0.09854  0.56618  0.29818  1.0000
  H   H21       1.0  0.38964  0.36926  0.93171  1.0000
  H   H22       1.0  0.61035  0.63074  0.06829  1.0000
  H   H23       1.0  0.49141  0.12500  0.90534  1.0000
  H   H24       1.0  0.50858  0.87500  0.09467  1.0000
  H   H25       1.0  0.64227  0.32964  0.17825  1.0000
  H   H26       1.0  0.35773  0.67036  0.82175  1.0000
  H   H27       1.0  0.56096  0.29569  0.06540  1.0000
  H   H28       1.0  0.43904  0.70431  0.93460  1.0000
  C   C1        1.0  0.57126  0.93508  0.32366  1.0000
  C   C2        1.0  0.42874  0.06492  0.67634  1.0000
  C   C3        1.0  0.35263  0.06079  0.28850  1.0000
  C   C4        1.0  0.64738  0.93922  0.71150  1.0000
  C   C5        1.0  0.17317  0.15640  0.36915  1.0000
  C   C6        1.0  0.82683  0.84360  0.63085  1.0000
  C   C7        1.0  0.95082  0.25874  0.35291  1.0000
  C   C8        1.0  0.04918  0.74127  0.64709  1.0000
  C   C9        1.0  0.78118  0.34277  0.45178  1.0000
  C   C10       1.0  0.21881  0.65723  0.54823  1.0000
  C   C11       1.0  0.93558  0.28089  0.85526  1.0000
  C   C12       1.0  0.06442  0.71910  0.14474  1.0000
  C   C13       1.0  0.85614  0.30912  0.74586  1.0000
  C   C14       1.0  0.14386  0.69088  0.25414  1.0000
  O   O1        1.0  0.34453  0.06708  0.18588  1.0000
  O   O2        1.0  0.65547  0.93292  0.81413  1.0000
  O   O3        1.0  0.88252  0.28654  0.26078  1.0000
  O   O4        1.0  0.11749  0.71346  0.73922  1.0000
  O   O5        1.0  0.94178  0.43790  0.90451  1.0000
  O   O6        1.0  0.05822  0.56209  0.09548  1.0000
  O   O7        1.0  0.99266  0.10235  0.89859  1.0000
  O   O8        1.0  0.00733  0.89764  0.10141  1.0000
  O   O9        1.0  0.41460  0.23038  0.96460  1.0000
  O   O10       1.0  0.58539  0.76962  0.03540  1.0000
  O   O11       1.0  0.64647  0.36529  0.10101  1.0000
  O   O12       1.0  0.35353  0.63470  0.89898  1.0000
