data_image0
_chemical_formula_structural       Gd4H36C60N8O24
_chemical_formula_sum              "Gd4 H36 C60 N8 O24"
_cell_length_a       6.78835
_cell_length_b       12.8555
_cell_length_c       16.7229
_cell_angle_alpha    90
_cell_angle_beta     93.6781
_cell_angle_gamma    90

_space_group_name_H-M_alt    "P 1"
_space_group_IT_number       1

loop_
  _space_group_symop_operation_xyz
  'x, y, z'

loop_
  _atom_site_type_symbol
  _atom_site_label
  _atom_site_symmetry_multiplicity
  _atom_site_fract_x
  _atom_site_fract_y
  _atom_site_fract_z
  _atom_site_occupancy
  Gd  Gd1       1.0  0.61758  0.62747  0.04865  1.0000
  Gd  Gd2       1.0  0.88242  0.12747  0.95135  1.0000
  Gd  Gd3       1.0  0.38242  0.37253  0.95135  1.0000
  Gd  Gd4       1.0  0.11758  0.87253  0.04865  1.0000
  H   H1        1.0  0.11654  0.78514  0.29766  1.0000
  H   H2        1.0  0.38345  0.28514  0.70234  1.0000
  H   H3        1.0  0.88345  0.21486  0.70234  1.0000
  H   H4        1.0  0.61654  0.71486  0.29766  1.0000
  H   H5        1.0  0.04563  0.75222  0.44133  1.0000
  H   H6        1.0  0.45437  0.25222  0.55867  1.0000
  H   H7        1.0  0.95436  0.24778  0.55867  1.0000
  H   H8        1.0  0.54563  0.74778  0.44133  1.0000
  H   H9        1.0  0.75292  0.46732  0.37087  1.0000
  H   H10       1.0  0.74708  0.96732  0.62913  1.0000
  H   H11       1.0  0.24708  0.53268  0.62913  1.0000
  H   H12       1.0  0.25292  0.03268  0.37087  1.0000
  H   H13       1.0  0.82001  0.50153  0.22690  1.0000
  H   H14       1.0  0.67999  0.00153  0.77310  1.0000
  H   H15       1.0  0.17998  0.49847  0.77310  1.0000
  H   H16       1.0  0.32001  0.99847  0.22690  1.0000
  H   H17       1.0  0.94098  0.76581  0.66885  1.0000
  H   H18       1.0  0.55902  0.26581  0.33115  1.0000
  H   H19       1.0  0.05902  0.23420  0.33115  1.0000
  H   H20       1.0  0.44098  0.73419  0.66885  1.0000
  H   H21       1.0  0.85471  0.72369  0.80948  1.0000
  H   H22       1.0  0.64529  0.22369  0.19052  1.0000
  H   H23       1.0  0.14529  0.27631  0.19052  1.0000
  H   H24       1.0  0.35471  0.77631  0.80948  1.0000
  H   H25       1.0  0.56300  0.44515  0.72340  1.0000
  H   H26       1.0  0.93700  0.94515  0.27660  1.0000
  H   H27       1.0  0.43700  0.55485  0.27660  1.0000
  H   H28       1.0  0.06300  0.05485  0.72340  1.0000
  H   H29       1.0  0.64462  0.48808  0.58280  1.0000
  H   H30       1.0  0.85538  0.98807  0.41720  1.0000
  H   H31       1.0  0.35538  0.51193  0.41720  1.0000
  H   H32       1.0  0.14462  0.01192  0.58280  1.0000
  H   H33       1.0  0.94463  0.36781  0.05024  1.0000
  H   H34       1.0  0.55537  0.86781  0.94976  1.0000
  H   H35       1.0  0.05537  0.63219  0.94976  1.0000
  H   H36       1.0  0.44463  0.13219  0.05024  1.0000
  C   C1        1.0  0.99775  0.67247  0.16855  1.0000
  C   C2        1.0  0.50224  0.17247  0.83145  1.0000
  C   C3        1.0  0.00224  0.32753  0.83145  1.0000
  C   C4        1.0  0.49776  0.82753  0.16855  1.0000
  C   C5        1.0  0.97138  0.64593  0.25410  1.0000
  C   C6        1.0  0.52862  0.14593  0.74590  1.0000
  C   C7        1.0  0.02861  0.35407  0.74590  1.0000
  C   C8        1.0  0.47138  0.85407  0.25410  1.0000
  C   C9        1.0  0.03732  0.71587  0.31470  1.0000
  C   C10       1.0  0.46269  0.21587  0.68530  1.0000
  C   C11       1.0  0.96268  0.28413  0.68530  1.0000
  C   C12       1.0  0.53731  0.78413  0.31470  1.0000
  C   C13       1.0  0.99790  0.69822  0.39383  1.0000
  C   C14       1.0  0.50210  0.19822  0.60617  1.0000
  C   C15       1.0  0.00210  0.30178  0.60617  1.0000
  C   C16       1.0  0.49790  0.80178  0.39383  1.0000
  C   C17       1.0  0.89105  0.60893  0.41324  1.0000
  C   C18       1.0  0.60895  0.10893  0.58677  1.0000
  C   C19       1.0  0.10895  0.39107  0.58677  1.0000
  C   C20       1.0  0.39105  0.89107  0.41324  1.0000
  C   C21       1.0  0.83173  0.53669  0.35339  1.0000
  C   C22       1.0  0.66828  0.03669  0.64661  1.0000
  C   C23       1.0  0.16828  0.46331  0.64661  1.0000
  C   C24       1.0  0.33173  0.96331  0.35339  1.0000
  C   C25       1.0  0.86987  0.55557  0.27407  1.0000
  C   C26       1.0  0.63013  0.05557  0.72593  1.0000
  C   C27       1.0  0.13013  0.44443  0.72593  1.0000
  C   C28       1.0  0.36986  0.94443  0.27407  1.0000
  C   C29       1.0  0.79965  0.62883  0.61849  1.0000
  C   C30       1.0  0.70036  0.12883  0.38151  1.0000
  C   C31       1.0  0.20036  0.37117  0.38151  1.0000
  C   C32       1.0  0.29965  0.87117  0.61849  1.0000
  C   C33       1.0  0.85705  0.69623  0.68189  1.0000
  C   C34       1.0  0.64295  0.19623  0.31811  1.0000
  C   C35       1.0  0.14295  0.30377  0.31811  1.0000
  C   C36       1.0  0.35705  0.80377  0.68189  1.0000
  C   C37       1.0  0.80979  0.67252  0.75962  1.0000
  C   C38       1.0  0.69021  0.17252  0.24038  1.0000
  C   C39       1.0  0.19021  0.32748  0.24038  1.0000
  C   C40       1.0  0.30979  0.82748  0.75962  1.0000
  C   C41       1.0  0.70396  0.58151  0.77436  1.0000
  C   C42       1.0  0.79604  0.08151  0.22564  1.0000
  C   C43       1.0  0.29604  0.41849  0.22564  1.0000
  C   C44       1.0  0.20396  0.91849  0.77436  1.0000
  C   C45       1.0  0.64417  0.51543  0.71029  1.0000
  C   C46       1.0  0.85583  0.01543  0.28971  1.0000
  C   C47       1.0  0.35583  0.48457  0.28971  1.0000
  C   C48       1.0  0.14417  0.98457  0.71029  1.0000
  C   C49       1.0  0.68939  0.53878  0.63286  1.0000
  C   C50       1.0  0.81062  0.03878  0.36714  1.0000
  C   C51       1.0  0.31062  0.46122  0.36714  1.0000
  C   C52       1.0  0.18938  0.96122  0.63286  1.0000
  C   C53       1.0  0.65096  0.55226  0.85673  1.0000
  C   C54       1.0  0.84904  0.05226  0.14327  1.0000
  C   C55       1.0  0.34904  0.44774  0.14327  1.0000
  C   C56       1.0  0.15096  0.94774  0.85673  1.0000
  C   C57       1.0  0.79006  0.36843  0.02524  1.0000
  C   C58       1.0  0.70994  0.86843  0.97476  1.0000
  C   C59       1.0  0.20995  0.63157  0.97476  1.0000
  C   C60       1.0  0.29005  0.13157  0.02524  1.0000
  N   N1        1.0  0.83319  0.58477  0.49043  1.0000
  N   N2        1.0  0.66681  0.08478  0.50957  1.0000
  N   N3        1.0  0.16681  0.41522  0.50957  1.0000
  N   N4        1.0  0.33319  0.91523  0.49043  1.0000
  N   N5        1.0  0.86039  0.65653  0.54206  1.0000
  N   N6        1.0  0.63961  0.15653  0.45794  1.0000
  N   N7        1.0  0.13961  0.34347  0.45794  1.0000
  N   N8        1.0  0.36039  0.84347  0.54206  1.0000
  O   O1        1.0  0.91924  0.61199  0.11410  1.0000
  O   O2        1.0  0.58076  0.11199  0.88590  1.0000
  O   O3        1.0  0.08076  0.38801  0.88590  1.0000
  O   O4        1.0  0.41924  0.88801  0.11410  1.0000
  O   O5        1.0  0.08983  0.75499  0.15332  1.0000
  O   O6        1.0  0.41017  0.25499  0.84668  1.0000
  O   O7        1.0  0.91017  0.24501  0.84668  1.0000
  O   O8        1.0  0.58983  0.74501  0.15332  1.0000
  O   O9        1.0  0.56640  0.46470  0.86413  1.0000
  O   O10       1.0  0.93360  0.96470  0.13587  1.0000
  O   O11       1.0  0.43359  0.53530  0.13587  1.0000
  O   O12       1.0  0.06640  0.03530  0.86413  1.0000
  O   O13       1.0  0.69167  0.61645  0.91387  1.0000
  O   O14       1.0  0.80833  0.11645  0.08613  1.0000
  O   O15       1.0  0.30833  0.38355  0.08613  1.0000
  O   O16       1.0  0.19167  0.88355  0.91387  1.0000
  O   O17       1.0  0.68679  0.44974  0.03109  1.0000
  O   O18       1.0  0.81322  0.94974  0.96891  1.0000
  O   O19       1.0  0.31321  0.55026  0.96891  1.0000
  O   O20       1.0  0.18679  0.05026  0.03109  1.0000
  O   O21       1.0  0.71528  0.28764  0.99110  1.0000
  O   O22       1.0  0.78472  0.78764  0.00890  1.0000
  O   O23       1.0  0.28472  0.71236  0.00890  1.0000
  O   O24       1.0  0.21528  0.21236  0.99110  1.0000
