data_image0
_chemical_formula_structural       Cu2H22C16I2N2
_chemical_formula_sum              "Cu2 H22 C16 I2 N2"
_cell_length_a       4.07496
_cell_length_b       10.2788
_cell_length_c       11.3409
_cell_angle_alpha    90.0003
_cell_angle_beta     90.0012
_cell_angle_gamma    89.9997

_space_group_name_H-M_alt    "P 1"
_space_group_IT_number       1

loop_
  _space_group_symop_operation_xyz
  'x, y, z'

loop_
  _atom_site_type_symbol
  _atom_site_label
  _atom_site_symmetry_multiplicity
  _atom_site_fract_x
  _atom_site_fract_y
  _atom_site_fract_z
  _atom_site_occupancy
  Cu  Cu1       1.0  0.40550  0.50000  0.86482  1.0000
  Cu  Cu2       1.0  0.59446  1.00000  0.36482  1.0000
  H   H1        1.0  0.23732  0.74144  0.72329  1.0000
  H   H2        1.0  0.23734  0.25855  0.72329  1.0000
  H   H3        1.0  0.76266  0.24145  0.22331  1.0000
  H   H4        1.0  0.76265  0.75854  0.22330  1.0000
  H   H5        1.0  0.62102  0.73480  0.79611  1.0000
  H   H6        1.0  0.62104  0.26520  0.79610  1.0000
  H   H7        1.0  0.37895  0.23478  0.29611  1.0000
  H   H8        1.0  0.37894  0.76522  0.29611  1.0000
  H   H9        1.0  0.58082  0.82259  0.65985  1.0000
  H   H10       1.0  0.58084  0.17742  0.65984  1.0000
  H   H11       1.0  0.41914  0.32258  0.15986  1.0000
  H   H12       1.0  0.41913  0.67742  0.15986  1.0000
  H   H13       1.0  0.77577  0.71024  0.48936  1.0000
  H   H14       1.0  0.77577  0.28976  0.48936  1.0000
  H   H15       1.0  0.22424  0.21025  0.98935  1.0000
  H   H16       1.0  0.22422  0.78976  0.98935  1.0000
  H   H17       1.0  0.74372  0.50000  0.28250  1.0000
  H   H18       1.0  0.25634  0.00000  0.78250  1.0000
  H   H19       1.0  0.08864  0.58654  0.33473  1.0000
  H   H20       1.0  0.08865  0.41347  0.33472  1.0000
  H   H21       1.0  0.91140  0.08654  0.83470  1.0000
  H   H22       1.0  0.91140  0.91347  0.83471  1.0000
  C   C1        1.0  0.58572  0.61402  0.64269  1.0000
  C   C2        1.0  0.58572  0.38598  0.64269  1.0000
  C   C3        1.0  0.41425  0.11402  0.14269  1.0000
  C   C4        1.0  0.41425  0.88598  0.14268  1.0000
  C   C5        1.0  0.50359  0.73567  0.70855  1.0000
  C   C6        1.0  0.50361  0.26433  0.70855  1.0000
  C   C7        1.0  0.49639  0.23566  0.20856  1.0000
  C   C8        1.0  0.49639  0.76433  0.20856  1.0000
  C   C9        1.0  0.72161  0.61638  0.53003  1.0000
  C   C10       1.0  0.72161  0.38362  0.53003  1.0000
  C   C11       1.0  0.27845  0.11638  0.03003  1.0000
  C   C12       1.0  0.27843  0.88362  0.03003  1.0000
  C   C13       1.0  0.79394  0.50000  0.47150  1.0000
  C   C14       1.0  0.20606  0.00000  0.97148  1.0000
  C   C15       1.0  0.93735  0.50000  0.35004  1.0000
  C   C16       1.0  0.06268  0.00000  0.85002  1.0000
  I   I1        1.0  0.92227  0.50000  0.99736  1.0000
  I   I2        1.0  0.07771  1.00000  0.49736  1.0000
  N   N1        1.0  0.52163  0.50000  0.69854  1.0000
  N   N2        1.0  0.47839  0.00000  0.19853  1.0000
