data_image0
_chemical_formula_structural       Tb4H36C60N8O24
_chemical_formula_sum              "Tb4 H36 C60 N8 O24"
_cell_length_a       6.76372
_cell_length_b       12.8294
_cell_length_c       16.7158
_cell_angle_alpha    90
_cell_angle_beta     93.6928
_cell_angle_gamma    90

_space_group_name_H-M_alt    "P 1"
_space_group_IT_number       1

loop_
  _space_group_symop_operation_xyz
  'x, y, z'

loop_
  _atom_site_type_symbol
  _atom_site_label
  _atom_site_symmetry_multiplicity
  _atom_site_fract_x
  _atom_site_fract_y
  _atom_site_fract_z
  _atom_site_occupancy
  Tb  Tb1       1.0  0.61609  0.62750  0.04850  1.0000
  Tb  Tb2       1.0  0.88391  0.12750  0.95150  1.0000
  Tb  Tb3       1.0  0.38391  0.37250  0.95150  1.0000
  Tb  Tb4       1.0  0.11609  0.87250  0.04850  1.0000
  H   H1        1.0  0.11753  0.78552  0.29747  1.0000
  H   H2        1.0  0.38247  0.28552  0.70253  1.0000
  H   H3        1.0  0.88247  0.21448  0.70253  1.0000
  H   H4        1.0  0.61753  0.71448  0.29747  1.0000
  H   H5        1.0  0.04743  0.75239  0.44129  1.0000
  H   H6        1.0  0.45257  0.25239  0.55871  1.0000
  H   H7        1.0  0.95257  0.24761  0.55871  1.0000
  H   H8        1.0  0.54743  0.74761  0.44129  1.0000
  H   H9        1.0  0.75260  0.46718  0.37102  1.0000
  H   H10       1.0  0.74740  0.96718  0.62898  1.0000
  H   H11       1.0  0.24740  0.53282  0.62898  1.0000
  H   H12       1.0  0.25260  0.03281  0.37102  1.0000
  H   H13       1.0  0.81959  0.50128  0.22694  1.0000
  H   H14       1.0  0.68040  0.00128  0.77306  1.0000
  H   H15       1.0  0.18040  0.49872  0.77306  1.0000
  H   H16       1.0  0.31960  0.99872  0.22694  1.0000
  H   H17       1.0  0.94006  0.76663  0.66901  1.0000
  H   H18       1.0  0.55994  0.26663  0.33099  1.0000
  H   H19       1.0  0.05994  0.23337  0.33099  1.0000
  H   H20       1.0  0.44006  0.73337  0.66901  1.0000
  H   H21       1.0  0.85491  0.72430  0.80980  1.0000
  H   H22       1.0  0.64509  0.22431  0.19020  1.0000
  H   H23       1.0  0.14509  0.27570  0.19020  1.0000
  H   H24       1.0  0.35491  0.77569  0.80980  1.0000
  H   H25       1.0  0.56140  0.44527  0.72371  1.0000
  H   H26       1.0  0.93860  0.94527  0.27629  1.0000
  H   H27       1.0  0.43860  0.55473  0.27629  1.0000
  H   H28       1.0  0.06140  0.05473  0.72371  1.0000
  H   H29       1.0  0.64297  0.48832  0.58303  1.0000
  H   H30       1.0  0.85703  0.98832  0.41696  1.0000
  H   H31       1.0  0.35703  0.51168  0.41697  1.0000
  H   H32       1.0  0.14297  0.01168  0.58304  1.0000
  H   H33       1.0  0.94633  0.36915  0.05004  1.0000
  H   H34       1.0  0.55367  0.86915  0.94996  1.0000
  H   H35       1.0  0.05368  0.63085  0.94996  1.0000
  H   H36       1.0  0.44633  0.13085  0.05004  1.0000
  C   C1        1.0  0.99626  0.67273  0.16829  1.0000
  C   C2        1.0  0.50374  0.17273  0.83171  1.0000
  C   C3        1.0  0.00375  0.32728  0.83171  1.0000
  C   C4        1.0  0.49625  0.82728  0.16829  1.0000
  C   C5        1.0  0.97157  0.64595  0.25395  1.0000
  C   C6        1.0  0.52843  0.14595  0.74605  1.0000
  C   C7        1.0  0.02843  0.35405  0.74605  1.0000
  C   C8        1.0  0.47157  0.85405  0.25395  1.0000
  C   C9        1.0  0.03821  0.71603  0.31453  1.0000
  C   C10       1.0  0.46179  0.21603  0.68547  1.0000
  C   C11       1.0  0.96179  0.28397  0.68547  1.0000
  C   C12       1.0  0.53821  0.78397  0.31453  1.0000
  C   C13       1.0  0.99898  0.69843  0.39375  1.0000
  C   C14       1.0  0.50102  0.19843  0.60625  1.0000
  C   C15       1.0  0.00102  0.30157  0.60625  1.0000
  C   C16       1.0  0.49898  0.80157  0.39375  1.0000
  C   C17       1.0  0.89145  0.60911  0.41331  1.0000
  C   C18       1.0  0.60854  0.10911  0.58669  1.0000
  C   C19       1.0  0.10854  0.39089  0.58669  1.0000
  C   C20       1.0  0.39145  0.89089  0.41331  1.0000
  C   C21       1.0  0.83202  0.53659  0.35350  1.0000
  C   C22       1.0  0.66798  0.03659  0.64650  1.0000
  C   C23       1.0  0.16798  0.46341  0.64650  1.0000
  C   C24       1.0  0.33202  0.96341  0.35350  1.0000
  C   C25       1.0  0.87016  0.55534  0.27411  1.0000
  C   C26       1.0  0.62984  0.05534  0.72589  1.0000
  C   C27       1.0  0.12984  0.44466  0.72590  1.0000
  C   C28       1.0  0.37016  0.94466  0.27410  1.0000
  C   C29       1.0  0.79872  0.62929  0.61870  1.0000
  C   C30       1.0  0.70129  0.12929  0.38130  1.0000
  C   C31       1.0  0.20129  0.37071  0.38130  1.0000
  C   C32       1.0  0.29871  0.87071  0.61870  1.0000
  C   C33       1.0  0.85608  0.69690  0.68214  1.0000
  C   C34       1.0  0.64392  0.19690  0.31786  1.0000
  C   C35       1.0  0.14392  0.30310  0.31786  1.0000
  C   C36       1.0  0.35608  0.80310  0.68214  1.0000
  C   C37       1.0  0.80924  0.67306  0.75995  1.0000
  C   C38       1.0  0.69076  0.17306  0.24005  1.0000
  C   C39       1.0  0.19076  0.32694  0.24005  1.0000
  C   C40       1.0  0.30924  0.82693  0.75995  1.0000
  C   C41       1.0  0.70306  0.58184  0.77470  1.0000
  C   C42       1.0  0.79694  0.08184  0.22530  1.0000
  C   C43       1.0  0.29694  0.41816  0.22530  1.0000
  C   C44       1.0  0.20306  0.91816  0.77470  1.0000
  C   C45       1.0  0.64290  0.51567  0.71059  1.0000
  C   C46       1.0  0.85710  0.01567  0.28941  1.0000
  C   C47       1.0  0.35710  0.48433  0.28941  1.0000
  C   C48       1.0  0.14290  0.98433  0.71059  1.0000
  C   C49       1.0  0.68826  0.53901  0.63313  1.0000
  C   C50       1.0  0.81174  0.03901  0.36687  1.0000
  C   C51       1.0  0.31174  0.46099  0.36687  1.0000
  C   C52       1.0  0.18826  0.96099  0.63313  1.0000
  C   C53       1.0  0.65025  0.55235  0.85708  1.0000
  C   C54       1.0  0.84974  0.05235  0.14292  1.0000
  C   C55       1.0  0.34974  0.44765  0.14292  1.0000
  C   C56       1.0  0.15025  0.94765  0.85708  1.0000
  C   C57       1.0  0.79121  0.36919  0.02504  1.0000
  C   C58       1.0  0.70879  0.86919  0.97496  1.0000
  C   C59       1.0  0.20879  0.63081  0.97496  1.0000
  C   C60       1.0  0.29121  0.13081  0.02504  1.0000
  N   N1        1.0  0.83346  0.58496  0.49058  1.0000
  N   N2        1.0  0.66654  0.08496  0.50942  1.0000
  N   N3        1.0  0.16654  0.41504  0.50942  1.0000
  N   N4        1.0  0.33345  0.91504  0.49058  1.0000
  N   N5        1.0  0.85951  0.65707  0.54215  1.0000
  N   N6        1.0  0.64049  0.15707  0.45785  1.0000
  N   N7        1.0  0.14049  0.34293  0.45785  1.0000
  N   N8        1.0  0.35950  0.84293  0.54215  1.0000
  O   O1        1.0  0.91655  0.61225  0.11390  1.0000
  O   O2        1.0  0.58345  0.11225  0.88610  1.0000
  O   O3        1.0  0.08345  0.38775  0.88610  1.0000
  O   O4        1.0  0.41655  0.88775  0.11390  1.0000
  O   O5        1.0  0.08812  0.75550  0.15290  1.0000
  O   O6        1.0  0.41188  0.25550  0.84710  1.0000
  O   O7        1.0  0.91188  0.24450  0.84710  1.0000
  O   O8        1.0  0.58812  0.74450  0.15290  1.0000
  O   O9        1.0  0.56565  0.46453  0.86449  1.0000
  O   O10       1.0  0.93435  0.96453  0.13551  1.0000
  O   O11       1.0  0.43435  0.53547  0.13551  1.0000
  O   O12       1.0  0.06565  0.03546  0.86449  1.0000
  O   O13       1.0  0.69096  0.61665  0.91428  1.0000
  O   O14       1.0  0.80903  0.11665  0.08572  1.0000
  O   O15       1.0  0.30904  0.38335  0.08572  1.0000
  O   O16       1.0  0.19096  0.88335  0.91428  1.0000
  O   O17       1.0  0.68677  0.45046  0.03061  1.0000
  O   O18       1.0  0.81323  0.95046  0.96939  1.0000
  O   O19       1.0  0.31323  0.54954  0.96939  1.0000
  O   O20       1.0  0.18677  0.04954  0.03061  1.0000
  O   O21       1.0  0.71700  0.28788  0.99112  1.0000
  O   O22       1.0  0.78300  0.78788  0.00889  1.0000
  O   O23       1.0  0.28300  0.71212  0.00888  1.0000
  O   O24       1.0  0.21700  0.21212  0.99112  1.0000
