data_image0
_chemical_formula_structural       Ag4H20C16N16O12
_chemical_formula_sum              "Ag4 H20 C16 N16 O12"
_cell_length_a       3.71546
_cell_length_b       12.6705
_cell_length_c       15.2882
_cell_angle_alpha    89.9996
_cell_angle_beta     90.0002
_cell_angle_gamma    98.9107

_space_group_name_H-M_alt    "P 1"
_space_group_IT_number       1

loop_
  _space_group_symop_operation_xyz
  'x, y, z'

loop_
  _atom_site_type_symbol
  _atom_site_label
  _atom_site_symmetry_multiplicity
  _atom_site_fract_x
  _atom_site_fract_y
  _atom_site_fract_z
  _atom_site_occupancy
  Ag  Ag1       1.0  0.57621  0.50897  0.61727  1.0000
  Ag  Ag2       1.0  0.42380  0.49103  0.11726  1.0000
  Ag  Ag3       1.0  0.98496  0.99821  0.50934  1.0000
  Ag  Ag4       1.0  0.01503  0.00179  0.00934  1.0000
  H   H1        1.0  0.77312  0.39243  0.45983  1.0000
  H   H2        1.0  0.22688  0.60758  0.95982  1.0000
  H   H3        1.0  0.91996  0.21295  0.41626  1.0000
  H   H4        1.0  0.08004  0.78706  0.91625  1.0000
  H   H5        1.0  0.57418  0.09176  0.66074  1.0000
  H   H6        1.0  0.42585  0.90824  0.16073  1.0000
  H   H7        1.0  0.36772  0.61923  0.46012  1.0000
  H   H8        1.0  0.63225  0.38077  0.96012  1.0000
  H   H9        1.0  0.14365  0.78835  0.41559  1.0000
  H   H10       1.0  0.85632  0.21165  0.91559  1.0000
  H   H11       1.0  0.33772  0.90769  0.66784  1.0000
  H   H12       1.0  0.66229  0.09231  0.16785  1.0000
  H   H13       1.0  0.27042  0.33979  0.73400  1.0000
  H   H14       1.0  0.72958  0.66020  0.23400  1.0000
  H   H15       1.0  0.30369  0.20541  0.75898  1.0000
  H   H16       1.0  0.69632  0.79459  0.25898  1.0000
  H   H17       1.0  0.71436  0.67498  0.74959  1.0000
  H   H18       1.0  0.28564  0.32501  0.24959  1.0000
  H   H19       1.0  0.64346  0.80691  0.76883  1.0000
  H   H20       1.0  0.35654  0.19309  0.26883  1.0000
  C   C1        1.0  0.72396  0.32484  0.50464  1.0000
  C   C2        1.0  0.27605  0.67517  0.00463  1.0000
  C   C3        1.0  0.80765  0.22655  0.48008  1.0000
  C   C4        1.0  0.19236  0.77345  0.98007  1.0000
  C   C5        1.0  0.61232  0.15817  0.61497  1.0000
  C   C6        1.0  0.38770  0.84183  0.11497  1.0000
  C   C7        1.0  0.51802  0.25853  0.64049  1.0000
  C   C8        1.0  0.48199  0.74147  0.14048  1.0000
  C   C9        1.0  0.36472  0.68413  0.50655  1.0000
  C   C10       1.0  0.63528  0.31587  0.00655  1.0000
  C   C11       1.0  0.24030  0.77668  0.48135  1.0000
  C   C12       1.0  0.75967  0.22331  0.98135  1.0000
  C   C13       1.0  0.35155  0.84420  0.62073  1.0000
  C   C14       1.0  0.64845  0.15580  0.12073  1.0000
  C   C15       1.0  0.48660  0.74984  0.64721  1.0000
  C   C16       1.0  0.51340  0.25016  0.14721  1.0000
  N   N1        1.0  0.58881  0.34261  0.58443  1.0000
  N   N2        1.0  0.41119  0.65739  0.08443  1.0000
  N   N3        1.0  0.75880  0.14370  0.53741  1.0000
  N   N4        1.0  0.24122  0.85630  0.03741  1.0000
  N   N5        1.0  0.36622  0.27012  0.71866  1.0000
  N   N6        1.0  0.63380  0.72988  0.21865  1.0000
  N   N7        1.0  0.02217  0.99432  0.30769  1.0000
  N   N8        1.0  0.97783  0.00567  0.80769  1.0000
  N   N9        1.0  0.03259  0.50105  0.81292  1.0000
  N   N10       1.0  0.96741  0.49895  0.31292  1.0000
  N   N11       1.0  0.22858  0.85623  0.54035  1.0000
  N   N12       1.0  0.77141  0.14377  0.04035  1.0000
  N   N13       1.0  0.61362  0.74171  0.72831  1.0000
  N   N14       1.0  0.38637  0.25829  0.22831  1.0000
  N   N15       1.0  0.48063  0.66857  0.58882  1.0000
  N   N16       1.0  0.51936  0.33143  0.08882  1.0000
  O   O1        1.0  0.19591  0.07170  0.35128  1.0000
  O   O2        1.0  0.80408  0.92830  0.85128  1.0000
  O   O3        1.0  0.84187  0.91510  0.34759  1.0000
  O   O4        1.0  0.15811  0.08490  0.84759  1.0000
  O   O5        1.0  0.02894  0.99645  0.22524  1.0000
  O   O6        1.0  0.97108  0.00355  0.72524  1.0000
  O   O7        1.0  0.03975  0.46409  0.73433  1.0000
  O   O8        1.0  0.96027  0.53591  0.23433  1.0000
  O   O9        1.0  0.90233  0.58589  0.82627  1.0000
  O   O10       1.0  0.09765  0.41411  0.32628  1.0000
  O   O11       1.0  0.15474  0.45142  0.87449  1.0000
  O   O12       1.0  0.84525  0.54858  0.37448  1.0000
