data_image0
_chemical_formula_structural       H28Pb2C48N8O16
_chemical_formula_sum              "H28 Pb2 C48 N8 O16"
_cell_length_a       9.49856
_cell_length_b       9.49387
_cell_length_c       13.5342
_cell_angle_alpha    69.9042
_cell_angle_beta     69.9145
_cell_angle_gamma    73.6715

_space_group_name_H-M_alt    "P 1"
_space_group_IT_number       1

loop_
  _space_group_symop_operation_xyz
  'x, y, z'

loop_
  _atom_site_type_symbol
  _atom_site_label
  _atom_site_symmetry_multiplicity
  _atom_site_fract_x
  _atom_site_fract_y
  _atom_site_fract_z
  _atom_site_occupancy
  H   H1        1.0  0.43675  0.47879  0.15086  1.0000
  H   H2        1.0  0.52124  0.56329  0.34913  1.0000
  H   H3        1.0  0.56325  0.52121  0.84913  1.0000
  H   H4        1.0  0.47877  0.43670  0.65087  1.0000
  H   H5        1.0  0.13807  0.26470  0.75544  1.0000
  H   H6        1.0  0.73540  0.86200  0.74448  1.0000
  H   H7        1.0  0.86195  0.73528  0.24453  1.0000
  H   H8        1.0  0.26458  0.13800  0.25553  1.0000
  H   H9        1.0  0.46567  0.85558  0.83450  1.0000
  H   H10       1.0  0.14428  0.53415  0.66556  1.0000
  H   H11       1.0  0.53434  0.14440  0.16552  1.0000
  H   H12       1.0  0.85570  0.46586  0.33444  1.0000
  H   H13       1.0  0.25253  0.71392  0.92556  1.0000
  H   H14       1.0  0.28590  0.74738  0.57456  1.0000
  H   H15       1.0  0.74749  0.28608  0.07444  1.0000
  H   H16       1.0  0.71409  0.25263  0.42547  1.0000
  H   H17       1.0  0.05242  0.63123  0.03615  1.0000
  H   H18       1.0  0.36865  0.94742  0.46398  1.0000
  H   H19       1.0  0.94753  0.36880  0.96390  1.0000
  H   H20       1.0  0.63135  0.05257  0.53603  1.0000
  H   H21       1.0  0.81731  0.51697  0.11437  1.0000
  H   H22       1.0  0.48286  0.18265  0.38571  1.0000
  H   H23       1.0  0.18267  0.48302  0.88562  1.0000
  H   H24       1.0  0.51713  0.81734  0.61428  1.0000
  H   H25       1.0  0.58511  0.93389  0.93627  1.0000
  H   H26       1.0  0.06619  0.41513  0.56362  1.0000
  H   H27       1.0  0.41492  0.06609  0.06367  1.0000
  H   H28       1.0  0.93383  0.58489  0.43636  1.0000
  Pb  Pb1       1.0  0.81088  0.18916  0.75002  1.0000
  Pb  Pb2       1.0  0.18912  0.81088  0.25000  1.0000
  C   C1        1.0  0.16742  0.14250  0.79163  1.0000
  C   C2        1.0  0.85754  0.83261  0.70833  1.0000
  C   C3        1.0  0.83259  0.85748  0.20837  1.0000
  C   C4        1.0  0.14245  0.16740  0.29168  1.0000
  C   C5        1.0  0.31898  0.07325  0.78897  1.0000
  C   C6        1.0  0.92674  0.68096  0.71102  1.0000
  C   C7        1.0  0.68104  0.92674  0.21103  1.0000
  C   C8        1.0  0.07326  0.31904  0.28898  1.0000
  C   C9        1.0  0.34912  0.91571  0.83645  1.0000
  C   C10       1.0  0.08418  0.65076  0.66359  1.0000
  C   C11       1.0  0.65088  0.08428  0.16356  1.0000
  C   C12       1.0  0.91580  0.34925  0.33641  1.0000
  C   C13       1.0  0.22866  0.83607  0.88724  1.0000
  C   C14       1.0  0.16381  0.77126  0.61283  1.0000
  C   C15       1.0  0.77134  0.16392  0.11278  1.0000
  C   C16       1.0  0.83618  0.22874  0.38719  1.0000
  C   C17       1.0  0.07991  0.91499  0.88658  1.0000
  C   C18       1.0  0.08497  0.92010  0.61344  1.0000
  C   C19       1.0  0.92010  0.08502  0.11344  1.0000
  C   C20       1.0  0.91502  0.07992  0.38656  1.0000
  C   C21       1.0  0.94447  0.84025  0.93911  1.0000
  C   C22       1.0  0.15970  0.05554  0.56091  1.0000
  C   C23       1.0  0.05551  0.15976  0.06090  1.0000
  C   C24       1.0  0.84029  0.94445  0.43910  1.0000
  C   C25       1.0  0.94883  0.69337  0.01211  1.0000
  C   C26       1.0  0.30653  0.05111  0.48796  1.0000
  C   C27       1.0  0.05116  0.30662  0.98791  1.0000
  C   C28       1.0  0.69346  0.94888  0.51205  1.0000
  C   C29       1.0  0.81744  0.63010  0.05672  1.0000
  C   C30       1.0  0.36979  0.18254  0.44332  1.0000
  C   C31       1.0  0.18253  0.36991  0.94327  1.0000
  C   C32       1.0  0.63021  0.81746  0.55666  1.0000
  C   C33       1.0  0.68311  0.71543  0.02959  1.0000
  C   C34       1.0  0.28452  0.31697  0.47040  1.0000
  C   C35       1.0  0.31689  0.28456  0.97039  1.0000
  C   C36       1.0  0.71549  0.68303  0.52958  1.0000
  C   C37       1.0  0.68730  0.86287  0.95919  1.0000
  C   C38       1.0  0.13715  0.31284  0.54076  1.0000
  C   C39       1.0  0.31270  0.13712  0.04078  1.0000
  C   C40       1.0  0.86287  0.68717  0.45922  1.0000
  C   C41       1.0  0.44176  0.16925  0.73744  1.0000
  C   C42       1.0  0.83077  0.55815  0.76260  1.0000
  C   C43       1.0  0.55825  0.83076  0.26257  1.0000
  C   C44       1.0  0.16923  0.44185  0.23741  1.0000
  C   C45       1.0  0.53533  0.66030  0.07370  1.0000
  C   C46       1.0  0.33970  0.46478  0.42629  1.0000
  C   C47       1.0  0.46467  0.33969  0.92629  1.0000
  C   C48       1.0  0.66030  0.53523  0.57370  1.0000
  N   N1        1.0  0.05224  0.06613  0.83670  1.0000
  N   N2        1.0  0.93389  0.94783  0.66326  1.0000
  N   N3        1.0  0.94777  0.93386  0.16333  1.0000
  N   N4        1.0  0.06610  0.05218  0.33673  1.0000
  N   N5        1.0  0.81357  0.92251  0.91470  1.0000
  N   N6        1.0  0.07750  0.18653  0.58527  1.0000
  N   N7        1.0  0.18645  0.07748  0.08529  1.0000
  N   N8        1.0  0.92251  0.81346  0.41473  1.0000
  O   O1        1.0  0.39699  0.31168  0.69768  1.0000
  O   O2        1.0  0.68841  0.60294  0.80230  1.0000
  O   O3        1.0  0.60301  0.68832  0.30233  1.0000
  O   O4        1.0  0.31157  0.39707  0.19768  1.0000
  O   O5        1.0  0.57654  0.10104  0.73901  1.0000
  O   O6        1.0  0.89899  0.42329  0.76112  1.0000
  O   O7        1.0  0.42348  0.89898  0.26101  1.0000
  O   O8        1.0  0.10103  0.57671  0.23893  1.0000
  O   O9        1.0  0.54580  0.51245  0.11902  1.0000
  O   O10       1.0  0.48748  0.45419  0.38099  1.0000
  O   O11       1.0  0.45420  0.48757  0.88096  1.0000
  O   O12       1.0  0.51253  0.54581  0.61900  1.0000
  O   O13       1.0  0.41406  0.75187  0.06672  1.0000
  O   O14       1.0  0.24824  0.58616  0.43322  1.0000
  O   O15       1.0  0.58593  0.24813  0.93326  1.0000
  O   O16       1.0  0.75177  0.41384  0.56677  1.0000
