data_image0
_chemical_formula_structural       Dy2H62C54O28
_chemical_formula_sum              "Dy2 H62 C54 O28"
_cell_length_a       9.16522
_cell_length_b       12.6158
_cell_length_c       13.2014
_cell_angle_alpha    92.8663
_cell_angle_beta     94.5152
_cell_angle_gamma    92.3142

_space_group_name_H-M_alt    "P 1"
_space_group_IT_number       1

loop_
  _space_group_symop_operation_xyz
  'x, y, z'

loop_
  _atom_site_type_symbol
  _atom_site_label
  _atom_site_symmetry_multiplicity
  _atom_site_fract_x
  _atom_site_fract_y
  _atom_site_fract_z
  _atom_site_occupancy
  Dy  Dy1       1.0  0.74707  0.49115  0.49036  1.0000
  Dy  Dy2       1.0  0.25292  0.50885  0.50965  1.0000
  H   H1        1.0  0.64789  0.28426  0.43170  1.0000
  H   H2        1.0  0.35212  0.71574  0.56830  1.0000
  H   H3        1.0  0.49609  0.33907  0.40586  1.0000
  H   H4        1.0  0.50390  0.66093  0.59414  1.0000
  H   H5        1.0  0.80637  0.46915  0.28776  1.0000
  H   H6        1.0  0.19362  0.53084  0.71224  1.0000
  H   H7        1.0  0.96579  0.43803  0.33221  1.0000
  H   H8        1.0  0.03420  0.56197  0.66779  1.0000
  H   H9        1.0  0.23006  0.59325  0.27223  1.0000
  H   H10       1.0  0.76993  0.40676  0.72777  1.0000
  H   H11       1.0  0.55514  0.79985  0.06214  1.0000
  H   H12       1.0  0.44486  0.20016  0.93787  1.0000
  H   H13       1.0  0.66076  0.70692  0.21126  1.0000
  H   H14       1.0  0.33923  0.29309  0.78875  1.0000
  H   H15       1.0  0.03218  0.53998  0.16986  1.0000
  H   H16       1.0  0.96782  0.46002  0.83015  1.0000
  H   H17       1.0  0.88931  0.62284  0.12331  1.0000
  H   H18       1.0  0.11068  0.37716  0.87671  1.0000
  H   H19       1.0  0.99185  0.65747  0.24282  1.0000
  H   H20       1.0  0.00814  0.34253  0.75720  1.0000
  H   H21       1.0  0.40678  0.92261  0.98244  1.0000
  H   H22       1.0  0.59321  0.07739  0.01756  1.0000
  H   H23       1.0  0.27945  0.88021  0.87703  1.0000
  H   H24       1.0  0.72054  0.11978  0.12298  1.0000
  H   H25       1.0  0.43663  0.80374  0.90602  1.0000
  H   H26       1.0  0.56336  0.19626  0.09399  1.0000
  H   H27       1.0  0.62492  0.81555  0.68854  1.0000
  H   H28       1.0  0.37510  0.18447  0.31145  1.0000
  H   H29       1.0  0.97074  0.75254  0.98667  1.0000
  H   H30       1.0  0.02925  0.24745  0.01334  1.0000
  H   H31       1.0  0.94671  0.62522  0.83817  1.0000
  H   H32       1.0  0.05329  0.37477  0.16184  1.0000
  H   H33       1.0  0.60922  0.99623  0.68941  1.0000
  H   H34       1.0  0.39082  0.00380  0.31058  1.0000
  H   H35       1.0  0.49867  0.06611  0.77435  1.0000
  H   H36       1.0  0.50138  0.93392  0.22564  1.0000
  H   H37       1.0  0.45575  0.92874  0.73785  1.0000
  H   H38       1.0  0.54428  0.07130  0.26214  1.0000
  H   H39       1.0  0.87529  0.83836  0.12644  1.0000
  H   H40       1.0  0.12469  0.16164  0.87356  1.0000
  H   H41       1.0  0.89450  0.97991  0.14486  1.0000
  H   H42       1.0  0.10548  0.02009  0.85515  1.0000
  H   H43       1.0  0.02244  0.90946  0.07347  1.0000
  H   H44       1.0  0.97756  0.09054  0.92655  1.0000
  H   H45       1.0  0.75812  0.75208  0.45864  1.0000
  H   H46       1.0  0.24187  0.24791  0.54137  1.0000
  H   H47       1.0  0.09779  0.02043  0.32783  1.0000
  H   H48       1.0  0.90221  0.97956  0.67213  1.0000
  H   H49       1.0  0.18545  0.84301  0.37232  1.0000
  H   H50       1.0  0.81456  0.15696  0.62766  1.0000
  H   H51       1.0  0.51631  0.80130  0.39937  1.0000
  H   H52       1.0  0.48368  0.19870  0.60064  1.0000
  H   H53       1.0  0.44379  0.90863  0.47229  1.0000
  H   H54       1.0  0.55622  0.09138  0.52770  1.0000
  H   H55       1.0  0.58826  0.83318  0.52780  1.0000
  H   H56       1.0  0.41174  0.16683  0.47220  1.0000
  H   H57       1.0  0.01183  0.18025  0.37177  1.0000
  H   H58       1.0  0.98816  0.81974  0.62822  1.0000
  H   H59       1.0  0.85501  0.23399  0.30622  1.0000
  H   H60       1.0  0.14498  0.76600  0.69377  1.0000
  H   H61       1.0  0.95978  0.13756  0.24210  1.0000
  H   H62       1.0  0.04021  0.86242  0.75790  1.0000
  C   C1        1.0  0.51425  0.58906  0.33935  1.0000
  C   C2        1.0  0.48575  0.41094  0.66066  1.0000
  C   C3        1.0  0.45175  0.64424  0.25026  1.0000
  C   C4        1.0  0.54824  0.35577  0.74975  1.0000
  C   C5        1.0  0.29935  0.63864  0.22539  1.0000
  C   C6        1.0  0.70064  0.36137  0.77461  1.0000
  C   C7        1.0  0.23977  0.68793  0.14114  1.0000
  C   C8        1.0  0.76022  0.31208  0.85887  1.0000
  C   C9        1.0  0.33230  0.74701  0.08094  1.0000
  C   C10       1.0  0.66769  0.25299  0.91906  1.0000
  C   C11       1.0  0.48353  0.75379  0.10711  1.0000
  C   C12       1.0  0.51646  0.24621  0.89290  1.0000
  C   C13       1.0  0.54305  0.70178  0.19066  1.0000
  C   C14       1.0  0.45696  0.29824  0.80935  1.0000
  C   C15       1.0  0.99725  0.62213  0.16539  1.0000
  C   C16       1.0  0.00274  0.37787  0.83463  1.0000
  C   C17       1.0  0.35395  0.85334  0.93842  1.0000
  C   C18       1.0  0.64604  0.14665  0.06159  1.0000
  C   C19       1.0  0.77200  0.63677  0.66375  1.0000
  C   C20       1.0  0.22800  0.36323  0.33625  1.0000
  C   C21       1.0  0.78327  0.71136  0.75402  1.0000
  C   C22       1.0  0.21673  0.28864  0.24599  1.0000
  C   C23       1.0  0.69959  0.80272  0.75446  1.0000
  C   C24       1.0  0.30043  0.19728  0.24554  1.0000
  C   C25       1.0  0.71163  0.87539  0.83775  1.0000
  C   C26       1.0  0.28838  0.12462  0.16225  1.0000
  C   C27       1.0  0.80840  0.85618  0.92404  1.0000
  C   C28       1.0  0.19162  0.14383  0.07595  1.0000
  C   C29       1.0  0.89229  0.76617  0.92290  1.0000
  C   C30       1.0  0.10771  0.23382  0.07710  1.0000
  C   C31       1.0  0.87942  0.69435  0.83854  1.0000
  C   C32       1.0  0.12057  0.30564  0.16147  1.0000
  C   C33       1.0  0.54460  0.98957  0.75584  1.0000
  C   C34       1.0  0.45543  0.01046  0.24415  1.0000
  C   C35       1.0  0.90763  0.91230  0.09172  1.0000
  C   C36       1.0  0.09236  0.08770  0.90828  1.0000
  C   C37       1.0  0.02879  0.68285  0.44901  1.0000
  C   C38       1.0  0.97123  0.31714  0.55099  1.0000
  C   C39       1.0  0.97676  0.78739  0.41833  1.0000
  C   C40       1.0  0.02324  0.21260  0.58167  1.0000
  C   C41       1.0  0.83035  0.81192  0.42983  1.0000
  C   C42       1.0  0.16967  0.18808  0.57017  1.0000
  C   C43       1.0  0.78116  0.91148  0.40800  1.0000
  C   C44       1.0  0.21885  0.08851  0.59198  1.0000
  C   C45       1.0  0.87811  0.98795  0.37012  1.0000
  C   C46       1.0  0.12189  0.01202  0.62984  1.0000
  C   C47       1.0  0.02285  0.96223  0.35681  1.0000
  C   C48       1.0  0.97713  0.03774  0.64314  1.0000
  C   C49       1.0  0.07246  0.86287  0.38165  1.0000
  C   C50       1.0  0.92754  0.13712  0.61833  1.0000
  C   C51       1.0  0.54260  0.86644  0.45730  1.0000
  C   C52       1.0  0.45740  0.13356  0.54269  1.0000
  C   C53       1.0  0.91843  0.16293  0.31510  1.0000
  C   C54       1.0  0.08156  0.83706  0.68490  1.0000
  O   O1        1.0  0.65251  0.57593  0.34788  1.0000
  O   O2        1.0  0.34749  0.42408  0.65212  1.0000
  O   O3        1.0  0.43164  0.55676  0.40583  1.0000
  O   O4        1.0  0.56836  0.44324  0.59417  1.0000
  O   O5        1.0  0.93703  0.60930  0.46783  1.0000
  O   O6        1.0  0.06298  0.39069  0.53217  1.0000
  O   O7        1.0  0.16699  0.66967  0.45666  1.0000
  O   O8        1.0  0.83301  0.33032  0.54334  1.0000
  O   O9        1.0  0.09385  0.68365  0.10910  1.0000
  O   O10       1.0  0.90613  0.31635  0.89092  1.0000
  O   O11       1.0  0.26377  0.79263  0.00034  1.0000
  O   O12       1.0  0.73621  0.20737  0.99966  1.0000
  O   O13       1.0  0.64311  0.94380  0.42217  1.0000
  O   O14       1.0  0.35689  0.05620  0.57782  1.0000
  O   O15       1.0  0.82056  0.08289  0.34925  1.0000
  O   O16       1.0  0.17943  0.91709  0.65073  1.0000
  O   O17       1.0  0.68170  0.65190  0.58665  1.0000
  O   O18       1.0  0.31830  0.34811  0.41334  1.0000
  O   O19       1.0  0.85270  0.55582  0.66013  1.0000
  O   O20       1.0  0.14729  0.44418  0.33987  1.0000
  O   O21       1.0  0.63656  0.96623  0.84417  1.0000
  O   O22       1.0  0.36347  0.03379  0.15583  1.0000
  O   O23       1.0  0.81198  0.92969  0.00304  1.0000
  O   O24       1.0  0.18802  0.07032  0.99696  1.0000
  O   O25       1.0  0.60378  0.34379  0.39829  1.0000
  O   O26       1.0  0.39622  0.65622  0.60172  1.0000
  O   O27       1.0  0.85822  0.42576  0.33673  1.0000
  O   O28       1.0  0.14177  0.57423  0.66327  1.0000
