data_image0
_chemical_formula_structural       Ho2H62C54O28
_chemical_formula_sum              "Ho2 H62 C54 O28"
_cell_length_a       9.1342
_cell_length_b       12.6719
_cell_length_c       13.0277
_cell_angle_alpha    94.046
_cell_angle_beta     93.6638
_cell_angle_gamma    92.7015

_space_group_name_H-M_alt    "P 1"
_space_group_IT_number       1

loop_
  _space_group_symop_operation_xyz
  'x, y, z'

loop_
  _atom_site_type_symbol
  _atom_site_label
  _atom_site_symmetry_multiplicity
  _atom_site_fract_x
  _atom_site_fract_y
  _atom_site_fract_z
  _atom_site_occupancy
  Ho  Ho1       1.0  0.74757  0.48891  0.48665  1.0000
  Ho  Ho2       1.0  0.25244  0.51110  0.51336  1.0000
  H   H1        1.0  0.64561  0.28374  0.43076  1.0000
  H   H2        1.0  0.35438  0.71627  0.56924  1.0000
  H   H3        1.0  0.49524  0.33915  0.40543  1.0000
  H   H4        1.0  0.50475  0.66086  0.59457  1.0000
  H   H5        1.0  0.80843  0.46485  0.28218  1.0000
  H   H6        1.0  0.19157  0.53516  0.71783  1.0000
  H   H7        1.0  0.96722  0.43721  0.32961  1.0000
  H   H8        1.0  0.03277  0.56279  0.67039  1.0000
  H   H9        1.0  0.22832  0.59164  0.27227  1.0000
  H   H10       1.0  0.77168  0.40835  0.72772  1.0000
  H   H11       1.0  0.55773  0.80153  0.06448  1.0000
  H   H12       1.0  0.44228  0.19847  0.93551  1.0000
  H   H13       1.0  0.66157  0.70710  0.21185  1.0000
  H   H14       1.0  0.33842  0.29291  0.78815  1.0000
  H   H15       1.0  0.03125  0.53762  0.16475  1.0000
  H   H16       1.0  0.96874  0.46238  0.83525  1.0000
  H   H17       1.0  0.88852  0.61989  0.12121  1.0000
  H   H18       1.0  0.11149  0.38010  0.87878  1.0000
  H   H19       1.0  0.98790  0.65233  0.24365  1.0000
  H   H20       1.0  0.01212  0.34767  0.75633  1.0000
  H   H21       1.0  0.40976  0.92330  0.98576  1.0000
  H   H22       1.0  0.59024  0.07669  0.01423  1.0000
  H   H23       1.0  0.28229  0.87997  0.87940  1.0000
  H   H24       1.0  0.71773  0.12003  0.12059  1.0000
  H   H25       1.0  0.43946  0.80444  0.90637  1.0000
  H   H26       1.0  0.56056  0.19557  0.09362  1.0000
  H   H27       1.0  0.62638  0.81241  0.68805  1.0000
  H   H28       1.0  0.37361  0.18760  0.31195  1.0000
  H   H29       1.0  0.96925  0.75506  0.98843  1.0000
  H   H30       1.0  0.03074  0.24494  0.01157  1.0000
  H   H31       1.0  0.94524  0.62564  0.83757  1.0000
  H   H32       1.0  0.05475  0.37437  0.16242  1.0000
  H   H33       1.0  0.61155  0.99261  0.68867  1.0000
  H   H34       1.0  0.38846  0.00739  0.31133  1.0000
  H   H35       1.0  0.49986  0.06325  0.77551  1.0000
  H   H36       1.0  0.50013  0.93675  0.22449  1.0000
  H   H37       1.0  0.45711  0.92557  0.73873  1.0000
  H   H38       1.0  0.54289  0.07443  0.26126  1.0000
  H   H39       1.0  0.87423  0.84113  0.12946  1.0000
  H   H40       1.0  0.12577  0.15887  0.87055  1.0000
  H   H41       1.0  0.89284  0.98226  0.15028  1.0000
  H   H42       1.0  0.10716  0.01774  0.84972  1.0000
  H   H43       1.0  0.02210  0.91263  0.07616  1.0000
  H   H44       1.0  0.97790  0.08737  0.92385  1.0000
  H   H45       1.0  0.75732  0.75080  0.45696  1.0000
  H   H46       1.0  0.24269  0.24920  0.54306  1.0000
  H   H47       1.0  0.10390  0.01681  0.32760  1.0000
  H   H48       1.0  0.89611  0.98319  0.67240  1.0000
  H   H49       1.0  0.18977  0.84143  0.37314  1.0000
  H   H50       1.0  0.81024  0.15857  0.62686  1.0000
  H   H51       1.0  0.51525  0.79941  0.39904  1.0000
  H   H52       1.0  0.48476  0.20060  0.60096  1.0000
  H   H53       1.0  0.44413  0.90836  0.47345  1.0000
  H   H54       1.0  0.55588  0.09164  0.52655  1.0000
  H   H55       1.0  0.58761  0.83427  0.52874  1.0000
  H   H56       1.0  0.41239  0.16572  0.47126  1.0000
  H   H57       1.0  0.01636  0.17705  0.37289  1.0000
  H   H58       1.0  0.98364  0.82294  0.62711  1.0000
  H   H59       1.0  0.86073  0.22926  0.30676  1.0000
  H   H60       1.0  0.13926  0.77073  0.69324  1.0000
  H   H61       1.0  0.96766  0.13385  0.24069  1.0000
  H   H62       1.0  0.03234  0.86614  0.75931  1.0000
  C   C1        1.0  0.51281  0.58761  0.33885  1.0000
  C   C2        1.0  0.48717  0.41240  0.66116  1.0000
  C   C3        1.0  0.45137  0.64320  0.25035  1.0000
  C   C4        1.0  0.54864  0.35680  0.74964  1.0000
  C   C5        1.0  0.29865  0.63758  0.22589  1.0000
  C   C6        1.0  0.70136  0.36242  0.77410  1.0000
  C   C7        1.0  0.24007  0.68745  0.14238  1.0000
  C   C8        1.0  0.75992  0.31254  0.85759  1.0000
  C   C9        1.0  0.33382  0.74759  0.08293  1.0000
  C   C10       1.0  0.66617  0.25239  0.91705  1.0000
  C   C11       1.0  0.48528  0.75473  0.10894  1.0000
  C   C12       1.0  0.51471  0.24527  0.89106  1.0000
  C   C13       1.0  0.54376  0.70170  0.19138  1.0000
  C   C14       1.0  0.45624  0.29830  0.80861  1.0000
  C   C15       1.0  0.99585  0.61934  0.16394  1.0000
  C   C16       1.0  0.00415  0.38065  0.83605  1.0000
  C   C17       1.0  0.35668  0.85384  0.94061  1.0000
  C   C18       1.0  0.64333  0.14616  0.05938  1.0000
  C   C19       1.0  0.77199  0.63472  0.66176  1.0000
  C   C20       1.0  0.22800  0.36528  0.33825  1.0000
  C   C21       1.0  0.78309  0.71005  0.75354  1.0000
  C   C22       1.0  0.21690  0.28996  0.24646  1.0000
  C   C23       1.0  0.70032  0.80104  0.75453  1.0000
  C   C24       1.0  0.29967  0.19896  0.24547  1.0000
  C   C25       1.0  0.71217  0.87496  0.83893  1.0000
  C   C26       1.0  0.28781  0.12503  0.16107  1.0000
  C   C27       1.0  0.80812  0.85712  0.92586  1.0000
  C   C28       1.0  0.19188  0.14289  0.07414  1.0000
  C   C29       1.0  0.89129  0.76736  0.92421  1.0000
  C   C30       1.0  0.10871  0.23264  0.07579  1.0000
  C   C31       1.0  0.87849  0.69443  0.83856  1.0000
  C   C32       1.0  0.12151  0.30558  0.16143  1.0000
  C   C33       1.0  0.54625  0.98687  0.75646  1.0000
  C   C34       1.0  0.45375  0.01314  0.24355  1.0000
  C   C35       1.0  0.90677  0.91490  0.09531  1.0000
  C   C36       1.0  0.09323  0.08510  0.90469  1.0000
  C   C37       1.0  0.02941  0.68212  0.44906  1.0000
  C   C38       1.0  0.97060  0.31787  0.55094  1.0000
  C   C39       1.0  0.97859  0.78580  0.41805  1.0000
  C   C40       1.0  0.02142  0.21420  0.58196  1.0000
  C   C41       1.0  0.83122  0.81012  0.42856  1.0000
  C   C42       1.0  0.16879  0.18988  0.57145  1.0000
  C   C43       1.0  0.78327  0.90902  0.40684  1.0000
  C   C44       1.0  0.21674  0.09099  0.59318  1.0000
  C   C45       1.0  0.88212  0.98485  0.36930  1.0000
  C   C46       1.0  0.11789  0.01515  0.63072  1.0000
  C   C47       1.0  0.02765  0.95921  0.35665  1.0000
  C   C48       1.0  0.97237  0.04079  0.64337  1.0000
  C   C49       1.0  0.07610  0.86081  0.38192  1.0000
  C   C50       1.0  0.92392  0.13919  0.61808  1.0000
  C   C51       1.0  0.54255  0.86562  0.45740  1.0000
  C   C52       1.0  0.45746  0.13438  0.54260  1.0000
  C   C53       1.0  0.92423  0.15890  0.31492  1.0000
  C   C54       1.0  0.07577  0.84109  0.68508  1.0000
  O   O1        1.0  0.65057  0.57201  0.34515  1.0000
  O   O2        1.0  0.34941  0.42801  0.65487  1.0000
  O   O3        1.0  0.42923  0.55766  0.40706  1.0000
  O   O4        1.0  0.57076  0.44234  0.59295  1.0000
  O   O5        1.0  0.93596  0.60763  0.46338  1.0000
  O   O6        1.0  0.06405  0.39236  0.53663  1.0000
  O   O7        1.0  0.16777  0.67061  0.46135  1.0000
  O   O8        1.0  0.83224  0.32938  0.53866  1.0000
  O   O9        1.0  0.09417  0.68305  0.11002  1.0000
  O   O10       1.0  0.90585  0.31694  0.88996  1.0000
  O   O11       1.0  0.26578  0.79351  0.00316  1.0000
  O   O12       1.0  0.73421  0.20648  0.99683  1.0000
  O   O13       1.0  0.64456  0.94136  0.42079  1.0000
  O   O14       1.0  0.35545  0.05864  0.57923  1.0000
  O   O15       1.0  0.82510  0.07872  0.34790  1.0000
  O   O16       1.0  0.17491  0.92128  0.65211  1.0000
  O   O17       1.0  0.68262  0.64891  0.58411  1.0000
  O   O18       1.0  0.31737  0.35109  0.41589  1.0000
  O   O19       1.0  0.85215  0.55399  0.65720  1.0000
  O   O20       1.0  0.14784  0.44601  0.34280  1.0000
  O   O21       1.0  0.63784  0.96571  0.84547  1.0000
  O   O22       1.0  0.36214  0.03429  0.15453  1.0000
  O   O23       1.0  0.81179  0.93146  0.00628  1.0000
  O   O24       1.0  0.18820  0.06855  0.99372  1.0000
  O   O25       1.0  0.60286  0.34140  0.39516  1.0000
  O   O26       1.0  0.39712  0.65861  0.60485  1.0000
  O   O27       1.0  0.85890  0.42278  0.33199  1.0000
  O   O28       1.0  0.14110  0.57723  0.66800  1.0000
