data_image0
_chemical_formula_structural       Cd2H56C44S2N12O16
_chemical_formula_sum              "Cd2 H56 C44 S2 N12 O16"
_cell_length_a       9.97005
_cell_length_b       11.8934
_cell_length_c       12.1187
_cell_angle_alpha    108.286
_cell_angle_beta     94.2788
_cell_angle_gamma    89.5636

_space_group_name_H-M_alt    "P 1"
_space_group_IT_number       1

loop_
  _space_group_symop_operation_xyz
  'x, y, z'

loop_
  _atom_site_type_symbol
  _atom_site_label
  _atom_site_symmetry_multiplicity
  _atom_site_fract_x
  _atom_site_fract_y
  _atom_site_fract_z
  _atom_site_occupancy
  Cd  Cd1       1.0  0.58250  0.96037  0.87098  1.0000
  Cd  Cd2       1.0  0.41751  0.03963  0.12902  1.0000
  H   H1        1.0  0.33119  0.92715  0.67665  1.0000
  H   H2        1.0  0.66881  0.07285  0.32334  1.0000
  H   H3        1.0  0.89572  0.97449  0.90851  1.0000
  H   H4        1.0  0.10428  0.02552  0.09148  1.0000
  H   H5        1.0  0.52822  0.90077  0.44529  1.0000
  H   H6        1.0  0.47179  0.09923  0.55470  1.0000
  H   H7        1.0  0.54878  0.75699  0.45199  1.0000
  H   H8        1.0  0.45122  0.24301  0.54800  1.0000
  H   H9        1.0  0.78236  0.75207  0.40805  1.0000
  H   H10       1.0  0.21765  0.24793  0.59195  1.0000
  H   H11       1.0  0.70504  0.83321  0.32160  1.0000
  H   H12       1.0  0.29496  0.16679  0.67839  1.0000
  H   H13       1.0  0.77271  0.02333  0.48202  1.0000
  H   H14       1.0  0.22729  0.97667  0.51797  1.0000
  H   H15       1.0  0.91143  0.93930  0.42353  1.0000
  H   H16       1.0  0.08858  0.06071  0.57646  1.0000
  H   H17       1.0  0.94249  0.86119  0.58970  1.0000
  H   H18       1.0  0.05751  0.13881  0.41030  1.0000
  H   H19       1.0  0.93033  0.01496  0.64694  1.0000
  H   H20       1.0  0.06967  0.98505  0.35305  1.0000
  H   H21       1.0  0.37498  0.73795  0.82757  1.0000
  H   H22       1.0  0.62503  0.26205  0.17243  1.0000
  H   H23       1.0  0.36935  0.52850  0.81677  1.0000
  H   H24       1.0  0.63065  0.47150  0.18323  1.0000
  H   H25       1.0  0.80416  0.55004  0.88309  1.0000
  H   H26       1.0  0.19584  0.44996  0.11691  1.0000
  H   H27       1.0  0.79146  0.75799  0.88646  1.0000
  H   H28       1.0  0.20855  0.24201  0.11353  1.0000
  H   H29       1.0  0.36924  0.37488  0.85289  1.0000
  H   H30       1.0  0.63076  0.62512  0.14711  1.0000
  H   H31       1.0  0.37995  0.17188  0.86654  1.0000
  H   H32       1.0  0.62005  0.82812  0.13345  1.0000
  H   H33       1.0  0.79648  0.17512  0.88149  1.0000
  H   H34       1.0  0.20352  0.82488  0.11853  1.0000
  H   H35       1.0  0.80473  0.37527  0.86195  1.0000
  H   H36       1.0  0.19528  0.62473  0.13807  1.0000
  H   H37       1.0  0.00793  0.23251  0.72579  1.0000
  H   H38       1.0  0.99207  0.76749  0.27421  1.0000
  H   H39       1.0  0.06172  0.76051  0.76455  1.0000
  H   H40       1.0  0.93828  0.23949  0.23545  1.0000
  H   H41       1.0  0.74610  0.26567  0.56559  1.0000
  H   H42       1.0  0.25389  0.73433  0.43441  1.0000
  H   H43       1.0  0.83742  0.28527  0.45456  1.0000
  H   H44       1.0  0.16257  0.71474  0.54545  1.0000
  H   H45       1.0  0.60530  0.33971  0.42215  1.0000
  H   H46       1.0  0.39468  0.66030  0.57785  1.0000
  H   H47       1.0  0.60317  0.43790  0.56607  1.0000
  H   H48       1.0  0.39681  0.56211  0.43394  1.0000
  H   H49       1.0  0.64039  0.54806  0.42301  1.0000
  H   H50       1.0  0.35960  0.45195  0.57699  1.0000
  H   H51       1.0  0.78848  0.46653  0.38480  1.0000
  H   H52       1.0  0.21151  0.53347  0.61521  1.0000
  H   H53       1.0  0.73179  0.64799  0.61871  1.0000
  H   H54       1.0  0.26821  0.35202  0.38130  1.0000
  H   H55       1.0  0.86040  0.65318  0.52957  1.0000
  H   H56       1.0  0.13959  0.34683  0.47043  1.0000
  C   C1        1.0  0.62204  0.89322  0.60461  1.0000
  C   C2        1.0  0.37796  0.10678  0.39539  1.0000
  C   C3        1.0  0.60097  0.84354  0.47411  1.0000
  C   C4        1.0  0.39903  0.15647  0.52589  1.0000
  C   C5        1.0  0.73057  0.83519  0.41178  1.0000
  C   C6        1.0  0.26944  0.16482  0.58821  1.0000
  C   C7        1.0  0.82503  0.93979  0.47416  1.0000
  C   C8        1.0  0.17496  0.06021  0.52583  1.0000
  C   C9        1.0  0.87298  0.93501  0.59477  1.0000
  C   C10       1.0  0.12703  0.06499  0.40523  1.0000
  C   C11       1.0  0.75885  0.92118  0.66281  1.0000
  C   C12       1.0  0.24115  0.07882  0.33719  1.0000
  C   C13       1.0  0.46860  0.69253  0.83741  1.0000
  C   C14       1.0  0.53140  0.30747  0.16259  1.0000
  C   C15       1.0  0.46636  0.57447  0.83330  1.0000
  C   C16       1.0  0.53364  0.42553  0.16670  1.0000
  C   C17       1.0  0.58667  0.51865  0.85200  1.0000
  C   C18       1.0  0.41333  0.48135  0.14800  1.0000
  C   C19       1.0  0.70596  0.58636  0.86976  1.0000
  C   C20       1.0  0.29404  0.41364  0.13024  1.0000
  C   C21       1.0  0.70019  0.70369  0.87145  1.0000
  C   C22       1.0  0.29981  0.29631  0.12856  1.0000
  C   C23       1.0  0.58708  0.39573  0.85711  1.0000
  C   C24       1.0  0.41292  0.60427  0.14289  1.0000
  C   C25       1.0  0.46709  0.33482  0.85789  1.0000
  C   C26       1.0  0.53291  0.66518  0.14211  1.0000
  C   C27       1.0  0.47197  0.22106  0.86653  1.0000
  C   C28       1.0  0.52803  0.77894  0.13347  1.0000
  C   C29       1.0  0.70367  0.22233  0.87433  1.0000
  C   C30       1.0  0.29633  0.77767  0.12568  1.0000
  C   C31       1.0  0.70750  0.33572  0.86480  1.0000
  C   C32       1.0  0.29250  0.66427  0.13520  1.0000
  C   C33       1.0  0.88512  0.41140  0.62097  1.0000
  C   C34       1.0  0.11487  0.58861  0.37903  1.0000
  C   C35       1.0  0.78373  0.33370  0.53149  1.0000
  C   C36       1.0  0.21626  0.66630  0.46851  1.0000
  C   C37       1.0  0.66793  0.40169  0.49346  1.0000
  C   C38       1.0  0.33206  0.59831  0.50654  1.0000
  C   C39       1.0  0.72260  0.50241  0.45636  1.0000
  C   C40       1.0  0.27739  0.49759  0.54365  1.0000
  C   C41       1.0  0.80163  0.59160  0.55894  1.0000
  C   C42       1.0  0.19836  0.40840  0.44106  1.0000
  C   C43       1.0  0.89721  0.53829  0.63072  1.0000
  C   C44       1.0  0.10278  0.46171  0.36928  1.0000
  S   S1        1.0  0.22562  0.95804  0.87797  1.0000
  S   S2        1.0  0.77439  0.04196  0.12203  1.0000
  N   N1        1.0  0.52202  0.91915  0.67080  1.0000
  N   N2        1.0  0.47799  0.08085  0.32920  1.0000
  N   N3        1.0  0.77458  0.93640  0.77394  1.0000
  N   N4        1.0  0.22542  0.06360  0.22606  1.0000
  N   N5        1.0  0.58347  0.75680  0.85725  1.0000
  N   N6        1.0  0.41653  0.24320  0.14275  1.0000
  N   N7        1.0  0.58810  0.16530  0.87521  1.0000
  N   N8        1.0  0.41191  0.83470  0.12480  1.0000
  N   N9        1.0  0.96392  0.37221  0.69064  1.0000
  N   N10       1.0  0.03607  0.62780  0.30936  1.0000
  N   N11       1.0  0.99041  0.60217  0.70423  1.0000
  N   N12       1.0  0.00958  0.39783  0.29577  1.0000
  O   O1        1.0  0.39661  0.89067  0.61426  1.0000
  O   O2        1.0  0.60339  0.10933  0.38574  1.0000
  O   O3        1.0  0.90075  0.97285  0.82500  1.0000
  O   O4        1.0  0.09926  0.02715  0.17499  1.0000
  O   O5        1.0  0.37135  0.97238  0.93267  1.0000
  O   O6        1.0  0.62866  0.02761  0.06732  1.0000
  O   O7        1.0  0.18591  0.83261  0.85362  1.0000
  O   O8        1.0  0.81409  0.16739  0.14637  1.0000
  O   O9        1.0  0.14384  0.03991  0.96455  1.0000
  O   O10       1.0  0.85617  0.96009  0.03545  1.0000
  O   O11       1.0  0.22661  0.99163  0.76979  1.0000
  O   O12       1.0  0.77340  0.00837  0.23020  1.0000
  O   O13       1.0  0.94326  0.24846  0.66832  1.0000
  O   O14       1.0  0.05673  0.75154  0.33168  1.0000
  O   O15       1.0  0.98585  0.71939  0.70680  1.0000
  O   O16       1.0  0.01415  0.28062  0.29320  1.0000
