data_image0
_chemical_formula_structural       V8Ag4H56C40N16O22
_chemical_formula_sum              "V8 Ag4 H56 C40 N16 O22"
_cell_length_a       11.4326
_cell_length_b       11.442
_cell_length_c       13.403
_cell_angle_alpha    99.9738
_cell_angle_beta     99.982
_cell_angle_gamma    110.444

_space_group_name_H-M_alt    "P 1"
_space_group_IT_number       1

loop_
  _space_group_symop_operation_xyz
  'x, y, z'

loop_
  _atom_site_type_symbol
  _atom_site_label
  _atom_site_symmetry_multiplicity
  _atom_site_fract_x
  _atom_site_fract_y
  _atom_site_fract_z
  _atom_site_occupancy
  V   V1        1.0  0.69509  0.04689  0.92959  1.0000
  V   V2        1.0  0.95312  0.30495  0.57045  1.0000
  V   V3        1.0  0.30491  0.95311  0.07041  1.0000
  V   V4        1.0  0.04688  0.69505  0.42955  1.0000
  V   V5        1.0  0.59960  0.21139  0.12238  1.0000
  V   V6        1.0  0.78860  0.40042  0.37762  1.0000
  V   V7        1.0  0.40040  0.78861  0.87762  1.0000
  V   V8        1.0  0.21140  0.59958  0.62238  1.0000
  Ag  Ag1       1.0  0.98069  0.01352  0.12048  1.0000
  Ag  Ag2       1.0  0.98641  0.01931  0.37960  1.0000
  Ag  Ag3       1.0  0.01931  0.98648  0.87952  1.0000
  Ag  Ag4       1.0  0.01359  0.98069  0.62040  1.0000
  H   H1        1.0  0.75473  0.72659  0.31742  1.0000
  H   H2        1.0  0.27357  0.24542  0.18265  1.0000
  H   H3        1.0  0.24527  0.27341  0.68258  1.0000
  H   H4        1.0  0.72643  0.75458  0.81735  1.0000
  H   H5        1.0  0.74183  0.07523  0.26431  1.0000
  H   H6        1.0  0.92452  0.25809  0.23568  1.0000
  H   H7        1.0  0.25817  0.92477  0.73568  1.0000
  H   H8        1.0  0.07548  0.74191  0.76432  1.0000
  H   H9        1.0  0.51451  0.87183  0.14552  1.0000
  H   H10       1.0  0.12804  0.48532  0.35437  1.0000
  H   H11       1.0  0.48549  0.12817  0.85448  1.0000
  H   H12       1.0  0.87196  0.51468  0.64563  1.0000
  H   H13       1.0  0.50011  0.61455  0.08424  1.0000
  H   H14       1.0  0.38552  0.49992  0.41574  1.0000
  H   H15       1.0  0.49989  0.38545  0.91576  1.0000
  H   H16       1.0  0.61448  0.50008  0.58426  1.0000
  H   H17       1.0  0.54615  0.56402  0.19736  1.0000
  H   H18       1.0  0.43625  0.45406  0.30270  1.0000
  H   H19       1.0  0.45385  0.43598  0.80264  1.0000
  H   H20       1.0  0.56375  0.54594  0.69730  1.0000
  H   H21       1.0  0.30531  0.64809  0.32887  1.0000
  H   H22       1.0  0.35173  0.69457  0.17113  1.0000
  H   H23       1.0  0.69469  0.35191  0.67113  1.0000
  H   H24       1.0  0.64827  0.30543  0.82887  1.0000
  H   H25       1.0  0.47378  0.69463  0.35833  1.0000
  H   H26       1.0  0.30525  0.52626  0.14165  1.0000
  H   H27       1.0  0.52622  0.30537  0.64167  1.0000
  H   H28       1.0  0.69475  0.47374  0.85835  1.0000
  H   H29       1.0  0.21376  0.92871  0.33584  1.0000
  H   H30       1.0  0.07147  0.78619  0.16424  1.0000
  H   H31       1.0  0.78624  0.07129  0.66417  1.0000
  H   H32       1.0  0.92854  0.21381  0.83576  1.0000
  H   H33       1.0  0.24736  0.30285  0.47842  1.0000
  H   H34       1.0  0.69698  0.75252  0.02152  1.0000
  H   H35       1.0  0.75264  0.69715  0.52157  1.0000
  H   H36       1.0  0.30302  0.24747  0.97848  1.0000
  H   H37       1.0  0.48933  0.31201  0.45502  1.0000
  H   H38       1.0  0.68788  0.51079  0.04492  1.0000
  H   H39       1.0  0.51067  0.68799  0.54498  1.0000
  H   H40       1.0  0.31212  0.48921  0.95508  1.0000
  H   H41       1.0  0.43543  0.97186  0.31359  1.0000
  H   H42       1.0  0.02825  0.56457  0.18641  1.0000
  H   H43       1.0  0.56457  0.02814  0.68641  1.0000
  H   H44       1.0  0.97175  0.43543  0.81359  1.0000
  H   H45       1.0  0.55044  0.13231  0.34407  1.0000
  H   H46       1.0  0.86762  0.44975  0.15594  1.0000
  H   H47       1.0  0.44956  0.86769  0.65593  1.0000
  H   H48       1.0  0.13238  0.55025  0.84406  1.0000
  H   H49       1.0  0.40015  0.85956  0.46654  1.0000
  H   H50       1.0  0.14055  0.59979  0.03341  1.0000
  H   H51       1.0  0.59985  0.14044  0.53346  1.0000
  H   H52       1.0  0.85946  0.40021  0.96659  1.0000
  H   H53       1.0  0.37944  0.99027  0.54082  1.0000
  H   H54       1.0  0.00965  0.62037  0.95911  1.0000
  H   H55       1.0  0.62056  0.00973  0.45918  1.0000
  H   H56       1.0  0.99035  0.37963  0.04089  1.0000
  C   C1        1.0  0.72133  0.79505  0.28817  1.0000
  C   C2        1.0  0.20497  0.27869  0.21185  1.0000
  C   C3        1.0  0.27867  0.20495  0.71183  1.0000
  C   C4        1.0  0.79503  0.72131  0.78815  1.0000
  C   C5        1.0  0.71075  0.97267  0.25768  1.0000
  C   C6        1.0  0.02716  0.28915  0.24230  1.0000
  C   C7        1.0  0.28925  0.02733  0.74232  1.0000
  C   C8        1.0  0.97284  0.71085  0.75770  1.0000
  C   C9        1.0  0.59850  0.87351  0.19825  1.0000
  C   C10       1.0  0.12637  0.40139  0.30166  1.0000
  C   C11       1.0  0.40150  0.12649  0.80175  1.0000
  C   C12       1.0  0.87363  0.59861  0.69834  1.0000
  C   C13       1.0  0.50886  0.63190  0.16891  1.0000
  C   C14       1.0  0.36817  0.49115  0.33107  1.0000
  C   C15       1.0  0.49114  0.36810  0.83109  1.0000
  C   C16       1.0  0.63183  0.50885  0.66893  1.0000
  C   C17       1.0  0.37944  0.61763  0.19264  1.0000
  C   C18       1.0  0.38233  0.62047  0.30735  1.0000
  C   C19       1.0  0.62056  0.38237  0.80736  1.0000
  C   C20       1.0  0.61767  0.37953  0.69265  1.0000
  C   C21       1.0  0.25278  0.03209  0.37010  1.0000
  C   C22       1.0  0.96801  0.74720  0.12995  1.0000
  C   C23       1.0  0.74722  0.96791  0.62990  1.0000
  C   C24       1.0  0.03199  0.25280  0.87005  1.0000
  C   C25       1.0  0.27605  0.22671  0.44582  1.0000
  C   C26       1.0  0.77322  0.72392  0.05417  1.0000
  C   C27       1.0  0.72395  0.77329  0.55418  1.0000
  C   C28       1.0  0.22677  0.27608  0.94583  1.0000
  C   C29       1.0  0.39571  0.23300  0.43570  1.0000
  C   C30       1.0  0.76695  0.60434  0.06425  1.0000
  C   C31       1.0  0.60429  0.76700  0.56430  1.0000
  C   C32       1.0  0.23305  0.39566  0.93575  1.0000
  C   C33       1.0  0.48089  0.06333  0.37419  1.0000
  C   C34       1.0  0.93670  0.51920  0.12582  1.0000
  C   C35       1.0  0.51911  0.93667  0.62581  1.0000
  C   C36       1.0  0.06330  0.48080  0.87419  1.0000
  C   C37       1.0  0.54699  0.04604  0.47650  1.0000
  C   C38       1.0  0.95395  0.45308  0.02353  1.0000
  C   C39       1.0  0.45301  0.95396  0.52350  1.0000
  C   C40       1.0  0.04605  0.54692  0.97647  1.0000
  N   N1        1.0  0.78644  0.92255  0.31351  1.0000
  N   N2        1.0  0.07738  0.21351  0.18655  1.0000
  N   N3        1.0  0.21355  0.07745  0.68648  1.0000
  N   N4        1.0  0.92262  0.78649  0.81345  1.0000
  N   N5        1.0  0.60653  0.76186  0.21854  1.0000
  N   N6        1.0  0.23814  0.39346  0.28140  1.0000
  N   N7        1.0  0.39347  0.23814  0.78146  1.0000
  N   N8        1.0  0.76186  0.60654  0.71860  1.0000
  N   N9        1.0  0.18813  0.10101  0.40448  1.0000
  N   N10       1.0  0.89902  0.81181  0.09557  1.0000
  N   N11       1.0  0.81187  0.89899  0.59552  1.0000
  N   N12       1.0  0.10098  0.18819  0.90443  1.0000
  N   N13       1.0  0.37890  0.10919  0.38742  1.0000
  N   N14       1.0  0.89085  0.62115  0.11257  1.0000
  N   N15       1.0  0.62110  0.89081  0.61258  1.0000
  N   N16       1.0  0.10915  0.37885  0.88743  1.0000
  O   O1        1.0  0.81185  0.99579  0.95450  1.0000
  O   O2        1.0  0.00433  0.18832  0.54554  1.0000
  O   O3        1.0  0.18815  0.00421  0.04551  1.0000
  O   O4        1.0  0.99567  0.81168  0.45446  1.0000
  O   O5        1.0  0.72426  0.13945  0.84880  1.0000
  O   O6        1.0  0.86046  0.27570  0.65119  1.0000
  O   O7        1.0  0.27574  0.86055  0.15120  1.0000
  O   O8        1.0  0.13955  0.72430  0.34881  1.0000
  O   O9        1.0  0.68105  0.13778  0.05164  1.0000
  O   O10       1.0  0.86226  0.31903  0.44837  1.0000
  O   O11       1.0  0.31896  0.86222  0.94836  1.0000
  O   O12       1.0  0.13774  0.68097  0.55163  1.0000
  O   O13       1.0  0.70420  0.29582  0.25001  1.0000
  O   O14       1.0  0.29580  0.70418  0.75000  1.0000
  O   O15       1.0  0.90884  0.53955  0.36790  1.0000
  O   O16       1.0  0.46043  0.09116  0.13211  1.0000
  O   O17       1.0  0.09116  0.46045  0.63211  1.0000
  O   O18       1.0  0.53957  0.90884  0.86789  1.0000
  O   O19       1.0  0.68806  0.43817  0.43511  1.0000
  O   O20       1.0  0.56174  0.31180  0.06485  1.0000
  O   O21       1.0  0.31194  0.56183  0.56489  1.0000
  O   O22       1.0  0.43826  0.68819  0.93515  1.0000
