data_image0
_chemical_formula_structural       Cd2H32C36S6N8O8
_chemical_formula_sum              "Cd2 H32 C36 S6 N8 O8"
_cell_length_a       9.04964
_cell_length_b       10.683
_cell_length_c       11.5318
_cell_angle_alpha    78.1894
_cell_angle_beta     86.5915
_cell_angle_gamma    77.3136

_space_group_name_H-M_alt    "P 1"
_space_group_IT_number       1

loop_
  _space_group_symop_operation_xyz
  'x, y, z'

loop_
  _atom_site_type_symbol
  _atom_site_label
  _atom_site_symmetry_multiplicity
  _atom_site_fract_x
  _atom_site_fract_y
  _atom_site_fract_z
  _atom_site_occupancy
  Cd  Cd1       1.0  0.62321  0.90852  0.88957  1.0000
  Cd  Cd2       1.0  0.37680  0.09148  0.11043  1.0000
  H   H1        1.0  0.95509  0.52835  0.78972  1.0000
  H   H2        1.0  0.04492  0.47165  0.21028  1.0000
  H   H3        1.0  0.03830  0.65636  0.71364  1.0000
  H   H4        1.0  0.96170  0.34364  0.28636  1.0000
  H   H5        1.0  0.91117  0.16526  0.08241  1.0000
  H   H6        1.0  0.08884  0.83474  0.91759  1.0000
  H   H7        1.0  0.98991  0.99694  0.11283  1.0000
  H   H8        1.0  0.01009  0.00305  0.88718  1.0000
  H   H9        1.0  0.75023  0.77448  0.14390  1.0000
  H   H10       1.0  0.24977  0.22552  0.85610  1.0000
  H   H11       1.0  0.73457  0.59453  0.30899  1.0000
  H   H12       1.0  0.26543  0.40547  0.69100  1.0000
  H   H13       1.0  0.37091  0.51345  0.12758  1.0000
  H   H14       1.0  0.62909  0.48655  0.87242  1.0000
  H   H15       1.0  0.40284  0.70123  0.96600  1.0000
  H   H16       1.0  0.59716  0.29877  0.03400  1.0000
  H   H17       1.0  0.42917  0.46416  0.38911  1.0000
  H   H18       1.0  0.57082  0.53583  0.61089  1.0000
  H   H19       1.0  0.49232  0.35052  0.29899  1.0000
  H   H20       1.0  0.50768  0.64948  0.70101  1.0000
  H   H21       1.0  0.70547  0.44758  0.44453  1.0000
  H   H22       1.0  0.29453  0.55242  0.55547  1.0000
  H   H23       1.0  0.75963  0.32509  0.36017  1.0000
  H   H24       1.0  0.24037  0.67491  0.63983  1.0000
  H   H25       1.0  0.47051  0.19142  0.45424  1.0000
  H   H26       1.0  0.52949  0.80858  0.54576  1.0000
  H   H27       1.0  0.46242  0.02260  0.63905  1.0000
  H   H28       1.0  0.53758  0.97740  0.36095  1.0000
  H   H29       1.0  0.79185  0.14159  0.79717  1.0000
  H   H30       1.0  0.20814  0.85842  0.20283  1.0000
  H   H31       1.0  0.81562  0.31494  0.62000  1.0000
  H   H32       1.0  0.18438  0.68506  0.38000  1.0000
  C   C1        1.0  0.81495  0.72041  0.78446  1.0000
  C   C2        1.0  0.18505  0.27960  0.21554  1.0000
  C   C3        1.0  0.93110  0.62301  0.72727  1.0000
  C   C4        1.0  0.06890  0.37699  0.27273  1.0000
  C   C5        1.0  0.88253  0.72162  0.48569  1.0000
  C   C6        1.0  0.11748  0.27838  0.51432  1.0000
  C   C7        1.0  0.88159  0.92620  0.35232  1.0000
  C   C8        1.0  0.11841  0.07380  0.64768  1.0000
  C   C9        1.0  0.89074  0.07045  0.13099  1.0000
  C   C10       1.0  0.10926  0.92954  0.86901  1.0000
  C   C11       1.0  0.74649  0.04311  0.08769  1.0000
  C   C12       1.0  0.25351  0.95689  0.91231  1.0000
  C   C13       1.0  0.66669  0.71513  0.14268  1.0000
  C   C14       1.0  0.33331  0.28487  0.85732  1.0000
  C   C15       1.0  0.65642  0.61212  0.23637  1.0000
  C   C16       1.0  0.34358  0.38788  0.76363  1.0000
  C   C17       1.0  0.54826  0.53678  0.23495  1.0000
  C   C18       1.0  0.45173  0.46322  0.76505  1.0000
  C   C19       1.0  0.45542  0.56999  0.13515  1.0000
  C   C20       1.0  0.54458  0.43001  0.86484  1.0000
  C   C21       1.0  0.47254  0.67429  0.04491  1.0000
  C   C22       1.0  0.52746  0.32572  0.95509  1.0000
  C   C23       1.0  0.52756  0.42684  0.33517  1.0000
  C   C24       1.0  0.47243  0.57316  0.66482  1.0000
  C   C25       1.0  0.66551  0.37005  0.41380  1.0000
  C   C26       1.0  0.33448  0.62995  0.58620  1.0000
  C   C27       1.0  0.64582  0.26778  0.52107  1.0000
  C   C28       1.0  0.35418  0.73222  0.47893  1.0000
  C   C29       1.0  0.54474  0.18399  0.52766  1.0000
  C   C30       1.0  0.45526  0.81601  0.47234  1.0000
  C   C31       1.0  0.53968  0.08936  0.63004  1.0000
  C   C32       1.0  0.46031  0.91064  0.36996  1.0000
  C   C33       1.0  0.72406  0.15546  0.71872  1.0000
  C   C34       1.0  0.27593  0.84454  0.28128  1.0000
  C   C35       1.0  0.73581  0.25197  0.61995  1.0000
  C   C36       1.0  0.26419  0.74803  0.38005  1.0000
  S   S1        1.0  0.87882  0.58267  0.59326  1.0000
  S   S2        1.0  0.12118  0.41733  0.40674  1.0000
  S   S3        1.0  0.86537  0.88216  0.50616  1.0000
  S   S4        1.0  0.13463  0.11784  0.49384  1.0000
  S   S5        1.0  0.88709  0.08521  0.28398  1.0000
  S   S6        1.0  0.11291  0.91478  0.71603  1.0000
  N   N1        1.0  0.89479  0.71171  0.37328  1.0000
  N   N2        1.0  0.10521  0.28829  0.62672  1.0000
  N   N3        1.0  0.89273  0.82794  0.29706  1.0000
  N   N4        1.0  0.10726  0.17206  0.70294  1.0000
  N   N5        1.0  0.57604  0.74682  0.04829  1.0000
  N   N6        1.0  0.42395  0.25318  0.95171  1.0000
  N   N7        1.0  0.62772  0.07484  0.72405  1.0000
  N   N8        1.0  0.37228  0.92516  0.27595  1.0000
  O   O1        1.0  0.86393  0.75612  0.87070  1.0000
  O   O2        1.0  0.13607  0.24388  0.12930  1.0000
  O   O3        1.0  0.68134  0.76005  0.74498  1.0000
  O   O4        1.0  0.31866  0.23995  0.25501  1.0000
  O   O5        1.0  0.75999  0.01315  0.98577  1.0000
  O   O6        1.0  0.24001  0.98685  0.01422  1.0000
  O   O7        1.0  0.62914  0.05434  0.15282  1.0000
  O   O8        1.0  0.37087  0.94566  0.84718  1.0000
