data_image0
_chemical_formula_structural       Zn2H32C36S6N8O8
_chemical_formula_sum              "Zn2 H32 C36 S6 N8 O8"
_cell_length_a       8.65439
_cell_length_b       11.2708
_cell_length_c       11.6274
_cell_angle_alpha    72.1297
_cell_angle_beta     87.306
_cell_angle_gamma    76.7583

_space_group_name_H-M_alt    "P 1"
_space_group_IT_number       1

loop_
  _space_group_symop_operation_xyz
  'x, y, z'

loop_
  _atom_site_type_symbol
  _atom_site_label
  _atom_site_symmetry_multiplicity
  _atom_site_fract_x
  _atom_site_fract_y
  _atom_site_fract_z
  _atom_site_occupancy
  Zn  Zn1       1.0  0.63783  0.91046  0.89866  1.0000
  Zn  Zn2       1.0  0.36216  0.08955  0.10134  1.0000
  H   H1        1.0  0.97009  0.54816  0.83969  1.0000
  H   H2        1.0  0.02991  0.45184  0.16030  1.0000
  H   H3        1.0  0.04732  0.67728  0.74870  1.0000
  H   H4        1.0  0.95267  0.32273  0.25129  1.0000
  H   H5        1.0  0.89514  0.15531  0.06911  1.0000
  H   H6        1.0  0.10486  0.84468  0.93089  1.0000
  H   H7        1.0  0.98659  0.99230  0.11695  1.0000
  H   H8        1.0  0.01341  0.00770  0.88305  1.0000
  H   H9        1.0  0.73536  0.79083  0.16466  1.0000
  H   H10       1.0  0.26463  0.20917  0.83535  1.0000
  H   H11       1.0  0.69018  0.61662  0.34043  1.0000
  H   H12       1.0  0.30982  0.38338  0.65957  1.0000
  H   H13       1.0  0.39000  0.52013  0.11173  1.0000
  H   H14       1.0  0.61000  0.47988  0.88826  1.0000
  H   H15       1.0  0.44805  0.70383  0.94112  1.0000
  H   H16       1.0  0.55195  0.29617  0.05888  1.0000
  H   H17       1.0  0.45640  0.48373  0.42201  1.0000
  H   H18       1.0  0.54360  0.51627  0.57799  1.0000
  H   H19       1.0  0.41794  0.39865  0.32499  1.0000
  H   H20       1.0  0.58206  0.60135  0.67501  1.0000
  H   H21       1.0  0.75610  0.39469  0.39996  1.0000
  H   H22       1.0  0.24390  0.60532  0.60004  1.0000
  H   H23       1.0  0.69868  0.29755  0.32282  1.0000
  H   H24       1.0  0.30132  0.70245  0.67719  1.0000
  H   H25       1.0  0.48241  0.16310  0.44765  1.0000
  H   H26       1.0  0.51759  0.83691  0.55235  1.0000
  H   H27       1.0  0.48042  0.99620  0.64942  1.0000
  H   H28       1.0  0.51959  0.00380  0.35058  1.0000
  H   H29       1.0  0.79466  0.13485  0.80110  1.0000
  H   H30       1.0  0.20534  0.86515  0.19890  1.0000
  H   H31       1.0  0.81148  0.30599  0.60824  1.0000
  H   H32       1.0  0.18852  0.69401  0.39176  1.0000
  C   C1        1.0  0.80024  0.72940  0.79572  1.0000
  C   C2        1.0  0.19975  0.27059  0.20428  1.0000
  C   C3        1.0  0.94200  0.63623  0.76247  1.0000
  C   C4        1.0  0.05799  0.36377  0.23753  1.0000
  C   C5        1.0  0.89184  0.71726  0.51472  1.0000
  C   C6        1.0  0.10816  0.28274  0.48528  1.0000
  C   C7        1.0  0.87253  0.91910  0.36099  1.0000
  C   C8        1.0  0.12747  0.08090  0.63901  1.0000
  C   C9        1.0  0.87879  0.06139  0.12641  1.0000
  C   C10       1.0  0.12121  0.93861  0.87359  1.0000
  C   C11       1.0  0.73261  0.03149  0.08245  1.0000
  C   C12       1.0  0.26740  0.96851  0.91754  1.0000
  C   C13       1.0  0.65818  0.73019  0.15551  1.0000
  C   C14       1.0  0.34182  0.26981  0.84449  1.0000
  C   C15       1.0  0.63158  0.63136  0.25453  1.0000
  C   C16       1.0  0.36842  0.36864  0.74548  1.0000
  C   C17       1.0  0.53267  0.55344  0.24203  1.0000
  C   C18       1.0  0.46733  0.44656  0.75797  1.0000
  C   C19       1.0  0.46555  0.57943  0.12710  1.0000
  C   C20       1.0  0.53445  0.42056  0.87290  1.0000
  C   C21       1.0  0.49702  0.68089  0.03212  1.0000
  C   C22       1.0  0.50298  0.31911  0.96788  1.0000
  C   C23       1.0  0.50520  0.44512  0.34825  1.0000
  C   C24       1.0  0.49479  0.55488  0.65175  1.0000
  C   C25       1.0  0.66231  0.34603  0.39204  1.0000
  C   C26       1.0  0.33769  0.65397  0.60796  1.0000
  C   C27       1.0  0.65027  0.24728  0.51061  1.0000
  C   C28       1.0  0.34973  0.75273  0.48939  1.0000
  C   C29       1.0  0.55458  0.15912  0.52386  1.0000
  C   C30       1.0  0.44542  0.84088  0.47614  1.0000
  C   C31       1.0  0.55283  0.06652  0.63489  1.0000
  C   C32       1.0  0.44718  0.93348  0.36511  1.0000
  C   C33       1.0  0.72876  0.14365  0.72026  1.0000
  C   C34       1.0  0.27124  0.85635  0.27974  1.0000
  C   C35       1.0  0.73638  0.23928  0.61258  1.0000
  C   C36       1.0  0.26362  0.76072  0.38743  1.0000
  S   S1        1.0  0.91376  0.57959  0.63759  1.0000
  S   S2        1.0  0.08624  0.42041  0.36241  1.0000
  S   S3        1.0  0.88172  0.87305  0.51867  1.0000
  S   S4        1.0  0.11828  0.12695  0.48133  1.0000
  S   S5        1.0  0.86959  0.07563  0.27672  1.0000
  S   S6        1.0  0.13042  0.92437  0.72328  1.0000
  N   N1        1.0  0.87434  0.82441  0.31668  1.0000
  N   N2        1.0  0.12566  0.17559  0.68332  1.0000
  N   N3        1.0  0.88532  0.70981  0.40440  1.0000
  N   N4        1.0  0.11467  0.29019  0.59560  1.0000
  N   N5        1.0  0.59103  0.75605  0.04585  1.0000
  N   N6        1.0  0.40897  0.24395  0.95415  1.0000
  N   N7        1.0  0.63998  0.05744  0.73173  1.0000
  N   N8        1.0  0.36003  0.94256  0.26827  1.0000
  O   O1        1.0  0.84120  0.78860  0.86351  1.0000
  O   O2        1.0  0.15880  0.21140  0.13649  1.0000
  O   O3        1.0  0.66197  0.74132  0.75938  1.0000
  O   O4        1.0  0.33802  0.25867  0.24063  1.0000
  O   O5        1.0  0.75501  0.99557  0.98799  1.0000
  O   O6        1.0  0.24499  0.00442  0.01201  1.0000
  O   O7        1.0  0.60598  0.04569  0.13943  1.0000
  O   O8        1.0  0.39401  0.95431  0.86057  1.0000
