data_image0
_chemical_formula_structural       Zn4H36C16N4O24
_chemical_formula_sum              "Zn4 H36 C16 N4 O24"
_cell_length_a       5.18804
_cell_length_b       9.64201
_cell_length_c       14.285
_cell_angle_alpha    90.0003
_cell_angle_beta     90.0007
_cell_angle_gamma    90.0013

_space_group_name_H-M_alt    "P 1"
_space_group_IT_number       1

loop_
  _space_group_symop_operation_xyz
  'x, y, z'

loop_
  _atom_site_type_symbol
  _atom_site_label
  _atom_site_symmetry_multiplicity
  _atom_site_fract_x
  _atom_site_fract_y
  _atom_site_fract_z
  _atom_site_occupancy
  Zn  Zn1       1.0  0.84000  0.12485  0.06077  1.0000
  Zn  Zn2       1.0  0.15997  0.62487  0.93922  1.0000
  Zn  Zn3       1.0  0.15998  0.12486  0.56078  1.0000
  Zn  Zn4       1.0  0.84002  0.62485  0.43923  1.0000
  H   H1        1.0  0.55696  0.22192  0.20158  1.0000
  H   H2        1.0  0.44305  0.72194  0.79842  1.0000
  H   H3        1.0  0.44304  0.22193  0.70159  1.0000
  H   H4        1.0  0.55698  0.72190  0.29842  1.0000
  H   H5        1.0  0.82769  0.22036  0.31518  1.0000
  H   H6        1.0  0.17234  0.72037  0.68481  1.0000
  H   H7        1.0  0.17231  0.22037  0.81519  1.0000
  H   H8        1.0  0.82772  0.72036  0.18482  1.0000
  H   H9        1.0  0.00542  0.35293  0.26240  1.0000
  H   H10       1.0  0.99462  0.85295  0.73759  1.0000
  H   H11       1.0  0.99458  0.35293  0.76240  1.0000
  H   H12       1.0  0.00546  0.85291  0.23760  1.0000
  H   H13       1.0  0.67188  0.47592  0.19109  1.0000
  H   H14       1.0  0.32816  0.97594  0.80891  1.0000
  H   H15       1.0  0.32812  0.47593  0.69109  1.0000
  H   H16       1.0  0.67186  0.97591  0.30890  1.0000
  H   H17       1.0  0.50252  0.39921  0.09753  1.0000
  H   H18       1.0  0.49748  0.89923  0.90248  1.0000
  H   H19       1.0  0.49747  0.39923  0.59753  1.0000
  H   H20       1.0  0.50253  0.89920  0.40247  1.0000
  H   H21       1.0  0.56525  0.88079  0.06918  1.0000
  H   H22       1.0  0.43471  0.38081  0.93083  1.0000
  H   H23       1.0  0.43470  0.88080  0.56916  1.0000
  H   H24       1.0  0.56526  0.38078  0.43083  1.0000
  H   H25       1.0  0.62914  0.18662  0.89652  1.0000
  H   H26       1.0  0.37084  0.68661  0.10348  1.0000
  H   H27       1.0  0.37083  0.18662  0.39652  1.0000
  H   H28       1.0  0.62916  0.68663  0.60347  1.0000
  H   H29       1.0  0.41318  0.99861  0.12605  1.0000
  H   H30       1.0  0.58679  0.49862  0.87395  1.0000
  H   H31       1.0  0.58680  0.99861  0.62605  1.0000
  H   H32       1.0  0.41320  0.49859  0.37395  1.0000
  H   H33       1.0  0.39201  0.15368  0.96416  1.0000
  H   H34       1.0  0.60797  0.65366  0.03584  1.0000
  H   H35       1.0  0.60797  0.15367  0.46416  1.0000
  H   H36       1.0  0.39202  0.65367  0.53583  1.0000
  C   C1        1.0  0.91941  0.25075  0.24891  1.0000
  C   C2        1.0  0.08061  0.75076  0.75109  1.0000
  C   C3        1.0  0.08060  0.25075  0.74891  1.0000
  C   C4        1.0  0.91944  0.75073  0.25110  1.0000
  C   C5        1.0  0.13717  0.14884  0.23149  1.0000
  C   C6        1.0  0.86283  0.64887  0.76850  1.0000
  C   C7        1.0  0.86282  0.14884  0.73150  1.0000
  C   C8        1.0  0.13719  0.64883  0.26851  1.0000
  C   C9        1.0  0.68694  0.39736  0.13558  1.0000
  C   C10       1.0  0.31307  0.89738  0.86442  1.0000
  C   C11       1.0  0.31305  0.39737  0.63558  1.0000
  C   C12       1.0  0.68695  0.89736  0.36442  1.0000
  C   C13       1.0  0.90003  0.43575  0.06682  1.0000
  C   C14       1.0  0.09997  0.93575  0.93317  1.0000
  C   C15       1.0  0.09996  0.43575  0.56683  1.0000
  C   C16       1.0  0.90002  0.93577  0.43317  1.0000
  N   N1        1.0  0.72632  0.25744  0.17329  1.0000
  N   N2        1.0  0.27370  0.75745  0.82671  1.0000
  N   N3        1.0  0.27368  0.25745  0.67329  1.0000
  N   N4        1.0  0.72633  0.75743  0.32671  1.0000
  O   O1        1.0  0.12985  0.07070  0.15920  1.0000
  O   O2        1.0  0.87014  0.57073  0.84079  1.0000
  O   O3        1.0  0.87015  0.07071  0.65920  1.0000
  O   O4        1.0  0.12984  0.57069  0.34079  1.0000
  O   O5        1.0  0.32226  0.14692  0.28907  1.0000
  O   O6        1.0  0.67774  0.64695  0.71093  1.0000
  O   O7        1.0  0.67773  0.14693  0.78907  1.0000
  O   O8        1.0  0.32230  0.64690  0.21094  1.0000
  O   O9        1.0  0.05324  0.34420  0.03882  1.0000
  O   O10       1.0  0.94678  0.84420  0.96118  1.0000
  O   O11       1.0  0.94678  0.34420  0.53882  1.0000
  O   O12       1.0  0.05326  0.84421  0.46118  1.0000
  O   O13       1.0  0.90487  0.56437  0.04097  1.0000
  O   O14       1.0  0.09509  0.06437  0.95902  1.0000
  O   O15       1.0  0.09510  0.56437  0.54098  1.0000
  O   O16       1.0  0.90487  0.06437  0.45903  1.0000
  O   O17       1.0  0.56031  0.20400  0.96167  1.0000
  O   O18       1.0  0.43968  0.70398  0.03834  1.0000
  O   O19       1.0  0.43968  0.20399  0.46166  1.0000
  O   O20       1.0  0.56031  0.70399  0.53833  1.0000
  O   O21       1.0  0.58796  0.96779  0.10478  1.0000
  O   O22       1.0  0.41201  0.46780  0.89522  1.0000
  O   O23       1.0  0.41202  0.96779  0.60478  1.0000
  O   O24       1.0  0.58797  0.46777  0.39523  1.0000
