data_image0
_chemical_formula_structural       Mn2H32C36S6N8O8
_chemical_formula_sum              "Mn2 H32 C36 S6 N8 O8"
_cell_length_a       9.13423
_cell_length_b       10.1579
_cell_length_c       11.5355
_cell_angle_alpha    100.81
_cell_angle_beta     92.5409
_cell_angle_gamma    101.289

_space_group_name_H-M_alt    "P 1"
_space_group_IT_number       1

loop_
  _space_group_symop_operation_xyz
  'x, y, z'

loop_
  _atom_site_type_symbol
  _atom_site_label
  _atom_site_symmetry_multiplicity
  _atom_site_fract_x
  _atom_site_fract_y
  _atom_site_fract_z
  _atom_site_occupancy
  Mn  Mn1       1.0  0.36107  0.37930  0.11775  1.0000
  Mn  Mn2       1.0  0.63894  0.62071  0.88225  1.0000
  H   H1        1.0  0.02670  0.01880  0.21372  1.0000
  H   H2        1.0  0.97331  0.98120  0.78628  1.0000
  H   H3        1.0  0.96186  0.15361  0.30013  1.0000
  H   H4        1.0  0.03814  0.84638  0.69987  1.0000
  H   H5        1.0  0.10320  0.64872  0.92329  1.0000
  H   H6        1.0  0.89681  0.35128  0.07670  1.0000
  H   H7        1.0  0.05860  0.46701  0.88897  1.0000
  H   H8        1.0  0.94140  0.53300  0.11102  1.0000
  H   H9        1.0  0.45190  0.33398  0.86512  1.0000
  H   H10       1.0  0.54809  0.66602  0.13488  1.0000
  H   H11       1.0  0.48579  0.15151  0.69961  1.0000
  H   H12       1.0  0.51421  0.84850  0.30039  1.0000
  H   H13       1.0  0.30090  0.85577  0.90597  1.0000
  H   H14       1.0  0.69911  0.14423  0.09404  1.0000
  H   H15       1.0  0.27595  0.05130  0.06488  1.0000
  H   H16       1.0  0.72405  0.94870  0.93512  1.0000
  H   H17       1.0  0.53583  0.88613  0.67556  1.0000
  H   H18       1.0  0.46418  0.11387  0.32444  1.0000
  H   H19       1.0  0.38553  0.77401  0.71880  1.0000
  H   H20       1.0  0.61447  0.22599  0.28121  1.0000
  H   H21       1.0  0.35646  0.96695  0.54634  1.0000
  H   H22       1.0  0.64355  0.03305  0.45366  1.0000
  H   H23       1.0  0.20479  0.86033  0.59013  1.0000
  H   H24       1.0  0.79521  0.13967  0.40988  1.0000
  H   H25       1.0  0.53094  0.69488  0.54796  1.0000
  H   H26       1.0  0.46905  0.30511  0.45205  1.0000
  H   H27       1.0  0.54029  0.51684  0.36885  1.0000
  H   H28       1.0  0.45970  0.48316  0.63116  1.0000
  H   H29       1.0  0.17669  0.60438  0.19534  1.0000
  H   H30       1.0  0.82330  0.39563  0.80466  1.0000
  H   H31       1.0  0.14675  0.78273  0.36804  1.0000
  H   H32       1.0  0.85325  0.21727  0.63196  1.0000
  C   C1        1.0  0.16706  0.21693  0.21962  1.0000
  C   C2        1.0  0.83294  0.78308  0.78039  1.0000
  C   C3        1.0  0.06399  0.11588  0.27821  1.0000
  C   C4        1.0  0.93602  0.88412  0.72179  1.0000
  C   C5        1.0  0.14654  0.20689  0.51760  1.0000
  C   C6        1.0  0.85345  0.79311  0.48240  1.0000
  C   C7        1.0  0.13869  0.41483  0.65284  1.0000
  C   C8        1.0  0.86130  0.58517  0.34716  1.0000
  C   C9        1.0  0.13663  0.55747  0.87324  1.0000
  C   C10       1.0  0.86337  0.44254  0.12675  1.0000
  C   C11       1.0  0.29540  0.55090  0.91570  1.0000
  C   C12       1.0  0.70461  0.44910  0.08429  1.0000
  C   C13       1.0  0.41909  0.22669  0.87098  1.0000
  C   C14       1.0  0.58090  0.77331  0.12903  1.0000
  C   C15       1.0  0.43802  0.12376  0.77872  1.0000
  C   C16       1.0  0.56198  0.87624  0.22128  1.0000
  C   C17       1.0  0.39562  0.98630  0.78806  1.0000
  C   C18       1.0  0.60439  0.01370  0.21194  1.0000
  C   C19       1.0  0.33445  0.96054  0.89278  1.0000
  C   C20       1.0  0.66556  0.03946  0.10722  1.0000
  C   C21       1.0  0.31998  0.06930  0.98166  1.0000
  C   C22       1.0  0.68001  0.93070  0.01834  1.0000
  C   C23       1.0  0.41606  0.87248  0.69047  1.0000
  C   C24       1.0  0.58394  0.12752  0.30953  1.0000
  C   C25       1.0  0.32416  0.86843  0.57522  1.0000
  C   C26       1.0  0.67584  0.13157  0.42479  1.0000
  C   C27       1.0  0.33731  0.75570  0.47351  1.0000
  C   C28       1.0  0.66268  0.24430  0.52649  1.0000
  C   C29       1.0  0.44879  0.67827  0.47226  1.0000
  C   C30       1.0  0.55120  0.32172  0.52775  1.0000
  C   C31       1.0  0.45469  0.57844  0.37246  1.0000
  C   C32       1.0  0.54530  0.42157  0.62754  1.0000
  C   C33       1.0  0.25122  0.62647  0.27613  1.0000
  C   C34       1.0  0.74877  0.37353  0.72387  1.0000
  C   C35       1.0  0.23650  0.72673  0.37221  1.0000
  C   C36       1.0  0.76350  0.27328  0.62779  1.0000
  S   S1        1.0  0.14669  0.06780  0.40490  1.0000
  S   S2        1.0  0.85331  0.93220  0.59510  1.0000
  S   S3        1.0  0.13199  0.37146  0.49897  1.0000
  S   S4        1.0  0.86800  0.62853  0.50103  1.0000
  S   S5        1.0  0.11085  0.57361  0.72144  1.0000
  S   S6        1.0  0.88915  0.42639  0.27855  1.0000
  N   N1        1.0  0.15910  0.19601  0.62927  1.0000
  N   N2        1.0  0.84090  0.80400  0.37073  1.0000
  N   N3        1.0  0.15617  0.31464  0.70674  1.0000
  N   N4        1.0  0.84383  0.68537  0.29325  1.0000
  N   N5        1.0  0.36164  0.20118  0.97206  1.0000
  N   N6        1.0  0.63835  0.79882  0.02795  1.0000
  N   N7        1.0  0.35846  0.55237  0.27523  1.0000
  N   N8        1.0  0.64153  0.44763  0.72477  1.0000
  O   O1        1.0  0.10754  0.26341  0.13900  1.0000
  O   O2        1.0  0.89246  0.73660  0.86101  1.0000
  O   O3        1.0  0.30718  0.24720  0.25087  1.0000
  O   O4        1.0  0.69283  0.75280  0.74914  1.0000
  O   O5        1.0  0.30609  0.51188  0.01337  1.0000
  O   O6        1.0  0.69391  0.48812  0.98661  1.0000
  O   O7        1.0  0.40238  0.58763  0.85485  1.0000
  O   O8        1.0  0.59763  0.41237  0.14513  1.0000
