data_image0
_chemical_formula_structural       Co2H32C36S6N8O8
_chemical_formula_sum              "Co2 H32 C36 S6 N8 O8"
_cell_length_a       9.15735
_cell_length_b       10.106
_cell_length_c       11.4057
_cell_angle_alpha    101.837
_cell_angle_beta     92.3554
_cell_angle_gamma    101.154

_space_group_name_H-M_alt    "P 1"
_space_group_IT_number       1

loop_
  _space_group_symop_operation_xyz
  'x, y, z'

loop_
  _atom_site_type_symbol
  _atom_site_label
  _atom_site_symmetry_multiplicity
  _atom_site_fract_x
  _atom_site_fract_y
  _atom_site_fract_z
  _atom_site_occupancy
  Co  Co1       1.0  0.86230  0.37833  0.11635  1.0000
  Co  Co2       1.0  0.13769  0.62166  0.88365  1.0000
  H   H1        1.0  0.52729  0.02549  0.19805  1.0000
  H   H2        1.0  0.47270  0.97451  0.80195  1.0000
  H   H3        1.0  0.46508  0.16259  0.28885  1.0000
  H   H4        1.0  0.53492  0.83742  0.71115  1.0000
  H   H5        1.0  0.62117  0.65554  0.93254  1.0000
  H   H6        1.0  0.37882  0.34446  0.06746  1.0000
  H   H7        1.0  0.56811  0.47257  0.89362  1.0000
  H   H8        1.0  0.43188  0.52744  0.10638  1.0000
  H   H9        1.0  0.95336  0.34133  0.86595  1.0000
  H   H10       1.0  0.04663  0.65867  0.13405  1.0000
  H   H11       1.0  0.98423  0.15596  0.69590  1.0000
  H   H12       1.0  0.01578  0.84403  0.30410  1.0000
  H   H13       1.0  0.81069  0.86112  0.90632  1.0000
  H   H14       1.0  0.18932  0.13887  0.09367  1.0000
  H   H15       1.0  0.78842  0.05927  0.06937  1.0000
  H   H16       1.0  0.21158  0.94072  0.93062  1.0000
  H   H17       1.0  0.89662  0.77730  0.71528  1.0000
  H   H18       1.0  0.10338  0.22271  0.28472  1.0000
  H   H19       1.0  0.03676  0.89297  0.66527  1.0000
  H   H20       1.0  0.96324  0.10703  0.33473  1.0000
  H   H21       1.0  0.84214  0.96248  0.54136  1.0000
  H   H22       1.0  0.15786  0.03752  0.45864  1.0000
  H   H23       1.0  0.70081  0.85093  0.59116  1.0000
  H   H24       1.0  0.29919  0.14908  0.40884  1.0000
  H   H25       1.0  0.02599  0.68967  0.54221  1.0000
  H   H26       1.0  0.97400  0.31033  0.45780  1.0000
  H   H27       1.0  0.03665  0.50869  0.35998  1.0000
  H   H28       1.0  0.96335  0.49132  0.64002  1.0000
  H   H29       1.0  0.67247  0.59180  0.18496  1.0000
  H   H30       1.0  0.32754  0.40820  0.81504  1.0000
  H   H31       1.0  0.64242  0.77464  0.36000  1.0000
  H   H32       1.0  0.35758  0.22536  0.64000  1.0000
  C   C1        1.0  0.67330  0.22284  0.21205  1.0000
  C   C2        1.0  0.32672  0.77716  0.78796  1.0000
  C   C3        1.0  0.56560  0.12169  0.26655  1.0000
  C   C4        1.0  0.43439  0.87831  0.73345  1.0000
  C   C5        1.0  0.64678  0.20892  0.51030  1.0000
  C   C6        1.0  0.35321  0.79108  0.48970  1.0000
  C   C7        1.0  0.64277  0.41856  0.65156  1.0000
  C   C8        1.0  0.35722  0.58144  0.34844  1.0000
  C   C9        1.0  0.64828  0.56166  0.87792  1.0000
  C   C10       1.0  0.35172  0.43834  0.12208  1.0000
  C   C11       1.0  0.80580  0.54717  0.91486  1.0000
  C   C12       1.0  0.19418  0.45282  0.08514  1.0000
  C   C13       1.0  0.92179  0.23366  0.87144  1.0000
  C   C14       1.0  0.07821  0.76634  0.12856  1.0000
  C   C15       1.0  0.93913  0.12888  0.77669  1.0000
  C   C16       1.0  0.06087  0.87111  0.22331  1.0000
  C   C17       1.0  0.89899  0.99070  0.78554  1.0000
  C   C18       1.0  0.10101  0.00930  0.21446  1.0000
  C   C19       1.0  0.84143  0.96622  0.89265  1.0000
  C   C20       1.0  0.15857  0.03378  0.10734  1.0000
  C   C21       1.0  0.82833  0.07671  0.98410  1.0000
  C   C22       1.0  0.17166  0.92329  0.01589  1.0000
  C   C23       1.0  0.91887  0.87529  0.68529  1.0000
  C   C24       1.0  0.08113  0.12471  0.31470  1.0000
  C   C25       1.0  0.81877  0.86398  0.57137  1.0000
  C   C26       1.0  0.18123  0.13603  0.42863  1.0000
  C   C27       1.0  0.83249  0.74955  0.46738  1.0000
  C   C28       1.0  0.16751  0.25045  0.53263  1.0000
  C   C29       1.0  0.94398  0.67187  0.46558  1.0000
  C   C30       1.0  0.05603  0.32814  0.53442  1.0000
  C   C31       1.0  0.95081  0.57021  0.36404  1.0000
  C   C32       1.0  0.04920  0.42980  0.63596  1.0000
  C   C33       1.0  0.74729  0.61624  0.26666  1.0000
  C   C34       1.0  0.25271  0.38376  0.73334  1.0000
  C   C35       1.0  0.73214  0.71850  0.36448  1.0000
  C   C36       1.0  0.26786  0.28150  0.63552  1.0000
  S   S1        1.0  0.64169  0.06770  0.39327  1.0000
  S   S2        1.0  0.35831  0.93230  0.60673  1.0000
  S   S3        1.0  0.63243  0.37524  0.49513  1.0000
  S   S4        1.0  0.36757  0.62476  0.50487  1.0000
  S   S5        1.0  0.61938  0.57964  0.72549  1.0000
  S   S6        1.0  0.38060  0.42036  0.27451  1.0000
  N   N1        1.0  0.66214  0.19760  0.62273  1.0000
  N   N2        1.0  0.33785  0.80240  0.37727  1.0000
  N   N3        1.0  0.66099  0.31719  0.70365  1.0000
  N   N4        1.0  0.33901  0.68281  0.29635  1.0000
  N   N5        1.0  0.86772  0.20948  0.97498  1.0000
  N   N6        1.0  0.13228  0.79052  0.02502  1.0000
  N   N7        1.0  0.85500  0.54220  0.26522  1.0000
  N   N8        1.0  0.14501  0.45780  0.73479  1.0000
  O   O1        1.0  0.62070  0.27193  0.12967  1.0000
  O   O2        1.0  0.37933  0.72807  0.87033  1.0000
  O   O3        1.0  0.81209  0.25201  0.24669  1.0000
  O   O4        1.0  0.18792  0.74798  0.75333  1.0000
  O   O5        1.0  0.81733  0.50025  0.00868  1.0000
  O   O6        1.0  0.18267  0.49975  0.99132  1.0000
  O   O7        1.0  0.91110  0.58478  0.85227  1.0000
  O   O8        1.0  0.08889  0.41520  0.14772  1.0000
