data_image0
_chemical_formula_structural       Cd8H28C24N52O4
_chemical_formula_sum              "Cd8 H28 C24 N52 O4"
_cell_length_a       6.81758
_cell_length_b       9.95078
_cell_length_c       17.9044
_cell_angle_alpha    101.865
_cell_angle_beta     90
_cell_angle_gamma    90

_space_group_name_H-M_alt    "P 1"
_space_group_IT_number       1

loop_
  _space_group_symop_operation_xyz
  'x, y, z'

loop_
  _atom_site_type_symbol
  _atom_site_label
  _atom_site_symmetry_multiplicity
  _atom_site_fract_x
  _atom_site_fract_y
  _atom_site_fract_z
  _atom_site_occupancy
  Cd  Cd1       1.0  0.70484  0.02270  0.94967  1.0000
  Cd  Cd2       1.0  0.20484  0.47730  0.55033  1.0000
  Cd  Cd3       1.0  0.29516  0.97730  0.05033  1.0000
  Cd  Cd4       1.0  0.79516  0.52270  0.44967  1.0000
  Cd  Cd5       1.0  0.57204  0.34853  0.08501  1.0000
  Cd  Cd6       1.0  0.07204  0.15147  0.41499  1.0000
  Cd  Cd7       1.0  0.42796  0.65147  0.91499  1.0000
  Cd  Cd8       1.0  0.92796  0.84853  0.58501  1.0000
  H   H1        1.0  0.19226  0.53168  0.16770  1.0000
  H   H2        1.0  0.69226  0.96833  0.33230  1.0000
  H   H3        1.0  0.80774  0.46833  0.83230  1.0000
  H   H4        1.0  0.30774  0.03167  0.66770  1.0000
  H   H5        1.0  0.04575  0.59395  0.10007  1.0000
  H   H6        1.0  0.54576  0.90605  0.39993  1.0000
  H   H7        1.0  0.95424  0.40605  0.89993  1.0000
  H   H8        1.0  0.45425  0.09394  0.60007  1.0000
  H   H9        1.0  0.98383  0.48062  0.28785  1.0000
  H   H10       1.0  0.48383  0.01938  0.21215  1.0000
  H   H11       1.0  0.01617  0.51939  0.71215  1.0000
  H   H12       1.0  0.51618  0.98062  0.78785  1.0000
  H   H13       1.0  0.94552  0.33615  0.21329  1.0000
  H   H14       1.0  0.44552  0.16385  0.28671  1.0000
  H   H15       1.0  0.05448  0.66385  0.78671  1.0000
  H   H16       1.0  0.55448  0.83615  0.71329  1.0000
  H   H17       1.0  0.91023  0.73937  0.21442  1.0000
  H   H18       1.0  0.41023  0.76063  0.28558  1.0000
  H   H19       1.0  0.08977  0.26063  0.78558  1.0000
  H   H20       1.0  0.58977  0.23937  0.71442  1.0000
  H   H21       1.0  0.72652  0.66467  0.26091  1.0000
  H   H22       1.0  0.22651  0.83533  0.23909  1.0000
  H   H23       1.0  0.27349  0.33534  0.73909  1.0000
  H   H24       1.0  0.77348  0.16467  0.76091  1.0000
  H   H25       1.0  0.32316  0.91518  0.89765  1.0000
  H   H26       1.0  0.82316  0.58482  0.60235  1.0000
  H   H27       1.0  0.67684  0.08482  0.10235  1.0000
  H   H28       1.0  0.17684  0.41518  0.39765  1.0000
  C   C1        1.0  0.06598  0.37678  0.08100  1.0000
  C   C2        1.0  0.56598  0.12322  0.41900  1.0000
  C   C3        1.0  0.93402  0.62322  0.91900  1.0000
  C   C4        1.0  0.43402  0.87678  0.58100  1.0000
  C   C5        1.0  0.05547  0.51367  0.13404  1.0000
  C   C6        1.0  0.55547  0.98633  0.36595  1.0000
  C   C7        1.0  0.94453  0.48633  0.86595  1.0000
  C   C8        1.0  0.44454  0.01367  0.63405  1.0000
  C   C9        1.0  0.68252  0.42198  0.26622  1.0000
  C   C10       1.0  0.18251  0.07802  0.23378  1.0000
  C   C11       1.0  0.31748  0.57802  0.73378  1.0000
  C   C12       1.0  0.81748  0.92198  0.76622  1.0000
  C   C13       1.0  0.88703  0.43740  0.23984  1.0000
  C   C14       1.0  0.38703  0.06260  0.26016  1.0000
  C   C15       1.0  0.11297  0.56260  0.76016  1.0000
  C   C16       1.0  0.61297  0.93740  0.73984  1.0000
  C   C17       1.0  0.65105  0.68656  0.14896  1.0000
  C   C18       1.0  0.15105  0.81343  0.35104  1.0000
  C   C19       1.0  0.34895  0.31344  0.85104  1.0000
  C   C20       1.0  0.84895  0.18657  0.64896  1.0000
  C   C21       1.0  0.79864  0.65720  0.20520  1.0000
  C   C22       1.0  0.29864  0.84280  0.29480  1.0000
  C   C23       1.0  0.20136  0.34281  0.79480  1.0000
  C   C24       1.0  0.70136  0.15720  0.70520  1.0000
  N   N1        1.0  0.90675  0.30733  0.05024  1.0000
  N   N2        1.0  0.40675  0.19267  0.44976  1.0000
  N   N3        1.0  0.09324  0.69267  0.94976  1.0000
  N   N4        1.0  0.59325  0.80733  0.55024  1.0000
  N   N5        1.0  0.97282  0.18887  0.00833  1.0000
  N   N6        1.0  0.47282  0.31113  0.49167  1.0000
  N   N7        1.0  0.02718  0.81113  0.99167  1.0000
  N   N8        1.0  0.52718  0.68887  0.50833  1.0000
  N   N9        1.0  0.16550  0.18566  0.01308  1.0000
  N   N10       1.0  0.66550  0.31434  0.48692  1.0000
  N   N11       1.0  0.83450  0.81434  0.98692  1.0000
  N   N12       1.0  0.33450  0.68566  0.51308  1.0000
  N   N13       1.0  0.22788  0.30331  0.05875  1.0000
  N   N14       1.0  0.72788  0.19668  0.44125  1.0000
  N   N15       1.0  0.77212  0.69668  0.94125  1.0000
  N   N16       1.0  0.27212  0.80332  0.55875  1.0000
  N   N17       1.0  0.88009  0.52027  0.18098  1.0000
  N   N18       1.0  0.38009  0.97973  0.31902  1.0000
  N   N19       1.0  0.11991  0.47973  0.81902  1.0000
  N   N20       1.0  0.61991  0.02027  0.68098  1.0000
  N   N21       1.0  0.53177  0.38818  0.21781  1.0000
  N   N22       1.0  0.03177  0.11182  0.28219  1.0000
  N   N23       1.0  0.46823  0.61182  0.78219  1.0000
  N   N24       1.0  0.96823  0.88818  0.71781  1.0000
  N   N25       1.0  0.36881  0.39228  0.26100  1.0000
  N   N26       1.0  0.86880  0.10772  0.23900  1.0000
  N   N27       1.0  0.63120  0.60772  0.73900  1.0000
  N   N28       1.0  0.13120  0.89228  0.76100  1.0000
  N   N29       1.0  0.41826  0.42742  0.33316  1.0000
  N   N30       1.0  0.91826  0.07258  0.16684  1.0000
  N   N31       1.0  0.58174  0.57258  0.66684  1.0000
  N   N32       1.0  0.08174  0.92742  0.83316  1.0000
  N   N33       1.0  0.61573  0.44760  0.33828  1.0000
  N   N34       1.0  0.11573  0.05240  0.16172  1.0000
  N   N35       1.0  0.38427  0.55240  0.66172  1.0000
  N   N36       1.0  0.88427  0.94760  0.83828  1.0000
  N   N37       1.0  0.56639  0.59168  0.09374  1.0000
  N   N38       1.0  0.06639  0.90832  0.40626  1.0000
  N   N39       1.0  0.43361  0.40832  0.90626  1.0000
  N   N40       1.0  0.93361  0.09168  0.59374  1.0000
  N   N41       1.0  0.44046  0.66129  0.05828  1.0000
  N   N42       1.0  0.94047  0.83871  0.44172  1.0000
  N   N43       1.0  0.55954  0.33871  0.94172  1.0000
  N   N44       1.0  0.05953  0.16129  0.55828  1.0000
  N   N45       1.0  0.44974  0.79257  0.09207  1.0000
  N   N46       1.0  0.94974  0.70743  0.40793  1.0000
  N   N47       1.0  0.55026  0.20743  0.90794  1.0000
  N   N48       1.0  0.05026  0.29257  0.59207  1.0000
  N   N49       1.0  0.58113  0.81203  0.14860  1.0000
  N   N50       1.0  0.08113  0.68797  0.35140  1.0000
  N   N51       1.0  0.41887  0.18797  0.85140  1.0000
  N   N52       1.0  0.91887  0.31203  0.64860  1.0000
  O   O1        1.0  0.42334  0.89032  0.93219  1.0000
  O   O2        1.0  0.92334  0.60968  0.56781  1.0000
  O   O3        1.0  0.57666  0.10967  0.06781  1.0000
  O   O4        1.0  0.07666  0.39032  0.43219  1.0000
