data_image0
_chemical_formula_structural       Cd6H30C24N54
_chemical_formula_sum              "Cd6 H30 C24 N54"
_cell_length_a       11.628
_cell_length_b       12.6874
_cell_length_c       12.6226
_cell_angle_alpha    111.003
_cell_angle_beta     107.662
_cell_angle_gamma    107.899

_space_group_name_H-M_alt    "P 1"
_space_group_IT_number       1

loop_
  _space_group_symop_operation_xyz
  'x, y, z'

loop_
  _atom_site_type_symbol
  _atom_site_label
  _atom_site_symmetry_multiplicity
  _atom_site_fract_x
  _atom_site_fract_y
  _atom_site_fract_z
  _atom_site_occupancy
  Cd  Cd1       1.0  0.23504  0.55663  0.05739  1.0000
  Cd  Cd2       1.0  0.67859  0.50092  0.44388  1.0000
  Cd  Cd3       1.0  0.17832  0.94320  0.49983  1.0000
  Cd  Cd4       1.0  0.76496  0.44337  0.94261  1.0000
  Cd  Cd5       1.0  0.32141  0.49908  0.55612  1.0000
  Cd  Cd6       1.0  0.82168  0.05680  0.50017  1.0000
  H   H1        1.0  0.62181  0.75251  0.56043  1.0000
  H   H2        1.0  0.86966  0.80731  0.24772  1.0000
  H   H3        1.0  0.06247  0.44007  0.19222  1.0000
  H   H4        1.0  0.37819  0.24749  0.43956  1.0000
  H   H5        1.0  0.13034  0.19269  0.75228  1.0000
  H   H6        1.0  0.93753  0.55993  0.80777  1.0000
  H   H7        1.0  0.74810  0.90368  0.69055  1.0000
  H   H8        1.0  0.84447  0.78570  0.09559  1.0000
  H   H9        1.0  0.05851  0.31049  0.21460  1.0000
  H   H10       1.0  0.25190  0.09632  0.30945  1.0000
  H   H11       1.0  0.15553  0.21430  0.90441  1.0000
  H   H12       1.0  0.94148  0.68951  0.78540  1.0000
  H   H13       1.0  0.44822  0.87004  0.40142  1.0000
  H   H14       1.0  0.57841  0.53114  0.13058  1.0000
  H   H15       1.0  0.04704  0.59945  0.46912  1.0000
  H   H16       1.0  0.55178  0.12996  0.59858  1.0000
  H   H17       1.0  0.42159  0.46886  0.86942  1.0000
  H   H18       1.0  0.95296  0.40055  0.53088  1.0000
  H   H19       1.0  0.46007  0.73422  0.39707  1.0000
  H   H20       1.0  0.72589  0.66219  0.26680  1.0000
  H   H21       1.0  0.06346  0.60365  0.33704  1.0000
  H   H22       1.0  0.53993  0.26578  0.60293  1.0000
  H   H23       1.0  0.27411  0.33781  0.73320  1.0000
  H   H24       1.0  0.93654  0.39635  0.66296  1.0000
  H   H25       1.0  0.61644  0.96360  0.59320  1.0000
  H   H26       1.0  0.65292  0.62881  0.03599  1.0000
  H   H27       1.0  0.02415  0.40786  0.37210  1.0000
  H   H28       1.0  0.38356  0.03640  0.40680  1.0000
  H   H29       1.0  0.34708  0.37119  0.96401  1.0000
  H   H30       1.0  0.97585  0.59214  0.62790  1.0000
  C   C1        1.0  0.70059  0.84500  0.58568  1.0000
  C   C2        1.0  0.85583  0.74011  0.15485  1.0000
  C   C3        1.0  0.11568  0.41491  0.25993  1.0000
  C   C4        1.0  0.29941  0.15500  0.41431  1.0000
  C   C5        1.0  0.14417  0.25989  0.84515  1.0000
  C   C6        1.0  0.88432  0.58508  0.74007  1.0000
  C   C7        1.0  0.51700  0.82691  0.40597  1.0000
  C   C8        1.0  0.69032  0.57895  0.17364  1.0000
  C   C9        1.0  0.11122  0.59456  0.42105  1.0000
  C   C10       1.0  0.48300  0.17309  0.59403  1.0000
  C   C11       1.0  0.30968  0.42105  0.82636  1.0000
  C   C12       1.0  0.88878  0.40544  0.57895  1.0000
  C   C13       1.0  0.80680  0.82546  0.55051  1.0000
  C   C14       1.0  0.98151  0.72471  0.17436  1.0000
  C   C15       1.0  0.25675  0.44963  0.27516  1.0000
  C   C16       1.0  0.19320  0.17454  0.44949  1.0000
  C   C17       1.0  0.01849  0.27528  0.82564  1.0000
  C   C18       1.0  0.74325  0.55036  0.72484  1.0000
  C   C19       1.0  0.54540  0.80615  0.29443  1.0000
  C   C20       1.0  0.73972  0.48886  0.19427  1.0000
  C   C21       1.0  0.25061  0.70524  0.51118  1.0000
  C   C22       1.0  0.45460  0.19386  0.70557  1.0000
  C   C23       1.0  0.26028  0.51114  0.80573  1.0000
  C   C24       1.0  0.74939  0.29476  0.48882  1.0000
  N   N1        1.0  0.64198  0.91199  0.52997  1.0000
  N   N2        1.0  0.73017  0.61782  0.08809  1.0000
  N   N3        1.0  0.11232  0.47079  0.38275  1.0000
  N   N4        1.0  0.35802  0.08802  0.47003  1.0000
  N   N5        1.0  0.26983  0.38218  0.91191  1.0000
  N   N6        1.0  0.88768  0.52921  0.61724  1.0000
  N   N7        1.0  0.82202  0.71931  0.52094  1.0000
  N   N8        1.0  0.10294  0.80167  0.28065  1.0000
  N   N9        1.0  0.30187  0.47963  0.19843  1.0000
  N   N10       1.0  0.17798  0.28069  0.47906  1.0000
  N   N11       1.0  0.89706  0.19833  0.71935  1.0000
  N   N12       1.0  0.69813  0.52037  0.80157  1.0000
  N   N13       1.0  0.93395  0.74371  0.50373  1.0000
  N   N14       1.0  0.19047  0.76030  0.25631  1.0000
  N   N15       1.0  0.43064  0.49651  0.23972  1.0000
  N   N16       1.0  0.06605  0.25629  0.49627  1.0000
  N   N17       1.0  0.80953  0.23970  0.74369  1.0000
  N   N18       1.0  0.56936  0.50349  0.76028  1.0000
  N   N19       1.0  0.98254  0.85996  0.52080  1.0000
  N   N20       1.0  0.12278  0.66091  0.13998  1.0000
  N   N21       1.0  0.46167  0.47882  0.33894  1.0000
  N   N22       1.0  0.01746  0.14004  0.47920  1.0000
  N   N23       1.0  0.87722  0.33909  0.86002  1.0000
  N   N24       1.0  0.53833  0.52118  0.66106  1.0000
  N   N25       1.0  0.90570  0.91455  0.55086  1.0000
  N   N26       1.0  0.99133  0.63600  0.08524  1.0000
  N   N27       1.0  0.35478  0.44865  0.36372  1.0000
  N   N28       1.0  0.09430  0.08545  0.44913  1.0000
  N   N29       1.0  0.00867  0.36399  0.91476  1.0000
  N   N30       1.0  0.64522  0.55135  0.63628  1.0000
  N   N31       1.0  0.66387  0.87758  0.30375  1.0000
  N   N32       1.0  0.78695  0.42739  0.12249  1.0000
  N   N33       1.0  0.35943  0.69520  0.57237  1.0000
  N   N34       1.0  0.33613  0.12242  0.69625  1.0000
  N   N35       1.0  0.21305  0.57261  0.87751  1.0000
  N   N36       1.0  0.64057  0.30480  0.42763  1.0000
  N   N37       1.0  0.64856  0.83385  0.18294  1.0000
  N   N38       1.0  0.81504  0.35046  0.16598  1.0000
  N   N39       1.0  0.46431  0.81541  0.64961  1.0000
  N   N40       1.0  0.35144  0.16615  0.81706  1.0000
  N   N41       1.0  0.18496  0.64954  0.83402  1.0000
  N   N42       1.0  0.53569  0.18459  0.35039  1.0000
  N   N43       1.0  0.52554  0.73855  0.10344  1.0000
  N   N44       1.0  0.78703  0.36574  0.26159  1.0000
  N   N45       1.0  0.42079  0.89525  0.63473  1.0000
  N   N46       1.0  0.47446  0.26145  0.89656  1.0000
  N   N47       1.0  0.21297  0.63426  0.73841  1.0000
  N   N48       1.0  0.57921  0.10475  0.36527  1.0000
  N   N49       1.0  0.45775  0.71911  0.17115  1.0000
  N   N50       1.0  0.73880  0.45241  0.28140  1.0000
  N   N51       1.0  0.28584  0.82836  0.54807  1.0000
  N   N52       1.0  0.54225  0.28089  0.82885  1.0000
  N   N53       1.0  0.26120  0.54759  0.71860  1.0000
  N   N54       1.0  0.71416  0.17164  0.45193  1.0000
