data_image0
_chemical_formula_structural       Mn3H42C56N4O12
_chemical_formula_sum              "Mn3 H42 C56 N4 O12"
_cell_length_a       9.27005
_cell_length_b       11.9325
_cell_length_c       12.461
_cell_angle_alpha    61.1473
_cell_angle_beta     87.9482
_cell_angle_gamma    77.068

_space_group_name_H-M_alt    "P 1"
_space_group_IT_number       1

loop_
  _space_group_symop_operation_xyz
  'x, y, z'

loop_
  _atom_site_type_symbol
  _atom_site_label
  _atom_site_symmetry_multiplicity
  _atom_site_fract_x
  _atom_site_fract_y
  _atom_site_fract_z
  _atom_site_occupancy
  Mn  Mn1       1.0  1.00000  0.50001  1.00000  1.0000
  Mn  Mn2       1.0  0.79256  0.83308  0.82144  1.0000
  Mn  Mn3       1.0  0.20743  0.16692  0.17857  1.0000
  H   H1        1.0  0.83430  0.11477  0.70025  1.0000
  H   H2        1.0  0.16571  0.88523  0.29975  1.0000
  H   H3        1.0  0.59980  0.61249  0.88595  1.0000
  H   H4        1.0  0.40020  0.38751  0.11404  1.0000
  H   H5        1.0  0.72510  0.33389  0.51795  1.0000
  H   H6        1.0  0.27491  0.66611  0.48205  1.0000
  H   H7        1.0  0.80084  0.49939  0.66674  1.0000
  H   H8        1.0  0.19915  0.50061  0.33326  1.0000
  H   H9        1.0  0.47398  0.55330  0.21187  1.0000
  H   H10       1.0  0.52602  0.44671  0.78813  1.0000
  H   H11       1.0  0.24490  0.57383  0.10047  1.0000
  H   H12       1.0  0.75512  0.42617  0.89953  1.0000
  H   H13       1.0  0.98392  0.83979  0.48745  1.0000
  H   H14       1.0  0.01609  0.16021  0.51255  1.0000
  H   H15       1.0  0.25422  0.02510  0.59732  1.0000
  H   H16       1.0  0.74578  0.97490  0.40268  1.0000
  H   H17       1.0  0.36543  0.17296  0.48734  1.0000
  H   H18       1.0  0.63457  0.82705  0.51266  1.0000
  H   H19       1.0  0.70605  0.54818  0.27200  1.0000
  H   H20       1.0  0.29395  0.45182  0.72800  1.0000
  H   H21       1.0  0.77609  0.50090  0.46839  1.0000
  H   H22       1.0  0.22391  0.49910  0.53161  1.0000
  H   H23       1.0  0.95984  0.84110  0.28800  1.0000
  H   H24       1.0  0.04016  0.15890  0.71200  1.0000
  H   H25       1.0  0.14829  0.99429  0.94127  1.0000
  H   H26       1.0  0.85172  0.00571  0.05873  1.0000
  H   H27       1.0  0.56614  0.73148  0.29855  1.0000
  H   H28       1.0  0.43386  0.26852  0.70145  1.0000
  H   H29       1.0  0.61215  0.84945  0.15712  1.0000
  H   H30       1.0  0.38785  0.15055  0.84288  1.0000
  H   H31       1.0  0.95583  0.59108  0.24682  1.0000
  H   H32       1.0  0.04417  0.40892  0.75318  1.0000
  H   H33       1.0  0.88162  0.76228  0.17048  1.0000
  H   H34       1.0  0.11837  0.23772  0.82952  1.0000
  H   H35       1.0  0.16143  0.81924  0.69849  1.0000
  H   H36       1.0  0.83857  0.18075  0.30151  1.0000
  H   H37       1.0  0.37612  0.97538  0.05406  1.0000
  H   H38       1.0  0.62388  0.02462  0.94594  1.0000
  H   H39       1.0  0.48231  0.36272  0.40984  1.0000
  H   H40       1.0  0.51769  0.63729  0.59016  1.0000
  H   H41       1.0  0.33538  0.60818  0.84741  1.0000
  H   H42       1.0  0.66462  0.39181  0.15259  1.0000
  C   C1        1.0  0.73143  0.13262  0.64885  1.0000
  C   C2        1.0  0.26857  0.86738  0.35115  1.0000
  C   C3        1.0  0.51939  0.70113  0.82141  1.0000
  C   C4        1.0  0.48061  0.29886  0.17858  1.0000
  C   C5        1.0  0.66876  0.25416  0.54818  1.0000
  C   C6        1.0  0.33124  0.74584  0.45183  1.0000
  C   C7        1.0  0.74171  0.65682  0.08189  1.0000
  C   C8        1.0  0.25829  0.34318  0.91811  1.0000
  C   C9        1.0  0.47614  0.92569  0.68691  1.0000
  C   C10       1.0  0.52385  0.07431  0.31309  1.0000
  C   C11       1.0  0.83653  0.57373  0.58359  1.0000
  C   C12       1.0  0.16346  0.42627  0.41641  1.0000
  C   C13       1.0  0.40273  0.65064  0.15322  1.0000
  C   C14       1.0  0.59727  0.34937  0.84678  1.0000
  C   C15       1.0  0.27567  0.66127  0.08965  1.0000
  C   C16       1.0  0.72433  0.33874  0.91035  1.0000
  C   C17       1.0  0.89932  0.67678  0.70635  1.0000
  C   C18       1.0  0.10067  0.32321  0.29366  1.0000
  C   C19       1.0  0.89525  0.66907  0.59008  1.0000
  C   C20       1.0  0.10475  0.33093  0.40992  1.0000
  C   C21       1.0  0.53875  0.04338  0.63389  1.0000
  C   C22       1.0  0.46124  0.95662  0.36611  1.0000
  C   C23       1.0  0.94036  0.76456  0.48261  1.0000
  C   C24       1.0  0.05964  0.23544  0.51739  1.0000
  C   C25       1.0  0.32832  0.93155  0.66013  1.0000
  C   C26       1.0  0.67168  0.06845  0.33987  1.0000
  C   C27       1.0  0.46945  0.16299  0.53236  1.0000
  C   C28       1.0  0.53055  0.83701  0.46764  1.0000
  C   C29       1.0  0.44271  0.76311  0.13995  1.0000
  C   C30       1.0  0.55729  0.23690  0.86005  1.0000
  C   C31       1.0  0.71811  0.64817  0.20734  1.0000
  C   C32       1.0  0.28188  0.35183  0.79266  1.0000
  C   C33       1.0  0.82257  0.57527  0.47204  1.0000
  C   C34       1.0  0.17742  0.42473  0.52796  1.0000
  C   C35       1.0  0.86860  0.66961  0.36437  1.0000
  C   C36       1.0  0.13139  0.33040  0.63563  1.0000
  C   C37       1.0  0.05315  0.79596  0.93894  1.0000
  C   C38       1.0  0.94686  0.20404  0.06105  1.0000
  C   C39       1.0  0.92695  0.76473  0.37157  1.0000
  C   C40       1.0  0.07305  0.23527  0.62843  1.0000
  C   C41       1.0  0.18452  0.78538  0.01113  1.0000
  C   C42       1.0  0.81549  0.21462  0.98887  1.0000
  C   C43       1.0  0.22082  0.89809  0.00041  1.0000
  C   C44       1.0  0.77919  0.10191  0.99959  1.0000
  C   C45       1.0  0.58401  0.75297  0.20329  1.0000
  C   C46       1.0  0.41599  0.24703  0.79671  1.0000
  C   C47       1.0  0.86320  0.66849  0.24449  1.0000
  C   C48       1.0  0.13680  0.33151  0.75551  1.0000
  C   C49       1.0  0.27658  0.81690  0.71695  1.0000
  C   C50       1.0  0.72342  0.18309  0.28305  1.0000
  C   C51       1.0  0.34840  0.88676  0.06407  1.0000
  C   C52       1.0  0.65159  0.11324  0.93593  1.0000
  C   C53       1.0  0.53533  0.26932  0.48896  1.0000
  C   C54       1.0  0.46466  0.73068  0.51104  1.0000
  C   C55       1.0  0.37356  0.69914  0.79981  1.0000
  C   C56       1.0  0.62644  0.30085  0.20019  1.0000
  N   N1        1.0  0.57031  0.81113  0.76598  1.0000
  N   N2        1.0  0.42969  0.18887  0.23402  1.0000
  N   N3        1.0  0.66895  0.02959  0.69025  1.0000
  N   N4        1.0  0.33104  0.97041  0.30975  1.0000
  O   O1        1.0  0.02547  0.69010  0.95016  1.0000
  O   O2        1.0  0.97454  0.30990  0.04982  1.0000
  O   O3        1.0  0.89252  0.57641  0.80851  1.0000
  O   O4        1.0  0.10747  0.42358  0.19149  1.0000
  O   O5        1.0  0.79283  0.55224  0.07535  1.0000
  O   O6        1.0  0.20717  0.44776  0.92466  1.0000
  O   O7        1.0  0.96939  0.90828  0.86707  1.0000
  O   O8        1.0  0.03061  0.09173  0.13293  1.0000
  O   O9        1.0  0.90284  0.78970  0.69306  1.0000
  O   O10       1.0  0.09715  0.21030  0.30694  1.0000
  O   O11       1.0  0.71571  0.77349  0.99119  1.0000
  O   O12       1.0  0.28430  0.22651  0.00882  1.0000
