data_image0
_chemical_formula_structural       CdH28C28N10O6
_chemical_formula_sum              "Cd1 H28 C28 N10 O6"
_cell_length_a       9.03695
_cell_length_b       9.4522
_cell_length_c       9.8878
_cell_angle_alpha    79.4659
_cell_angle_beta     62.9246
_cell_angle_gamma    81.4947

_space_group_name_H-M_alt    "P 1"
_space_group_IT_number       1

loop_
  _space_group_symop_operation_xyz
  'x, y, z'

loop_
  _atom_site_type_symbol
  _atom_site_label
  _atom_site_symmetry_multiplicity
  _atom_site_fract_x
  _atom_site_fract_y
  _atom_site_fract_z
  _atom_site_occupancy
  Cd  Cd1       1.0  1.00000  0.50000  0.50000  1.0000
  H   H1        1.0  0.01041  0.51359  0.14361  1.0000
  H   H2        1.0  0.98960  0.48642  0.85639  1.0000
  H   H3        1.0  0.18880  0.30472  0.94664  1.0000
  H   H4        1.0  0.81120  0.69528  0.05336  1.0000
  H   H5        1.0  0.26222  0.20748  0.34879  1.0000
  H   H6        1.0  0.73777  0.79252  0.65121  1.0000
  H   H7        1.0  0.19816  0.95829  0.12976  1.0000
  H   H8        1.0  0.80184  0.04171  0.87024  1.0000
  H   H9        1.0  0.54427  0.36996  0.93355  1.0000
  H   H10       1.0  0.45573  0.63004  0.06645  1.0000
  H   H11       1.0  0.74049  0.28813  0.91869  1.0000
  H   H12       1.0  0.25951  0.71187  0.08132  1.0000
  H   H13       1.0  0.57195  0.30780  0.10087  1.0000
  H   H14       1.0  0.42805  0.69220  0.89913  1.0000
  H   H15       1.0  0.13574  0.82440  0.49990  1.0000
  H   H16       1.0  0.86426  0.17560  0.50011  1.0000
  H   H17       1.0  0.43464  0.45628  0.31675  1.0000
  H   H18       1.0  0.56536  0.54371  0.68324  1.0000
  H   H19       1.0  0.63364  0.64175  0.34170  1.0000
  H   H20       1.0  0.36636  0.35825  0.65830  1.0000
  H   H21       1.0  0.63102  0.93616  0.23638  1.0000
  H   H22       1.0  0.36899  0.06384  0.76362  1.0000
  H   H23       1.0  0.11002  0.87237  0.74024  1.0000
  H   H24       1.0  0.88998  0.12763  0.25976  1.0000
  H   H25       1.0  0.21007  0.85829  0.85869  1.0000
  H   H26       1.0  0.78993  0.14170  0.14131  1.0000
  H   H27       1.0  0.25030  0.72049  0.74185  1.0000
  H   H28       1.0  0.74970  0.27951  0.25815  1.0000
  C   C1        1.0  0.09076  0.41968  0.15525  1.0000
  C   C2        1.0  0.90924  0.58032  0.84475  1.0000
  C   C3        1.0  0.18007  0.32017  0.05609  1.0000
  C   C4        1.0  0.81993  0.67983  0.94390  1.0000
  C   C5        1.0  0.21968  0.26570  0.26614  1.0000
  C   C6        1.0  0.78032  0.73430  0.73386  1.0000
  C   C7        1.0  0.55248  0.13852  0.99141  1.0000
  C   C8        1.0  0.44752  0.86148  0.00860  1.0000
  C   C9        1.0  0.38365  0.10933  0.06218  1.0000
  C   C10       1.0  0.61635  0.89067  0.93782  1.0000
  C   C11       1.0  0.33101  0.97497  0.07165  1.0000
  C   C12       1.0  0.66899  0.02503  0.92834  1.0000
  C   C13       1.0  0.60549  0.28370  0.98530  1.0000
  C   C14       1.0  0.39451  0.71630  0.01470  1.0000
  C   C15       1.0  0.24170  0.74710  0.45483  1.0000
  C   C16       1.0  0.75830  0.25290  0.54518  1.0000
  C   C17       1.0  0.40256  0.56144  0.35584  1.0000
  C   C18       1.0  0.59745  0.43856  0.64416  1.0000
  C   C19       1.0  0.50312  0.65102  0.36511  1.0000
  C   C20       1.0  0.49688  0.34898  0.63489  1.0000
  C   C21       1.0  0.44655  0.88677  0.46802  1.0000
  C   C22       1.0  0.55345  0.11323  0.53199  1.0000
  C   C23       1.0  0.57478  0.96540  0.35205  1.0000
  C   C24       1.0  0.42523  0.03460  0.64795  1.0000
  C   C25       1.0  0.36752  0.91919  0.61963  1.0000
  C   C26       1.0  0.63248  0.08081  0.38037  1.0000
  C   C27       1.0  0.22830  0.83733  0.74664  1.0000
  C   C28       1.0  0.77170  0.16267  0.25336  1.0000
  N   N1        1.0  0.11656  0.38411  0.28515  1.0000
  N   N2        1.0  0.88344  0.61589  0.71485  1.0000
  N   N3        1.0  0.26113  0.22324  0.12816  1.0000
  N   N4        1.0  0.73887  0.77676  0.87184  1.0000
  N   N5        1.0  0.24059  0.62255  0.41131  1.0000
  N   N6        1.0  0.75941  0.37745  0.58870  1.0000
  N   N7        1.0  0.07746  0.21058  0.70118  1.0000
  N   N8        1.0  0.92254  0.78942  0.29882  1.0000
  N   N9        1.0  0.39845  0.76827  0.42967  1.0000
  N   N10       1.0  0.60155  0.23173  0.57034  1.0000
  O   O1        1.0  0.14781  0.32759  0.62133  1.0000
  O   O2        1.0  0.85219  0.67241  0.37867  1.0000
  O   O3        1.0  0.03918  0.12704  0.63846  1.0000
  O   O4        1.0  0.96082  0.87296  0.36154  1.0000
  O   O5        1.0  0.05035  0.18374  0.83962  1.0000
  O   O6        1.0  0.94965  0.81626  0.16038  1.0000
