data_image0
_chemical_formula_structural       Cd4H44C56N12O18
_chemical_formula_sum              "Cd4 H44 C56 N12 O18"
_cell_length_a       9.65991
_cell_length_b       12.3323
_cell_length_c       14.075
_cell_angle_alpha    111.532
_cell_angle_beta     90
_cell_angle_gamma    113.057

_space_group_name_H-M_alt    "P 1"
_space_group_IT_number       1

loop_
  _space_group_symop_operation_xyz
  'x, y, z'

loop_
  _atom_site_type_symbol
  _atom_site_label
  _atom_site_symmetry_multiplicity
  _atom_site_fract_x
  _atom_site_fract_y
  _atom_site_fract_z
  _atom_site_occupancy
  Cd  Cd1       1.0  0.93918  0.94404  0.34701  1.0000
  Cd  Cd2       1.0  0.99540  0.05599  0.15307  1.0000
  Cd  Cd3       1.0  0.06082  0.05596  0.65299  1.0000
  Cd  Cd4       1.0  0.00460  0.94401  0.84693  1.0000
  H   H1        1.0  0.37544  0.80670  0.16765  1.0000
  H   H2        1.0  0.56901  0.19305  0.33221  1.0000
  H   H3        1.0  0.62456  0.19330  0.83235  1.0000
  H   H4        1.0  0.43100  0.80695  0.66778  1.0000
  H   H5        1.0  0.21364  0.58948  0.41397  1.0000
  H   H6        1.0  0.62407  0.41053  0.08609  1.0000
  H   H7        1.0  0.78636  0.41052  0.58603  1.0000
  H   H8        1.0  0.37594  0.58947  0.91391  1.0000
  H   H9        1.0  0.24798  0.79893  0.32302  1.0000
  H   H10       1.0  0.44938  0.20098  0.17689  1.0000
  H   H11       1.0  0.75202  0.20107  0.67698  1.0000
  H   H12       1.0  0.55063  0.79902  0.82311  1.0000
  H   H13       1.0  0.98263  0.78232  0.47750  1.0000
  H   H14       1.0  0.20022  0.21774  0.02266  1.0000
  H   H15       1.0  0.01737  0.21768  0.52250  1.0000
  H   H16       1.0  0.79978  0.78226  0.97734  1.0000
  H   H17       1.0  0.92839  0.65472  0.15196  1.0000
  H   H18       1.0  0.27399  0.34553  0.34821  1.0000
  H   H19       1.0  0.07161  0.34528  0.84804  1.0000
  H   H20       1.0  0.72599  0.65446  0.65178  1.0000
  H   H21       1.0  0.40126  0.83085  0.48280  1.0000
  H   H22       1.0  0.57073  0.16913  0.01712  1.0000
  H   H23       1.0  0.59873  0.16914  0.51720  1.0000
  H   H24       1.0  0.42927  0.83088  0.98288  1.0000
  H   H25       1.0  0.94062  0.46179  0.20793  1.0000
  H   H26       1.0  0.47891  0.53841  0.29210  1.0000
  H   H27       1.0  0.05938  0.53822  0.79207  1.0000
  H   H28       1.0  0.52108  0.46159  0.70790  1.0000
  H   H29       1.0  0.29456  0.40782  0.52112  1.0000
  H   H30       1.0  0.88670  0.59202  0.97893  1.0000
  H   H31       1.0  0.70544  0.59218  0.47888  1.0000
  H   H32       1.0  0.11331  0.40798  0.02108  1.0000
  H   H33       1.0  0.33469  0.54703  0.63493  1.0000
  H   H34       1.0  0.78766  0.45281  0.86510  1.0000
  H   H35       1.0  0.66531  0.45297  0.36507  1.0000
  H   H36       1.0  0.21233  0.54718  0.13490  1.0000
  H   H37       1.0  0.38558  0.56326  0.51827  1.0000
  H   H38       1.0  0.82219  0.43660  0.98180  1.0000
  H   H39       1.0  0.61443  0.43674  0.48173  1.0000
  H   H40       1.0  0.17780  0.56340  0.01821  1.0000
  H   H41       1.0  0.17330  0.94008  0.19183  1.0000
  H   H42       1.0  0.23318  0.06006  0.30837  1.0000
  H   H43       1.0  0.82670  0.05992  0.80817  1.0000
  H   H44       1.0  0.76682  0.93993  0.69163  1.0000
  C   C1        1.0  0.59040  0.83998  0.24397  1.0000
  C   C2        1.0  0.75078  0.15996  0.25589  1.0000
  C   C3        1.0  0.40960  0.16002  0.75603  1.0000
  C   C4        1.0  0.24922  0.84005  0.74411  1.0000
  C   C5        1.0  0.43624  0.81738  0.23803  1.0000
  C   C6        1.0  0.61916  0.18246  0.26184  1.0000
  C   C7        1.0  0.56376  0.18262  0.76197  1.0000
  C   C8        1.0  0.38084  0.81755  0.73816  1.0000
  C   C9        1.0  0.14541  0.50169  0.52376  1.0000
  C   C10       1.0  0.64367  0.49822  0.97623  1.0000
  C   C11       1.0  0.85460  0.49831  0.47623  1.0000
  C   C12       1.0  0.35633  0.50178  0.02378  1.0000
  C   C13       1.0  0.70810  0.88739  0.51103  1.0000
  C   C14       1.0  0.82071  0.11234  0.98876  1.0000
  C   C15       1.0  0.29190  0.11261  0.48897  1.0000
  C   C16       1.0  0.17929  0.88766  0.01124  1.0000
  C   C17       1.0  0.12060  0.54753  0.45128  1.0000
  C   C18       1.0  0.57302  0.45246  0.04875  1.0000
  C   C19       1.0  0.87940  0.45247  0.54872  1.0000
  C   C20       1.0  0.42699  0.54755  0.95125  1.0000
  C   C21       1.0  0.60601  0.85698  0.41430  1.0000
  C   C22       1.0  0.74927  0.14289  0.08557  1.0000
  C   C23       1.0  0.39399  0.14301  0.58570  1.0000
  C   C24       1.0  0.25073  0.85711  0.91443  1.0000
  C   C25       1.0  0.36702  0.81374  0.32442  1.0000
  C   C26       1.0  0.55358  0.18616  0.17548  1.0000
  C   C27       1.0  0.63298  0.18625  0.67558  1.0000
  C   C28       1.0  0.44643  0.81385  0.82452  1.0000
  C   C29       1.0  0.97898  0.54537  0.42863  1.0000
  C   C30       1.0  0.43358  0.45471  0.07141  1.0000
  C   C31       1.0  0.02102  0.45463  0.57137  1.0000
  C   C32       1.0  0.56643  0.54529  0.92859  1.0000
  C   C33       1.0  0.96639  0.72293  0.39571  1.0000
  C   C34       1.0  0.24347  0.27720  0.10444  1.0000
  C   C35       1.0  0.03361  0.27707  0.60429  1.0000
  C   C36       1.0  0.75653  0.72280  0.89556  1.0000
  C   C37       1.0  0.94032  0.65181  0.22735  1.0000
  C   C38       1.0  0.28874  0.34838  0.27280  1.0000
  C   C39       1.0  0.05968  0.34819  0.77265  1.0000
  C   C40       1.0  0.71125  0.65161  0.72720  1.0000
  C   C41       1.0  0.67313  0.84823  0.15318  1.0000
  C   C42       1.0  0.82535  0.15183  0.34672  1.0000
  C   C43       1.0  0.32687  0.15177  0.84682  1.0000
  C   C44       1.0  0.17466  0.84816  0.65328  1.0000
  C   C45       1.0  0.45170  0.83161  0.41367  1.0000
  C   C46       1.0  0.62037  0.16832  0.08624  1.0000
  C   C47       1.0  0.54829  0.16838  0.58632  1.0000
  C   C48       1.0  0.37963  0.83168  0.91376  1.0000
  C   C49       1.0  0.94739  0.55670  0.25347  1.0000
  C   C50       1.0  0.39082  0.44349  0.24661  1.0000
  C   C51       1.0  0.05261  0.44330  0.74652  1.0000
  C   C52       1.0  0.60918  0.55651  0.75339  1.0000
  C   C53       1.0  0.29799  0.50500  0.55064  1.0000
  C   C54       1.0  0.79293  0.49486  0.94940  1.0000
  C   C55       1.0  0.70201  0.49500  0.44936  1.0000
  C   C56       1.0  0.20707  0.50515  0.05061  1.0000
  N   N1        1.0  0.67229  0.86124  0.33111  1.0000
  N   N2        1.0  0.81137  0.13868  0.16874  1.0000
  N   N3        1.0  0.32771  0.13875  0.66888  1.0000
  N   N4        1.0  0.18863  0.86132  0.83126  1.0000
  N   N5        1.0  0.96408  0.60383  0.36069  1.0000
  N   N6        1.0  0.36022  0.39632  0.13939  1.0000
  N   N7        1.0  0.03592  0.39617  0.63931  1.0000
  N   N8        1.0  0.63978  0.60368  0.86061  1.0000
  N   N9        1.0  0.95247  0.75411  0.31661  1.0000
  N   N10       1.0  0.19851  0.24605  0.18357  1.0000
  N   N11       1.0  0.04753  0.24589  0.68339  1.0000
  N   N12       1.0  0.80148  0.75394  0.81642  1.0000
  O   O1        1.0  0.14348  0.99998  0.25011  1.0000
  O   O2        1.0  0.85652  0.00002  0.74988  1.0000
  O   O3        1.0  0.81561  0.86857  0.16534  1.0000
  O   O4        1.0  0.94758  0.13164  0.33463  1.0000
  O   O5        1.0  0.18439  0.13143  0.83465  1.0000
  O   O6        1.0  0.05242  0.86836  0.66536  1.0000
  O   O7        1.0  0.85222  0.94079  0.51245  1.0000
  O   O8        1.0  0.91159  0.05910  0.98737  1.0000
  O   O9        1.0  0.14778  0.05921  0.48755  1.0000
  O   O10       1.0  0.08841  0.94090  0.01263  1.0000
  O   O11       1.0  0.60085  0.83716  0.07441  1.0000
  O   O12       1.0  0.76411  0.16286  0.42547  1.0000
  O   O13       1.0  0.39915  0.16285  0.92559  1.0000
  O   O14       1.0  0.23590  0.83714  0.57453  1.0000
  O   O15       1.0  0.64537  0.85963  0.58264  1.0000
  O   O16       1.0  0.78541  0.13983  0.91706  1.0000
  O   O17       1.0  0.35462  0.14037  0.41736  1.0000
  O   O18       1.0  0.21458  0.86017  0.08293  1.0000
