data_image0
_chemical_formula_structural       Cd2H56C72N8O8
_chemical_formula_sum              "Cd2 H56 C72 N8 O8"
_cell_length_a       9.63244
_cell_length_b       11.5112
_cell_length_c       16.675
_cell_angle_alpha    73.8171
_cell_angle_beta     76.5269
_cell_angle_gamma    66.1117

_space_group_name_H-M_alt    "P 1"
_space_group_IT_number       1

loop_
  _space_group_symop_operation_xyz
  'x, y, z'

loop_
  _atom_site_type_symbol
  _atom_site_label
  _atom_site_symmetry_multiplicity
  _atom_site_fract_x
  _atom_site_fract_y
  _atom_site_fract_z
  _atom_site_occupancy
  Cd  Cd1       1.0  0.36953  0.46463  0.44498  1.0000
  Cd  Cd2       1.0  0.63047  0.53537  0.55502  1.0000
  H   H1        1.0  0.65993  0.46630  0.07550  1.0000
  H   H2        1.0  0.34006  0.53370  0.92450  1.0000
  H   H3        1.0  0.88330  0.36605  0.97476  1.0000
  H   H4        1.0  0.11670  0.63395  0.02525  1.0000
  H   H5        1.0  0.91232  0.16282  0.93490  1.0000
  H   H6        1.0  0.08768  0.83718  0.06510  1.0000
  H   H7        1.0  0.71539  0.06285  0.99618  1.0000
  H   H8        1.0  0.28461  0.93716  0.00382  1.0000
  H   H9        1.0  0.49394  0.16092  0.09739  1.0000
  H   H10       1.0  0.50606  0.83908  0.90261  1.0000
  H   H11       1.0  0.29225  0.34097  0.04862  1.0000
  H   H12       1.0  0.70775  0.65903  0.95138  1.0000
  H   H13       1.0  0.02579  0.35097  0.07868  1.0000
  H   H14       1.0  0.97421  0.64903  0.92132  1.0000
  H   H15       1.0  0.86495  0.40162  0.21455  1.0000
  H   H16       1.0  0.13506  0.59837  0.78545  1.0000
  H   H17       1.0  0.98304  0.43372  0.32212  1.0000
  H   H18       1.0  0.01696  0.56628  0.67788  1.0000
  H   H19       1.0  0.84545  0.30886  0.74345  1.0000
  H   H20       1.0  0.15455  0.69114  0.25655  1.0000
  H   H21       1.0  0.69870  0.16203  0.79933  1.0000
  H   H22       1.0  0.30129  0.83797  0.20067  1.0000
  H   H23       1.0  0.83574  0.92356  0.84603  1.0000
  H   H24       1.0  0.16426  0.07644  0.15397  1.0000
  H   H25       1.0  0.12083  0.83399  0.83659  1.0000
  H   H26       1.0  0.87917  0.16601  0.16342  1.0000
  H   H27       1.0  0.26699  0.98072  0.77771  1.0000
  H   H28       1.0  0.73301  0.01928  0.22229  1.0000
  H   H29       1.0  0.17493  0.15069  0.88407  1.0000
  H   H30       1.0  0.82507  0.84931  0.11593  1.0000
  H   H31       1.0  0.33427  0.19287  0.96020  1.0000
  H   H32       1.0  0.66573  0.80713  0.03980  1.0000
  H   H33       1.0  0.49594  0.32500  0.88359  1.0000
  H   H34       1.0  0.50406  0.67500  0.11641  1.0000
  H   H35       1.0  0.49367  0.41242  0.72972  1.0000
  H   H36       1.0  0.50632  0.58758  0.27028  1.0000
  H   H37       1.0  0.32922  0.77179  0.38279  1.0000
  H   H38       1.0  0.67078  0.22821  0.61720  1.0000
  H   H39       1.0  0.11724  0.98761  0.37633  1.0000
  H   H40       1.0  0.88276  0.01239  0.62367  1.0000
  H   H41       1.0  0.81183  0.78089  0.50786  1.0000
  H   H42       1.0  0.18817  0.21911  0.49214  1.0000
  H   H43       1.0  0.03416  0.57964  0.51191  1.0000
  H   H44       1.0  0.96584  0.42036  0.48809  1.0000
  H   H45       1.0  0.66340  0.95381  0.53950  1.0000
  H   H46       1.0  0.33660  0.04619  0.46050  1.0000
  H   H47       1.0  0.45114  0.16912  0.53680  1.0000
  H   H48       1.0  0.54886  0.83088  0.46320  1.0000
  H   H49       1.0  0.69941  0.35187  0.34559  1.0000
  H   H50       1.0  0.30059  0.64813  0.65441  1.0000
  H   H51       1.0  0.92143  0.14531  0.33741  1.0000
  H   H52       1.0  0.07858  0.85469  0.66259  1.0000
  H   H53       1.0  0.14390  0.28832  0.65986  1.0000
  H   H54       1.0  0.85610  0.71168  0.34013  1.0000
  H   H55       1.0  0.46055  0.42029  0.19247  1.0000
  H   H56       1.0  0.53944  0.57972  0.80753  1.0000
  C   C1        1.0  0.67322  0.37717  0.05831  1.0000
  C   C2        1.0  0.32678  0.62283  0.94169  1.0000
  C   C3        1.0  0.79879  0.32013  0.00214  1.0000
  C   C4        1.0  0.20121  0.67987  0.99786  1.0000
  C   C5        1.0  0.81503  0.20700  0.97919  1.0000
  C   C6        1.0  0.18497  0.79300  0.02082  1.0000
  C   C7        1.0  0.70357  0.15159  0.01325  1.0000
  C   C8        1.0  0.29643  0.84841  0.98675  1.0000
  C   C9        1.0  0.57755  0.20749  0.06958  1.0000
  C   C10       1.0  0.42245  0.79251  0.93042  1.0000
  C   C11       1.0  0.56025  0.32188  0.09266  1.0000
  C   C12       1.0  0.43975  0.67812  0.90734  1.0000
  C   C13       1.0  0.29301  0.37843  0.16862  1.0000
  C   C14       1.0  0.70699  0.62158  0.83138  1.0000
  C   C15       1.0  0.22592  0.35746  0.10960  1.0000
  C   C16       1.0  0.77408  0.64255  0.89040  1.0000
  C   C17       1.0  0.07493  0.36454  0.12653  1.0000
  C   C18       1.0  0.92507  0.63546  0.87348  1.0000
  C   C19       1.0  0.98491  0.39176  0.20304  1.0000
  C   C20       1.0  0.01509  0.60825  0.79696  1.0000
  C   C21       1.0  0.04977  0.41091  0.26226  1.0000
  C   C22       1.0  0.95023  0.58910  0.73774  1.0000
  C   C23       1.0  0.20203  0.40491  0.24705  1.0000
  C   C24       1.0  0.79797  0.59510  0.75295  1.0000
  C   C25       1.0  0.26227  0.42841  0.31331  1.0000
  C   C26       1.0  0.73773  0.57159  0.68669  1.0000
  C   C27       1.0  0.06539  0.15390  0.75608  1.0000
  C   C28       1.0  0.93460  0.84610  0.24392  1.0000
  C   C29       1.0  0.90526  0.20450  0.76256  1.0000
  C   C30       1.0  0.09474  0.79550  0.23744  1.0000
  C   C31       1.0  0.82338  0.12146  0.79427  1.0000
  C   C32       1.0  0.17662  0.87854  0.20573  1.0000
  C   C33       1.0  0.89995  0.98821  0.82090  1.0000
  C   C34       1.0  0.10004  0.01179  0.17910  1.0000
  C   C35       1.0  0.05982  0.93769  0.81548  1.0000
  C   C36       1.0  0.94018  0.06231  0.18452  1.0000
  C   C37       1.0  0.14230  0.01987  0.78279  1.0000
  C   C38       1.0  0.85770  0.98013  0.21721  1.0000
  C   C39       1.0  0.24530  0.20771  0.85001  1.0000
  C   C40       1.0  0.75470  0.79229  0.14999  1.0000
  C   C41       1.0  0.33456  0.23244  0.89257  1.0000
  C   C42       1.0  0.66544  0.76756  0.10743  1.0000
  C   C43       1.0  0.42426  0.30738  0.85001  1.0000
  C   C44       1.0  0.57574  0.69263  0.14998  1.0000
  C   C45       1.0  0.42347  0.35531  0.76383  1.0000
  C   C46       1.0  0.57653  0.64469  0.23617  1.0000
  C   C47       1.0  0.33497  0.33190  0.71817  1.0000
  C   C48       1.0  0.66502  0.66810  0.28182  1.0000
  C   C49       1.0  0.24170  0.25718  0.76228  1.0000
  C   C50       1.0  0.75829  0.74282  0.23772  1.0000
  C   C51       1.0  0.34226  0.38433  0.62609  1.0000
  C   C52       1.0  0.65774  0.61567  0.37391  1.0000
  C   C53       1.0  0.21208  0.78009  0.41016  1.0000
  C   C54       1.0  0.78792  0.21991  0.58985  1.0000
  C   C55       1.0  0.09279  0.89983  0.40649  1.0000
  C   C56       1.0  0.90721  0.10016  0.59351  1.0000
  C   C57       1.0  0.94340  0.90525  0.44099  1.0000
  C   C58       1.0  0.05660  0.09474  0.55901  1.0000
  C   C59       1.0  0.92280  0.78728  0.47936  1.0000
  C   C60       1.0  0.07720  0.21272  0.52064  1.0000
  C   C61       1.0  0.04803  0.67177  0.48131  1.0000
  C   C62       1.0  0.95197  0.32823  0.51869  1.0000
  C   C63       1.0  0.81287  0.03004  0.43875  1.0000
  C   C64       1.0  0.18713  0.96996  0.56125  1.0000
  C   C65       1.0  0.67627  0.03866  0.49407  1.0000
  C   C66       1.0  0.32374  0.96134  0.50593  1.0000
  C   C67       1.0  0.55755  0.15818  0.49333  1.0000
  C   C68       1.0  0.44245  0.84182  0.50667  1.0000
  C   C69       1.0  0.69685  0.26060  0.38685  1.0000
  C   C70       1.0  0.30316  0.73940  0.61315  1.0000
  C   C71       1.0  0.82083  0.14484  0.38353  1.0000
  C   C72       1.0  0.17918  0.85516  0.61647  1.0000
  N   N1        1.0  0.14874  0.23716  0.72113  1.0000
  N   N2        1.0  0.85125  0.76284  0.27887  1.0000
  N   N3        1.0  0.43951  0.37942  0.15110  1.0000
  N   N4        1.0  0.56050  0.62059  0.84890  1.0000
  N   N5        1.0  0.19025  0.66810  0.44687  1.0000
  N   N6        1.0  0.80975  0.33190  0.55313  1.0000
  N   N7        1.0  0.56783  0.26756  0.44109  1.0000
  N   N8        1.0  0.43218  0.73244  0.55891  1.0000
  O   O1        1.0  0.38189  0.45978  0.29334  1.0000
  O   O2        1.0  0.61811  0.54022  0.70666  1.0000
  O   O3        1.0  0.19378  0.41763  0.38893  1.0000
  O   O4        1.0  0.80622  0.58237  0.61107  1.0000
  O   O5        1.0  0.25643  0.37044  0.58354  1.0000
  O   O6        1.0  0.74357  0.62956  0.41646  1.0000
  O   O7        1.0  0.43631  0.44219  0.58760  1.0000
  O   O8        1.0  0.56368  0.55781  0.41240  1.0000
