data_image0
_chemical_formula_structural       Zn4H16C28N16O4
_chemical_formula_sum              "Zn4 H16 C28 N16 O4"
_cell_length_a       8.8943
_cell_length_b       9.62652
_cell_length_c       9.71641
_cell_angle_alpha    90
_cell_angle_beta     98.4488
_cell_angle_gamma    89.9999

_space_group_name_H-M_alt    "P 1"
_space_group_IT_number       1

loop_
  _space_group_symop_operation_xyz
  'x, y, z'

loop_
  _atom_site_type_symbol
  _atom_site_label
  _atom_site_symmetry_multiplicity
  _atom_site_fract_x
  _atom_site_fract_y
  _atom_site_fract_z
  _atom_site_occupancy
  Zn  Zn1       1.0  0.99241  0.14236  0.89823  1.0000
  Zn  Zn2       1.0  0.50759  0.64236  0.60178  1.0000
  Zn  Zn3       1.0  0.00759  0.85764  0.10178  1.0000
  Zn  Zn4       1.0  0.49241  0.35764  0.39822  1.0000
  H   H1        1.0  0.69965  0.06377  0.99696  1.0000
  H   H2        1.0  0.80035  0.56377  0.50303  1.0000
  H   H3        1.0  0.30035  0.93623  0.00304  1.0000
  H   H4        1.0  0.19965  0.43623  0.49696  1.0000
  H   H5        1.0  0.42313  0.12993  0.93453  1.0000
  H   H6        1.0  0.07687  0.62993  0.56547  1.0000
  H   H7        1.0  0.57687  0.87007  0.06547  1.0000
  H   H8        1.0  0.92313  0.37007  0.43453  1.0000
  H   H9        1.0  0.34917  0.29679  0.73881  1.0000
  H   H10       1.0  0.15083  0.79679  0.76119  1.0000
  H   H11       1.0  0.65083  0.70321  0.26119  1.0000
  H   H12       1.0  0.84917  0.20321  0.23881  1.0000
  H   H13       1.0  0.82343  0.32699  0.69479  1.0000
  H   H14       1.0  0.67657  0.82699  0.80521  1.0000
  H   H15       1.0  0.17657  0.67301  0.30521  1.0000
  H   H16       1.0  0.32343  0.17301  0.19479  1.0000
  C   C1        1.0  0.32702  0.92925  0.55860  1.0000
  C   C2        1.0  0.17298  0.42925  0.94140  1.0000
  C   C3        1.0  0.67298  0.07075  0.44140  1.0000
  C   C4        1.0  0.82703  0.57075  0.05860  1.0000
  C   C5        1.0  0.15747  0.07107  0.64414  1.0000
  C   C6        1.0  0.34253  0.57107  0.85586  1.0000
  C   C7        1.0  0.84253  0.92893  0.35586  1.0000
  C   C8        1.0  0.65747  0.42893  0.14414  1.0000
  C   C9        1.0  0.66102  0.13783  0.91455  1.0000
  C   C10       1.0  0.83898  0.63783  0.58545  1.0000
  C   C11       1.0  0.33897  0.86217  0.08545  1.0000
  C   C12       1.0  0.16103  0.36217  0.41455  1.0000
  C   C13       1.0  0.50910  0.17491  0.87876  1.0000
  C   C14       1.0  0.99090  0.67491  0.62124  1.0000
  C   C15       1.0  0.49090  0.82509  0.12124  1.0000
  C   C16       1.0  0.00910  0.32509  0.37876  1.0000
  C   C17       1.0  0.46792  0.26908  0.77112  1.0000
  C   C18       1.0  0.03208  0.76908  0.72888  1.0000
  C   C19       1.0  0.53208  0.73092  0.22888  1.0000
  C   C20       1.0  0.96792  0.23092  0.27112  1.0000
  C   C21       1.0  0.58055  0.32751  0.70113  1.0000
  C   C22       1.0  0.91945  0.82751  0.79887  1.0000
  C   C23       1.0  0.41945  0.67249  0.29887  1.0000
  C   C24       1.0  0.08055  0.17249  0.20113  1.0000
  C   C25       1.0  0.73145  0.28491  0.74516  1.0000
  C   C26       1.0  0.76854  0.78491  0.75484  1.0000
  C   C27       1.0  0.26854  0.71509  0.25484  1.0000
  C   C28       1.0  0.23145  0.21509  0.24516  1.0000
  N   N1        1.0  0.22643  0.02694  0.54543  1.0000
  N   N2        1.0  0.27358  0.52694  0.95458  1.0000
  N   N3        1.0  0.77357  0.97306  0.45458  1.0000
  N   N4        1.0  0.72643  0.47306  0.04542  1.0000
  N   N5        1.0  0.41982  0.84168  0.56096  1.0000
  N   N6        1.0  0.08018  0.34168  0.93905  1.0000
  N   N7        1.0  0.58018  0.15832  0.43904  1.0000
  N   N8        1.0  0.91982  0.65832  0.06096  1.0000
  N   N9        1.0  0.08996  0.12027  0.72781  1.0000
  N   N10       1.0  0.41004  0.62027  0.77219  1.0000
  N   N11       1.0  0.91004  0.87973  0.27220  1.0000
  N   N12       1.0  0.58996  0.37973  0.22780  1.0000
  N   N13       1.0  0.76931  0.19243  0.84741  1.0000
  N   N14       1.0  0.73069  0.69244  0.65259  1.0000
  N   N15       1.0  0.23069  0.80757  0.15259  1.0000
  N   N16       1.0  0.26931  0.30756  0.34741  1.0000
  O   O1        1.0  0.54910  0.41725  0.59685  1.0000
  O   O2        1.0  0.95090  0.91725  0.90315  1.0000
  O   O3        1.0  0.45090  0.58275  0.40315  1.0000
  O   O4        1.0  0.04910  0.08275  0.09685  1.0000
