data_image0
_chemical_formula_structural       Mn2H40C40N10O8
_chemical_formula_sum              "Mn2 H40 C40 N10 O8"
_cell_length_a       8.44998
_cell_length_b       9.79956
_cell_length_c       13.6856
_cell_angle_alpha    75.4986
_cell_angle_beta     72.0834
_cell_angle_gamma    64.4621

_space_group_name_H-M_alt    "P 1"
_space_group_IT_number       1

loop_
  _space_group_symop_operation_xyz
  'x, y, z'

loop_
  _atom_site_type_symbol
  _atom_site_label
  _atom_site_symmetry_multiplicity
  _atom_site_fract_x
  _atom_site_fract_y
  _atom_site_fract_z
  _atom_site_occupancy
  Mn  Mn1       1.0  1.00000  0.50000  0.00000  1.0000
  Mn  Mn2       1.0  0.50000  0.00000  0.50000  1.0000
  H   H1        1.0  0.29812  0.61152  0.14033  1.0000
  H   H2        1.0  0.04881  0.88841  0.35968  1.0000
  H   H3        1.0  0.70188  0.38848  0.85966  1.0000
  H   H4        1.0  0.95119  0.11159  0.64032  1.0000
  H   H5        1.0  0.12139  0.87120  0.06325  1.0000
  H   H6        1.0  0.05554  0.62838  0.43643  1.0000
  H   H7        1.0  0.87862  0.12880  0.93674  1.0000
  H   H8        1.0  0.94447  0.37162  0.56356  1.0000
  H   H9        1.0  0.27597  0.02163  0.92655  1.0000
  H   H10       1.0  0.22425  0.47810  0.57326  1.0000
  H   H11       1.0  0.72404  0.97837  0.07344  1.0000
  H   H12       1.0  0.77575  0.52190  0.42674  1.0000
  H   H13       1.0  0.46121  0.08362  0.76532  1.0000
  H   H14       1.0  0.31097  0.41593  0.73438  1.0000
  H   H15       1.0  0.53880  0.91638  0.23467  1.0000
  H   H16       1.0  0.68903  0.58407  0.26562  1.0000
  H   H17       1.0  0.64992  0.11900  0.76863  1.0000
  H   H18       1.0  0.53826  0.38086  0.73104  1.0000
  H   H19       1.0  0.35009  0.88100  0.23137  1.0000
  H   H20       1.0  0.46174  0.61914  0.26896  1.0000
  H   H21       1.0  0.46472  0.14247  0.87912  1.0000
  H   H22       1.0  0.48671  0.35769  0.62042  1.0000
  H   H23       1.0  0.53528  0.85753  0.12088  1.0000
  H   H24       1.0  0.51330  0.64231  0.37958  1.0000
  H   H25       1.0  0.57412  0.40075  0.14654  1.0000
  H   H26       1.0  0.12024  0.09911  0.35364  1.0000
  H   H27       1.0  0.42589  0.59924  0.85345  1.0000
  H   H28       1.0  0.87977  0.90089  0.64636  1.0000
  H   H29       1.0  0.79216  0.21080  0.18900  1.0000
  H   H30       1.0  0.19206  0.28842  0.31029  1.0000
  H   H31       1.0  0.20785  0.78920  0.81100  1.0000
  H   H32       1.0  0.80795  0.71158  0.68971  1.0000
  H   H33       1.0  0.97953  0.24903  0.19422  1.0000
  H   H34       1.0  0.42302  0.24954  0.30479  1.0000
  H   H35       1.0  0.02048  0.75097  0.80578  1.0000
  H   H36       1.0  0.57698  0.75046  0.69521  1.0000
  H   H37       1.0  0.99466  0.17105  0.08760  1.0000
  H   H38       1.0  0.25437  0.32862  0.41127  1.0000
  H   H39       1.0  0.00534  0.82895  0.91240  1.0000
  H   H40       1.0  0.74563  0.67138  0.58873  1.0000
  C   C1        1.0  0.54172  0.84655  0.92450  1.0000
  C   C2        1.0  0.31239  0.65338  0.57547  1.0000
  C   C3        1.0  0.45828  0.15345  0.07550  1.0000
  C   C4        1.0  0.68761  0.34662  0.42453  1.0000
  C   C5        1.0  0.64641  0.69804  0.96895  1.0000
  C   C6        1.0  0.31253  0.80195  0.53121  1.0000
  C   C7        1.0  0.35359  0.30196  0.03105  1.0000
  C   C8        1.0  0.68747  0.19806  0.46880  1.0000
  C   C9        1.0  0.55603  0.61480  0.04857  1.0000
  C   C10       1.0  0.21769  0.88535  0.45198  1.0000
  C   C11       1.0  0.44398  0.38520  0.95143  1.0000
  C   C12       1.0  0.78231  0.11465  0.54802  1.0000
  C   C13       1.0  0.36594  0.67797  0.08042  1.0000
  C   C14       1.0  0.12300  0.82196  0.41977  1.0000
  C   C15       1.0  0.63406  0.32203  0.91958  1.0000
  C   C16       1.0  0.87701  0.17804  0.58023  1.0000
  C   C17       1.0  0.26747  0.82217  0.03679  1.0000
  C   C18       1.0  0.12573  0.67763  0.46310  1.0000
  C   C19       1.0  0.73253  0.17783  0.96320  1.0000
  C   C20       1.0  0.87427  0.32236  0.53690  1.0000
  C   C21       1.0  0.35490  0.90703  0.95859  1.0000
  C   C22       1.0  0.22022  0.59282  0.54132  1.0000
  C   C23       1.0  0.64511  0.09297  0.04140  1.0000
  C   C24       1.0  0.77978  0.40718  0.45868  1.0000
  C   C25       1.0  0.54630  0.07558  0.81483  1.0000
  C   C26       1.0  0.43723  0.42431  0.68488  1.0000
  C   C27       1.0  0.45370  0.92442  0.18517  1.0000
  C   C28       1.0  0.56277  0.57569  0.31513  1.0000
  C   C29       1.0  0.65477  0.46578  0.09682  1.0000
  C   C30       1.0  0.21611  0.03402  0.40351  1.0000
  C   C31       1.0  0.34523  0.53422  0.90318  1.0000
  C   C32       1.0  0.78390  0.96598  0.59649  1.0000
  C   C33       1.0  0.90072  0.24983  0.14351  1.0000
  C   C34       1.0  0.29437  0.24947  0.35571  1.0000
  C   C35       1.0  0.09928  0.75017  0.85649  1.0000
  C   C36       1.0  0.70562  0.75053  0.64429  1.0000
  C   C37       1.0  0.08864  0.30952  0.82483  1.0000
  C   C38       1.0  0.22257  0.18902  0.67585  1.0000
  C   C39       1.0  0.91135  0.69048  0.17518  1.0000
  C   C40       1.0  0.77741  0.81098  0.32415  1.0000
  N   N1        1.0  0.82803  0.40345  0.08820  1.0000
  N   N2        1.0  0.31889  0.09632  0.41158  1.0000
  N   N3        1.0  0.17198  0.59655  0.91180  1.0000
  N   N4        1.0  0.68110  0.90368  0.58842  1.0000
  N   N5        1.0  0.09144  0.24767  0.75098  1.0000
  N   N6        1.0  0.90853  0.75232  0.24903  1.0000
  N   N7        1.0  0.06727  0.36807  0.89587  1.0000
  N   N8        1.0  0.32944  0.13311  0.60354  1.0000
  N   N9        1.0  0.93272  0.63193  0.10413  1.0000
  N   N10       1.0  0.67054  0.86689  0.39646  1.0000
  O   O1        1.0  0.82181  0.64523  0.93297  1.0000
  O   O2        1.0  0.40087  0.85388  0.56671  1.0000
  O   O3        1.0  0.17819  0.35478  0.06703  1.0000
  O   O4        1.0  0.59912  0.14613  0.43330  1.0000
  O   O5        1.0  0.64106  0.91984  0.85215  1.0000
  O   O6        1.0  0.41306  0.58015  0.64780  1.0000
  O   O7        1.0  0.35894  0.08016  0.14785  1.0000
  O   O8        1.0  0.58694  0.41985  0.35220  1.0000
