data_image0
_chemical_formula_structural       Cu16H48C32I8N24
_chemical_formula_sum              "Cu16 H48 C32 I8 N24"
_cell_length_a       15.2092
_cell_length_b       15.4191
_cell_length_c       15.1941
_cell_angle_alpha    106.25
_cell_angle_beta     111.058
_cell_angle_gamma    111.539

_space_group_name_H-M_alt    "P 1"
_space_group_IT_number       1

loop_
  _space_group_symop_operation_xyz
  'x, y, z'

loop_
  _atom_site_type_symbol
  _atom_site_label
  _atom_site_symmetry_multiplicity
  _atom_site_fract_x
  _atom_site_fract_y
  _atom_site_fract_z
  _atom_site_occupancy
  Cu  Cu1       1.0  0.33319  0.89919  0.08231  1.0000
  Cu  Cu2       1.0  0.16531  0.75081  0.06324  1.0000
  Cu  Cu3       1.0  0.81442  0.06162  0.89733  1.0000
  Cu  Cu4       1.0  0.68573  0.08353  0.75076  1.0000
  Cu  Cu5       1.0  0.66680  0.10082  0.91768  1.0000
  Cu  Cu6       1.0  0.83469  0.24919  0.93676  1.0000
  Cu  Cu7       1.0  0.18558  0.93838  0.10268  1.0000
  Cu  Cu8       1.0  0.31427  0.91647  0.24924  1.0000
  Cu  Cu9       1.0  0.67393  0.90694  0.96725  1.0000
  Cu  Cu10      1.0  0.82364  0.29583  0.73476  1.0000
  Cu  Cu11      1.0  0.93919  0.73365  0.90635  1.0000
  Cu  Cu12      1.0  0.55937  0.96829  0.29401  1.0000
  Cu  Cu13      1.0  0.32607  0.09307  0.03275  1.0000
  Cu  Cu14      1.0  0.17636  0.70416  0.26524  1.0000
  Cu  Cu15      1.0  0.06081  0.26635  0.09365  1.0000
  Cu  Cu16      1.0  0.44062  0.03171  0.70599  1.0000
  H   H1        1.0  0.75334  0.99036  0.29523  1.0000
  H   H2        1.0  0.74354  0.53957  0.73551  1.0000
  H   H3        1.0  0.69412  0.73673  0.98818  1.0000
  H   H4        1.0  0.80540  0.29391  0.54264  1.0000
  H   H5        1.0  0.24666  0.00964  0.70477  1.0000
  H   H6        1.0  0.25646  0.46042  0.26449  1.0000
  H   H7        1.0  0.30588  0.26327  0.01183  1.0000
  H   H8        1.0  0.19460  0.70609  0.45735  1.0000
  H   H9        1.0  0.80382  0.04801  0.22341  1.0000
  H   H10       1.0  0.69399  0.41920  0.74431  1.0000
  H   H11       1.0  0.82503  0.74654  0.04735  1.0000
  H   H12       1.0  0.67429  0.22152  0.42080  1.0000
  H   H13       1.0  0.19618  0.95199  0.77659  1.0000
  H   H14       1.0  0.30601  0.58081  0.25569  1.0000
  H   H15       1.0  0.17497  0.25346  0.95266  1.0000
  H   H16       1.0  0.32570  0.77848  0.57919  1.0000
  H   H17       1.0  0.76534  0.91514  0.19149  1.0000
  H   H18       1.0  0.73119  0.42509  0.64728  1.0000
  H   H19       1.0  0.72227  0.64990  0.91286  1.0000
  H   H20       1.0  0.77701  0.19119  0.42623  1.0000
  H   H21       1.0  0.23465  0.08486  0.80851  1.0000
  H   H22       1.0  0.26881  0.57491  0.35272  1.0000
  H   H23       1.0  0.27773  0.35010  0.08714  1.0000
  H   H24       1.0  0.22299  0.80881  0.57376  1.0000
  H   H25       1.0  0.31451  0.79073  0.85967  1.0000
  H   H26       1.0  0.18326  0.54716  0.97445  1.0000
  H   H27       1.0  0.92953  0.97345  0.78986  1.0000
  H   H28       1.0  0.57295  0.86416  0.54648  1.0000
  H   H29       1.0  0.68550  0.20928  0.14034  1.0000
  H   H30       1.0  0.81673  0.45283  0.02555  1.0000
  H   H31       1.0  0.07047  0.02655  0.21014  1.0000
  H   H32       1.0  0.42706  0.13584  0.45352  1.0000
  H   H33       1.0  0.41259  0.77845  0.82595  1.0000
  H   H34       1.0  0.08427  0.41637  0.86337  1.0000
  H   H35       1.0  0.94996  0.86400  0.77577  1.0000
  H   H36       1.0  0.55181  0.83069  0.41461  1.0000
  H   H37       1.0  0.58741  0.22156  0.17405  1.0000
  H   H38       1.0  0.91574  0.58363  0.13664  1.0000
  H   H39       1.0  0.05004  0.13601  0.22424  1.0000
  H   H40       1.0  0.44820  0.16931  0.58539  1.0000
  H   H41       1.0  0.40685  0.89448  0.85023  1.0000
  H   H42       1.0  0.09105  0.44705  0.98739  1.0000
  H   H43       1.0  0.04414  0.98639  0.89405  1.0000
  H   H44       1.0  0.45746  0.85244  0.44459  1.0000
  H   H45       1.0  0.59315  0.10552  0.14976  1.0000
  H   H46       1.0  0.90896  0.55295  0.01261  1.0000
  H   H47       1.0  0.95586  0.01361  0.10595  1.0000
  H   H48       1.0  0.54255  0.14756  0.55541  1.0000
  C   C1        1.0  0.48007  0.87899  0.99004  1.0000
  C   C2        1.0  0.01796  0.51217  0.89760  1.0000
  C   C3        1.0  0.88770  0.89702  0.87741  1.0000
  C   C4        1.0  0.61333  0.99245  0.51148  1.0000
  C   C5        1.0  0.51993  0.12101  0.00996  1.0000
  C   C6        1.0  0.98203  0.48783  0.10240  1.0000
  C   C7        1.0  0.11231  0.10298  0.12259  1.0000
  C   C8        1.0  0.38668  0.00755  0.48852  1.0000
  C   C9        1.0  0.62966  0.93896  0.13752  1.0000
  C   C10       1.0  0.86785  0.50806  0.80799  1.0000
  C   C11       1.0  0.80043  0.80859  0.93721  1.0000
  C   C12       1.0  0.69947  0.13801  0.50897  1.0000
  C   C13       1.0  0.37033  0.06104  0.86247  1.0000
  C   C14       1.0  0.13215  0.49194  0.19202  1.0000
  C   C15       1.0  0.19957  0.19141  0.06280  1.0000
  C   C16       1.0  0.30053  0.86199  0.49103  1.0000
  C   C17       1.0  0.74444  0.97515  0.21658  1.0000
  C   C18       1.0  0.75265  0.47109  0.72939  1.0000
  C   C19       1.0  0.75786  0.73117  0.97339  1.0000
  C   C20       1.0  0.74169  0.21571  0.47292  1.0000
  C   C21       1.0  0.25556  0.02485  0.78342  1.0000
  C   C22       1.0  0.24736  0.52890  0.27061  1.0000
  C   C23       1.0  0.24214  0.26883  0.02662  1.0000
  C   C24       1.0  0.25831  0.78429  0.52707  1.0000
  C   C25       1.0  0.39855  0.83293  0.87507  1.0000
  C   C26       1.0  0.09898  0.47932  0.93290  1.0000
  C   C27       1.0  0.95652  0.93239  0.83160  1.0000
  C   C28       1.0  0.54523  0.87863  0.47779  1.0000
  C   C29       1.0  0.60145  0.16708  0.12493  1.0000
  C   C30       1.0  0.90101  0.52068  0.06710  1.0000
  C   C31       1.0  0.04348  0.06761  0.16841  1.0000
  C   C32       1.0  0.45478  0.12137  0.52221  1.0000
  I   I1        1.0  0.34049  0.75261  0.17920  1.0000
  I   I2        1.0  0.15724  0.83911  0.90926  1.0000
  I   I3        1.0  0.57186  0.91061  0.75102  1.0000
  I   I4        1.0  0.92966  0.17911  0.84048  1.0000
  I   I5        1.0  0.65951  0.24739  0.82081  1.0000
  I   I6        1.0  0.84276  0.16089  0.09074  1.0000
  I   I7        1.0  0.42813  0.08938  0.24897  1.0000
  I   I8        1.0  0.07034  0.82089  0.15952  1.0000
  N   N1        1.0  0.45761  0.89791  0.06820  1.0000
  N   N2        1.0  0.04087  0.61185  0.93773  1.0000
  N   N3        1.0  0.82852  0.93767  0.89633  1.0000
  N   N4        1.0  0.67254  0.07028  0.61224  1.0000
  N   N5        1.0  0.54239  0.10210  0.93181  1.0000
  N   N6        1.0  0.95914  0.38815  0.06227  1.0000
  N   N7        1.0  0.17148  0.06233  0.10367  1.0000
  N   N8        1.0  0.32746  0.92972  0.38776  1.0000
  N   N9        1.0  0.58749  0.90484  0.03048  1.0000
  N   N10       1.0  0.90995  0.44463  0.81691  1.0000
  N   N11       1.0  0.87319  0.81657  0.90308  1.0000
  N   N12       1.0  0.62699  0.03192  0.44417  1.0000
  N   N13       1.0  0.41250  0.09516  0.96951  1.0000
  N   N14       1.0  0.09005  0.55536  0.18308  1.0000
  N   N15       1.0  0.12681  0.18343  0.09692  1.0000
  N   N16       1.0  0.37301  0.96808  0.55583  1.0000
  N   N17       1.0  0.55273  0.93534  0.16189  1.0000
  N   N18       1.0  0.94530  0.60917  0.88003  1.0000
  N   N19       1.0  0.77239  0.88072  0.93374  1.0000
  N   N20       1.0  0.72790  0.16290  0.61060  1.0000
  N   N21       1.0  0.44727  0.06466  0.83811  1.0000
  N   N22       1.0  0.05471  0.39084  0.11997  1.0000
  N   N23       1.0  0.22761  0.11928  0.06626  1.0000
  N   N24       1.0  0.27211  0.83710  0.38940  1.0000
