data_image0
_chemical_formula_structural       Cu2H18C24I2N4O3
_chemical_formula_sum              "Cu2 H18 C24 I2 N4 O3"
_cell_length_a       4.13499
_cell_length_b       8.77971
_cell_length_c       15.6953
_cell_angle_alpha    99.5338
_cell_angle_beta     97.5834
_cell_angle_gamma    89.9761

_space_group_name_H-M_alt    "P 1"
_space_group_IT_number       1

loop_
  _space_group_symop_operation_xyz
  'x, y, z'

loop_
  _atom_site_type_symbol
  _atom_site_label
  _atom_site_symmetry_multiplicity
  _atom_site_fract_x
  _atom_site_fract_y
  _atom_site_fract_z
  _atom_site_occupancy
  Cu  Cu1       1.0  0.99263  0.10787  0.49284  1.0000
  Cu  Cu2       1.0  0.49940  0.89183  0.50702  1.0000
  H   H1        1.0  0.28278  0.68283  0.26780  1.0000
  H   H2        1.0  0.01632  0.31734  0.73219  1.0000
  H   H3        1.0  0.76629  0.09165  0.30350  1.0000
  H   H4        1.0  0.46153  0.90788  0.69614  1.0000
  H   H5        1.0  0.90980  0.22229  0.18316  1.0000
  H   H6        1.0  0.72622  0.77770  0.81664  1.0000
  H   H7        1.0  0.48663  0.55256  0.37864  1.0000
  H   H8        1.0  0.10927  0.44738  0.62145  1.0000
  H   H9        1.0  0.33891  0.40375  0.48996  1.0000
  H   H10       1.0  0.84983  0.59598  0.50995  1.0000
  H   H11       1.0  0.72074  0.53388  0.08206  1.0000
  H   H12       1.0  0.63965  0.46621  0.91811  1.0000
  H   H13       1.0  0.91947  0.70748  0.98820  1.0000
  H   H14       1.0  0.93167  0.29254  0.01209  1.0000
  H   H15       1.0  0.42358  0.08883  0.11978  1.0000
  H   H16       1.0  0.30453  0.91136  0.88028  1.0000
  H   H17       1.0  0.24083  0.91783  0.21763  1.0000
  H   H18       1.0  0.02474  0.08242  0.78224  1.0000
  C   C1        1.0  0.92499  0.19431  0.31745  1.0000
  C   C2        1.0  0.60696  0.80536  0.68230  1.0000
  C   C3        1.0  0.00370  0.26720  0.25073  1.0000
  C   C4        1.0  0.75284  0.73270  0.74909  1.0000
  C   C5        1.0  0.20654  0.39936  0.27104  1.0000
  C   C6        1.0  0.93599  0.60066  0.72890  1.0000
  C   C7        1.0  0.32154  0.45237  0.35886  1.0000
  C   C8        1.0  0.96363  0.54756  0.64114  1.0000
  C   C9        1.0  0.23861  0.37007  0.42155  1.0000
  C   C10       1.0  0.81775  0.62966  0.57836  1.0000
  C   C11       1.0  0.31372  0.46738  0.19770  1.0000
  C   C12       1.0  0.11642  0.53279  0.80233  1.0000
  C   C13       1.0  0.47440  0.71555  0.15687  1.0000
  C   C14       1.0  0.31854  0.28469  0.84323  1.0000
  C   C15       1.0  0.66019  0.65528  0.09118  1.0000
  C   C16       1.0  0.56984  0.34489  0.90899  1.0000
  C   C17       1.0  0.76555  0.75136  0.03773  1.0000
  C   C18       1.0  0.72821  0.24877  0.96251  1.0000
  C   C19       1.0  0.68155  0.90635  0.04864  1.0000
  C   C20       1.0  0.63318  0.09381  0.95160  1.0000
  C   C21       1.0  0.49308  0.96793  0.11331  1.0000
  C   C22       1.0  0.38044  0.03224  0.88681  1.0000
  C   C23       1.0  0.39258  0.87228  0.16772  1.0000
  C   C24       1.0  0.22603  0.12793  0.83231  1.0000
  I   I1        1.0  0.96124  0.82857  0.39915  1.0000
  I   I2        1.0  0.56232  0.17124  0.60069  1.0000
  N   N1        1.0  0.04521  0.24204  0.40220  1.0000
  N   N2        1.0  0.64285  0.75758  0.59759  1.0000
  N   N3        1.0  0.36617  0.62357  0.21362  1.0000
  N   N4        1.0  0.15367  0.37664  0.78641  1.0000
  O   O1        1.0  0.35462  0.38102  0.12908  1.0000
  O   O2        1.0  0.22531  0.61917  0.87102  1.0000
  O   O3        1.0  0.82247  0.00008  0.00017  1.0000
