data_image0
_chemical_formula_structural       Sb2H32C20S8I2N4
_chemical_formula_sum              "Sb2 H32 C20 S8 I2 N4"
_cell_length_a       5.7205
_cell_length_b       8.59114
_cell_length_c       17.1399
_cell_angle_alpha    93.8972
_cell_angle_beta     99.8119
_cell_angle_gamma    100.153

_space_group_name_H-M_alt    "P 1"
_space_group_IT_number       1

loop_
  _space_group_symop_operation_xyz
  'x, y, z'

loop_
  _atom_site_type_symbol
  _atom_site_label
  _atom_site_symmetry_multiplicity
  _atom_site_fract_x
  _atom_site_fract_y
  _atom_site_fract_z
  _atom_site_occupancy
  Sb  Sb1       1.0  0.99192  0.13462  0.24472  1.0000
  Sb  Sb2       1.0  0.00806  0.86538  0.75528  1.0000
  H   H1        1.0  0.84544  0.08191  0.90947  1.0000
  H   H2        1.0  0.15454  0.91811  0.09053  1.0000
  H   H3        1.0  0.68031  0.22012  0.94365  1.0000
  H   H4        1.0  0.31970  0.77990  0.05635  1.0000
  H   H5        1.0  0.21557  0.57311  0.51210  1.0000
  H   H6        1.0  0.78444  0.42689  0.48790  1.0000
  H   H7        1.0  0.43435  0.62208  0.45140  1.0000
  H   H8        1.0  0.56565  0.37793  0.54860  1.0000
  H   H9        1.0  0.87907  0.26953  0.81022  1.0000
  H   H10       1.0  0.12094  0.73047  0.18978  1.0000
  H   H11       1.0  0.89066  0.43373  0.87939  1.0000
  H   H12       1.0  0.10936  0.56627  0.12060  1.0000
  H   H13       1.0  0.29528  0.85894  0.54099  1.0000
  H   H14       1.0  0.70471  0.14106  0.45901  1.0000
  H   H15       1.0  0.36429  0.88815  0.44492  1.0000
  H   H16       1.0  0.63571  0.11185  0.55508  1.0000
  H   H17       1.0  0.28939  0.23938  0.87071  1.0000
  H   H18       1.0  0.71062  0.76060  0.12929  1.0000
  H   H19       1.0  0.31980  0.44927  0.87511  1.0000
  H   H20       1.0  0.68023  0.55072  0.12488  1.0000
  H   H21       1.0  0.86274  0.79016  0.48664  1.0000
  H   H22       1.0  0.13726  0.20984  0.51336  1.0000
  H   H23       1.0  0.95496  0.93937  0.42549  1.0000
  H   H24       1.0  0.04504  0.06063  0.57451  1.0000
  H   H25       1.0  0.28570  0.47059  0.01447  1.0000
  H   H26       1.0  0.71430  0.52943  0.98553  1.0000
  H   H27       1.0  0.42349  0.30033  0.01341  1.0000
  H   H28       1.0  0.57651  0.69968  0.98660  1.0000
  H   H29       1.0  0.95291  0.74894  0.31619  1.0000
  H   H30       1.0  0.04710  0.25105  0.68381  1.0000
  H   H31       1.0  0.72218  0.63716  0.35830  1.0000
  H   H32       1.0  0.27782  0.36283  0.64170  1.0000
  C   C1        1.0  0.01717  0.21537  0.07534  1.0000
  C   C2        1.0  0.98283  0.78464  0.92465  1.0000
  C   C3        1.0  0.05501  0.44597  0.34751  1.0000
  C   C4        1.0  0.94499  0.55404  0.65250  1.0000
  C   C5        1.0  0.85742  0.20772  0.93039  1.0000
  C   C6        1.0  0.14258  0.79229  0.06961  1.0000
  C   C7        1.0  0.25759  0.64120  0.46240  1.0000
  C   C8        1.0  0.74241  0.35880  0.53760  1.0000
  C   C9        1.0  0.94962  0.31941  0.87202  1.0000
  C   C10       1.0  0.05037  0.68059  0.12798  1.0000
  C   C11       1.0  0.24274  0.81606  0.47752  1.0000
  C   C12       1.0  0.75725  0.18393  0.52248  1.0000
  C   C13       1.0  0.22506  0.34188  0.89568  1.0000
  C   C14       1.0  0.77494  0.65812  0.10432  1.0000
  C   C15       1.0  0.97885  0.82200  0.44295  1.0000
  C   C16       1.0  0.02113  0.17798  0.55704  1.0000
  C   C17       1.0  0.26653  0.34866  0.98638  1.0000
  C   C18       1.0  0.73346  0.65135  0.01362  1.0000
  C   C19       1.0  0.91256  0.69766  0.37072  1.0000
  C   C20       1.0  0.08744  0.30232  0.62928  1.0000
  S   S1        1.0  0.25674  0.27968  0.15379  1.0000
  S   S2        1.0  0.74325  0.72034  0.84621  1.0000
  S   S3        1.0  0.26021  0.32428  0.37018  1.0000
  S   S4        1.0  0.73979  0.67572  0.62982  1.0000
  S   S5        1.0  0.82472  0.38891  0.26588  1.0000
  S   S6        1.0  0.17528  0.61108  0.73413  1.0000
  S   S7        1.0  0.75030  0.10875  0.09201  1.0000
  S   S8        1.0  0.24970  0.89125  0.90798  1.0000
  I   I1        1.0  0.48768  0.96668  0.28961  1.0000
  I   I2        1.0  0.51230  0.03329  0.71038  1.0000
  N   N1        1.0  0.04414  0.25221  0.00282  1.0000
  N   N2        1.0  0.95586  0.74780  0.99718  1.0000
  N   N3        1.0  0.07112  0.58277  0.39097  1.0000
  N   N4        1.0  0.92887  0.41721  0.60902  1.0000
