data_image0
_chemical_formula_structural       Zn4H28C44N8O18
_chemical_formula_sum              "Zn4 H28 C44 N8 O18"
_cell_length_a       8.10725
_cell_length_b       10.4377
_cell_length_c       14.2934
_cell_angle_alpha    99.982
_cell_angle_beta     93.6782
_cell_angle_gamma    105.547

_space_group_name_H-M_alt    "P 1"
_space_group_IT_number       1

loop_
  _space_group_symop_operation_xyz
  'x, y, z'

loop_
  _atom_site_type_symbol
  _atom_site_label
  _atom_site_symmetry_multiplicity
  _atom_site_fract_x
  _atom_site_fract_y
  _atom_site_fract_z
  _atom_site_occupancy
  Zn  Zn1       1.0  0.77607  0.87426  0.96868  1.0000
  Zn  Zn2       1.0  0.22393  0.12574  0.03132  1.0000
  Zn  Zn3       1.0  0.13887  0.20469  0.52479  1.0000
  Zn  Zn4       1.0  0.86113  0.79531  0.47521  1.0000
  H   H1        1.0  0.55070  0.63921  0.26955  1.0000
  H   H2        1.0  0.44930  0.36079  0.73045  1.0000
  H   H3        1.0  0.19410  0.69088  0.47545  1.0000
  H   H4        1.0  0.80589  0.30912  0.52455  1.0000
  H   H5        1.0  0.44728  0.02551  0.35074  1.0000
  H   H6        1.0  0.55271  0.97449  0.64926  1.0000
  H   H7        1.0  0.74141  0.09597  0.31881  1.0000
  H   H8        1.0  0.25859  0.90403  0.68119  1.0000
  H   H9        1.0  0.89668  0.12101  0.15287  1.0000
  H   H10       1.0  0.10332  0.87900  0.84713  1.0000
  H   H11       1.0  0.57361  0.72048  0.11998  1.0000
  H   H12       1.0  0.42639  0.27952  0.88002  1.0000
  H   H13       1.0  0.38645  0.41613  0.24252  1.0000
  H   H14       1.0  0.61354  0.58387  0.75748  1.0000
  H   H15       1.0  0.25902  0.18393  0.31382  1.0000
  H   H16       1.0  0.74097  0.81607  0.68618  1.0000
  H   H17       1.0  0.24557  0.51885  0.52251  1.0000
  H   H18       1.0  0.75443  0.48115  0.47749  1.0000
  H   H19       1.0  0.00382  0.57946  0.78852  1.0000
  H   H20       1.0  0.99618  0.42054  0.21148  1.0000
  H   H21       1.0  0.97944  0.16250  0.78886  1.0000
  H   H22       1.0  0.02056  0.83750  0.21114  1.0000
  H   H23       1.0  0.72691  0.37509  0.99223  1.0000
  H   H24       1.0  0.27309  0.62491  0.00777  1.0000
  H   H25       1.0  0.53480  0.68284  0.93396  1.0000
  H   H26       1.0  0.46520  0.31717  0.06604  1.0000
  H   H27       1.0  0.44064  0.80196  0.94522  1.0000
  H   H28       1.0  0.55937  0.19805  0.05478  1.0000
  C   C1        1.0  0.50948  0.83735  0.30261  1.0000
  C   C2        1.0  0.49052  0.16265  0.69739  1.0000
  C   C3        1.0  0.48136  0.70154  0.31005  1.0000
  C   C4        1.0  0.51864  0.29846  0.68995  1.0000
  C   C5        1.0  0.36827  0.64985  0.37283  1.0000
  C   C6        1.0  0.63173  0.35015  0.62718  1.0000
  C   C7        1.0  0.28637  0.73177  0.42860  1.0000
  C   C8        1.0  0.71362  0.26822  0.57140  1.0000
  C   C9        1.0  0.31736  0.86706  0.42106  1.0000
  C   C10       1.0  0.68263  0.13293  0.57894  1.0000
  C   C11       1.0  0.42804  0.92048  0.35756  1.0000
  C   C12       1.0  0.57195  0.07952  0.64243  1.0000
  C   C13       1.0  0.72698  0.02468  0.25207  1.0000
  C   C14       1.0  0.27302  0.97532  0.74793  1.0000
  C   C15       1.0  0.80582  0.03434  0.17089  1.0000
  C   C16       1.0  0.19418  0.96567  0.82912  1.0000
  C   C17       1.0  0.64095  0.82560  0.15079  1.0000
  C   C18       1.0  0.35905  0.17440  0.84921  1.0000
  C   C19       1.0  0.34056  0.40346  0.31064  1.0000
  C   C20       1.0  0.65943  0.59653  0.68936  1.0000
  C   C21       1.0  0.27709  0.28912  0.34654  1.0000
  C   C22       1.0  0.72291  0.71088  0.65346  1.0000
  C   C23       1.0  0.26599  0.46085  0.45579  1.0000
  C   C24       1.0  0.73401  0.53915  0.54421  1.0000
  C   C25       1.0  0.22512  0.95320  0.47858  1.0000
  C   C26       1.0  0.77488  0.04679  0.52142  1.0000
  C   C27       1.0  0.86099  0.49040  0.89551  1.0000
  C   C28       1.0  0.13901  0.50960  0.10449  1.0000
  C   C29       1.0  0.96109  0.48943  0.81942  1.0000
  C   C30       1.0  0.03892  0.51057  0.18058  1.0000
  C   C31       1.0  0.00082  0.37035  0.77965  1.0000
  C   C32       1.0  0.99918  0.62966  0.22035  1.0000
  C   C33       1.0  0.94772  0.25459  0.81939  1.0000
  C   C34       1.0  0.05229  0.74541  0.18060  1.0000
  C   C35       1.0  0.85022  0.25525  0.89670  1.0000
  C   C36       1.0  0.14979  0.74475  0.10329  1.0000
  C   C37       1.0  0.80484  0.37270  0.93311  1.0000
  C   C38       1.0  0.19516  0.62731  0.06689  1.0000
  C   C39       1.0  0.80037  0.61116  0.93393  1.0000
  C   C40       1.0  0.19964  0.38884  0.06607  1.0000
  C   C41       1.0  0.08600  0.36343  0.68948  1.0000
  C   C42       1.0  0.91401  0.63657  0.31052  1.0000
  C   C43       1.0  0.79102  0.13025  0.93817  1.0000
  C   C44       1.0  0.20899  0.86976  0.06183  1.0000
  N   N1        1.0  0.75005  0.90990  0.10839  1.0000
  N   N2        1.0  0.24995  0.09010  0.89161  1.0000
  N   N3        1.0  0.62220  0.89177  0.23866  1.0000
  N   N4        1.0  0.37780  0.10823  0.76134  1.0000
  N   N5        1.0  0.33223  0.51172  0.38030  1.0000
  N   N6        1.0  0.66777  0.48828  0.61970  1.0000
  N   N7        1.0  0.23152  0.32680  0.43693  1.0000
  N   N8        1.0  0.76848  0.67320  0.56307  1.0000
  O   O1        1.0  0.10824  0.89951  0.52700  1.0000
  O   O2        1.0  0.89176  0.10049  0.47300  1.0000
  O   O3        1.0  0.27312  0.07913  0.47671  1.0000
  O   O4        1.0  0.72688  0.92087  0.52329  1.0000
  O   O5        1.0  0.88148  0.72751  0.91547  1.0000
  O   O6        1.0  0.11852  0.27250  0.08454  1.0000
  O   O7        1.0  0.66974  0.59161  0.97873  1.0000
  O   O8        1.0  0.33026  0.40839  0.02127  1.0000
  O   O9        1.0  0.11680  0.46053  0.64682  1.0000
  O   O10       1.0  0.88321  0.53948  0.35317  1.0000
  O   O11       1.0  0.11610  0.24686  0.65899  1.0000
  O   O12       1.0  0.88390  0.75315  0.34100  1.0000
  O   O13       1.0  0.67764  0.12016  0.99427  1.0000
  O   O14       1.0  0.32237  0.87984  0.00573  1.0000
  O   O15       1.0  0.86266  0.03426  0.91166  1.0000
  O   O16       1.0  0.13735  0.96574  0.08834  1.0000
  O   O17       1.0  0.52633  0.76467  0.90938  1.0000
  O   O18       1.0  0.47367  0.23534  0.09062  1.0000
