data_image0
_chemical_formula_structural       Cd2Co2H28C44N8O18
_chemical_formula_sum              "Cd2 Co2 H28 C44 N8 O18"
_cell_length_a       8.80379
_cell_length_b       9.94556
_cell_length_c       13.939
_cell_angle_alpha    99.9698
_cell_angle_beta     102.638
_cell_angle_gamma    110.638

_space_group_name_H-M_alt    "P 1"
_space_group_IT_number       1

loop_
  _space_group_symop_operation_xyz
  'x, y, z'

loop_
  _atom_site_type_symbol
  _atom_site_label
  _atom_site_symmetry_multiplicity
  _atom_site_fract_x
  _atom_site_fract_y
  _atom_site_fract_z
  _atom_site_occupancy
  Cd  Cd1       1.0  0.94458  0.90871  0.59945  1.0000
  Cd  Cd2       1.0  0.05541  0.09129  0.40055  1.0000
  Co  Co1       1.0  0.81104  0.98653  0.03425  1.0000
  Co  Co2       1.0  0.18895  0.01347  0.96575  1.0000
  H   H1        1.0  0.20042  0.50778  0.26737  1.0000
  H   H2        1.0  0.79958  0.49222  0.73263  1.0000
  H   H3        1.0  0.92697  0.69703  0.07358  1.0000
  H   H4        1.0  0.07303  0.30297  0.92642  1.0000
  H   H5        1.0  0.35244  0.98435  0.33753  1.0000
  H   H6        1.0  0.64756  0.01564  0.66247  1.0000
  H   H7        1.0  0.27023  0.56879  0.44308  1.0000
  H   H8        1.0  0.72977  0.43121  0.55692  1.0000
  H   H9        1.0  0.58076  0.65883  0.59213  1.0000
  H   H10       1.0  0.41924  0.34117  0.40786  1.0000
  H   H11       1.0  0.64092  0.94713  0.39993  1.0000
  H   H12       1.0  0.35908  0.05287  0.60007  1.0000
  H   H13       1.0  0.72709  0.47651  0.01302  1.0000
  H   H14       1.0  0.27291  0.52349  0.98698  1.0000
  H   H15       1.0  0.58440  0.16791  0.94643  1.0000
  H   H16       1.0  0.41560  0.83208  0.05357  1.0000
  H   H17       1.0  0.07419  0.30696  0.15358  1.0000
  H   H18       1.0  0.92581  0.69305  0.84642  1.0000
  H   H19       1.0  0.00275  0.41331  0.58323  1.0000
  H   H20       1.0  0.99725  0.58669  0.41677  1.0000
  H   H21       1.0  0.41061  0.82226  0.78205  1.0000
  H   H22       1.0  0.58939  0.17774  0.21795  1.0000
  H   H23       1.0  0.43473  0.40235  0.79341  1.0000
  H   H24       1.0  0.56527  0.59765  0.20659  1.0000
  H   H25       1.0  0.73347  0.03033  0.20578  1.0000
  H   H26       1.0  0.26653  0.96967  0.79422  1.0000
  H   H27       1.0  0.72386  0.87134  0.18011  1.0000
  H   H28       1.0  0.27614  0.12866  0.81989  1.0000
  C   C1        1.0  0.29195  0.74678  0.30848  1.0000
  C   C2        1.0  0.70804  0.25322  0.69152  1.0000
  C   C3        1.0  0.18317  0.60323  0.24696  1.0000
  C   C4        1.0  0.81683  0.39677  0.75304  1.0000
  C   C5        1.0  0.05065  0.58457  0.16260  1.0000
  C   C6        1.0  0.94935  0.41543  0.83740  1.0000
  C   C7        1.0  0.02909  0.70854  0.13917  1.0000
  C   C8        1.0  0.97091  0.29146  0.86083  1.0000
  C   C9        1.0  0.13909  0.85191  0.20204  1.0000
  C   C10       1.0  0.86091  0.14809  0.79796  1.0000
  C   C11       1.0  0.27169  0.87268  0.28735  1.0000
  C   C12       1.0  0.72831  0.12732  0.71265  1.0000
  C   C13       1.0  0.39301  0.66001  0.45734  1.0000
  C   C14       1.0  0.60700  0.33999  0.54266  1.0000
  C   C15       1.0  0.54683  0.70493  0.52986  1.0000
  C   C16       1.0  0.45318  0.29506  0.47014  1.0000
  C   C17       1.0  0.58465  0.85895  0.43399  1.0000
  C   C18       1.0  0.41536  0.14105  0.56601  1.0000
  C   C19       1.0  0.77627  0.39607  0.03340  1.0000
  C   C20       1.0  0.22373  0.60393  0.96661  1.0000
  C   C21       1.0  0.70757  0.24329  0.00026  1.0000
  C   C22       1.0  0.29243  0.75671  0.99974  1.0000
  C   C23       1.0  0.95906  0.31048  0.10905  1.0000
  C   C24       1.0  0.04094  0.68952  0.89095  1.0000
  C   C25       1.0  0.09926  0.98028  0.18021  1.0000
  C   C26       1.0  0.90073  0.01972  0.81979  1.0000
  C   C27       1.0  0.21256  0.39048  0.68146  1.0000
  C   C28       1.0  0.78744  0.60952  0.31854  1.0000
  C   C29       1.0  0.12608  0.47189  0.64137  1.0000
  C   C30       1.0  0.87392  0.52811  0.35863  1.0000
  C   C31       1.0  0.19539  0.62741  0.67862  1.0000
  C   C32       1.0  0.80461  0.37259  0.32138  1.0000
  C   C33       1.0  0.35458  0.70123  0.75292  1.0000
  C   C34       1.0  0.64542  0.29877  0.24708  1.0000
  C   C35       1.0  0.44169  0.62106  0.79439  1.0000
  C   C36       1.0  0.55831  0.37894  0.20561  1.0000
  C   C37       1.0  0.36973  0.46519  0.75871  1.0000
  C   C38       1.0  0.63027  0.53482  0.24129  1.0000
  C   C39       1.0  0.12728  0.22432  0.65010  1.0000
  C   C40       1.0  0.87272  0.77568  0.34990  1.0000
  C   C41       1.0  0.09534  0.71396  0.64555  1.0000
  C   C42       1.0  0.90466  0.28604  0.35444  1.0000
  C   C43       1.0  0.60216  0.70279  0.88337  1.0000
  C   C44       1.0  0.39784  0.29721  0.11663  1.0000
  N   N1        1.0  0.82301  0.19176  0.04785  1.0000
  N   N2        1.0  0.17699  0.80824  0.95216  1.0000
  N   N3        1.0  0.93586  0.43794  0.10307  1.0000
  N   N4        1.0  0.06414  0.56206  0.89693  1.0000
  N   N5        1.0  0.66480  0.82775  0.51421  1.0000
  N   N6        1.0  0.33520  0.17225  0.48579  1.0000
  N   N7        1.0  0.41846  0.75870  0.39695  1.0000
  N   N8        1.0  0.58154  0.24130  0.60305  1.0000
  O   O1        1.0  0.01704  0.95839  0.08587  1.0000
  O   O2        1.0  0.98295  0.04160  0.91413  1.0000
  O   O3        1.0  0.13869  0.09658  0.24991  1.0000
  O   O4        1.0  0.86131  0.90342  0.75009  1.0000
  O   O5        1.0  0.00625  0.15446  0.56533  1.0000
  O   O6        1.0  0.99375  0.84554  0.43467  1.0000
  O   O7        1.0  0.17138  0.15341  0.71040  1.0000
  O   O8        1.0  0.82862  0.84658  0.28959  1.0000
  O   O9        1.0  0.93763  0.64824  0.59904  1.0000
  O   O10       1.0  0.06237  0.35177  0.40096  1.0000
  O   O11       1.0  0.17561  0.85776  0.66893  1.0000
  O   O12       1.0  0.82439  0.14224  0.33106  1.0000
  O   O13       1.0  0.68117  0.63416  0.92361  1.0000
  O   O14       1.0  0.31883  0.36584  0.07639  1.0000
  O   O15       1.0  0.64366  0.84594  0.91256  1.0000
  O   O16       1.0  0.35634  0.15406  0.08744  1.0000
  O   O17       1.0  0.69456  0.94219  0.14540  1.0000
  O   O18       1.0  0.30543  0.05781  0.85460  1.0000
