data_image0
_chemical_formula_structural       Cu2H60C32O8
_chemical_formula_sum              "Cu2 H60 C32 O8"
_cell_length_a       5.24648
_cell_length_b       12.3129
_cell_length_c       13.8377
_cell_angle_alpha    73.0564
_cell_angle_beta     89.4402
_cell_angle_gamma    82.7447

_space_group_name_H-M_alt    "P 1"
_space_group_IT_number       1

loop_
  _space_group_symop_operation_xyz
  'x, y, z'

loop_
  _atom_site_type_symbol
  _atom_site_label
  _atom_site_symmetry_multiplicity
  _atom_site_fract_x
  _atom_site_fract_y
  _atom_site_fract_z
  _atom_site_occupancy
  Cu  Cu1       1.0  0.68899  0.55571  0.47758  1.0000
  Cu  Cu2       1.0  0.31102  0.44427  0.52243  1.0000
  H   H1        1.0  0.29472  0.59434  0.78378  1.0000
  H   H2        1.0  0.70527  0.40567  0.21619  1.0000
  H   H3        1.0  0.49126  0.46419  0.83355  1.0000
  H   H4        1.0  0.50870  0.53582  0.16645  1.0000
  H   H5        1.0  0.67953  0.69952  0.74720  1.0000
  H   H6        1.0  0.32050  0.30046  0.25280  1.0000
  H   H7        1.0  0.88492  0.56948  0.78730  1.0000
  H   H8        1.0  0.11505  0.43052  0.21270  1.0000
  H   H9        1.0  0.49602  0.66025  0.92194  1.0000
  H   H10       1.0  0.50397  0.33975  0.07805  1.0000
  H   H11       1.0  0.70581  0.53134  0.96134  1.0000
  H   H12       1.0  0.29418  0.46865  0.03866  1.0000
  H   H13       1.0  0.08408  0.64191  0.92398  1.0000
  H   H14       1.0  0.91590  0.35809  0.07602  1.0000
  H   H15       1.0  0.87466  0.77125  0.88713  1.0000
  H   H16       1.0  0.12531  0.22875  0.11288  1.0000
  H   H17       1.0  0.69262  0.72782  0.06020  1.0000
  H   H18       1.0  0.30736  0.27216  0.93981  1.0000
  H   H19       1.0  0.88320  0.59350  0.09555  1.0000
  H   H20       1.0  0.11680  0.40650  0.90446  1.0000
  H   H21       1.0  0.28147  0.68964  0.06904  1.0000
  H   H22       1.0  0.71850  0.31038  0.93096  1.0000
  H   H23       1.0  0.09309  0.82432  0.03941  1.0000
  H   H24       1.0  0.90686  0.17567  0.96059  1.0000
  H   H25       1.0  0.25273  0.74686  0.22558  1.0000
  H   H26       1.0  0.74721  0.25317  0.77441  1.0000
  H   H27       1.0  0.91246  0.77877  0.21182  1.0000
  H   H28       1.0  0.08746  0.22123  0.78818  1.0000
  H   H29       1.0  0.05749  0.63548  0.24134  1.0000
  H   H30       1.0  0.94252  0.36452  0.75866  1.0000
  H   H31       1.0  0.16187  0.20559  0.59425  1.0000
  H   H32       1.0  0.83813  0.79440  0.40575  1.0000
  H   H33       1.0  0.89596  0.12446  0.61731  1.0000
  H   H34       1.0  0.10408  0.87552  0.38271  1.0000
  H   H35       1.0  0.04495  0.26212  0.40533  1.0000
  H   H36       1.0  0.95504  0.73786  0.59468  1.0000
  H   H37       1.0  0.17309  0.11860  0.46117  1.0000
  H   H38       1.0  0.82692  0.88138  0.53884  1.0000
  H   H39       1.0  0.73340  0.05889  0.47688  1.0000
  H   H40       1.0  0.26664  0.94107  0.52314  1.0000
  H   H41       1.0  0.59531  0.20125  0.42099  1.0000
  H   H42       1.0  0.40470  0.79872  0.57904  1.0000
  H   H43       1.0  0.98909  0.07169  0.31518  1.0000
  H   H44       1.0  0.01090  0.92832  0.68481  1.0000
  H   H45       1.0  0.80998  0.20605  0.26030  1.0000
  H   H46       1.0  0.18997  0.79397  0.73971  1.0000
  H   H47       1.0  0.58998  0.97773  0.34172  1.0000
  H   H48       1.0  0.41004  0.02226  0.65826  1.0000
  H   H49       1.0  0.40065  0.11109  0.29345  1.0000
  H   H50       1.0  0.59934  0.88890  0.70656  1.0000
  H   H51       1.0  0.60305  0.13731  0.12534  1.0000
  H   H52       1.0  0.39692  0.86273  0.87466  1.0000
  H   H53       1.0  0.80449  0.00683  0.17280  1.0000
  H   H54       1.0  0.19553  0.99323  0.82718  1.0000
  H   H55       1.0  0.42288  0.97984  0.07703  1.0000
  H   H56       1.0  0.57718  0.02022  0.92292  1.0000
  H   H57       1.0  0.42065  0.89963  0.20632  1.0000
  H   H58       1.0  0.57946  0.10038  0.79364  1.0000
  H   H59       1.0  0.21276  0.02957  0.16051  1.0000
  H   H60       1.0  0.78728  0.97043  0.83947  1.0000
  C   C1        1.0  0.49360  0.52973  0.67456  1.0000
  C   C2        1.0  0.50638  0.47026  0.32545  1.0000
  C   C3        1.0  0.48625  0.54888  0.77771  1.0000
  C   C4        1.0  0.51377  0.45114  0.22229  1.0000
  C   C5        1.0  0.69714  0.61284  0.80059  1.0000
  C   C6        1.0  0.30286  0.38716  0.19943  1.0000
  C   C7        1.0  0.68721  0.61903  0.90904  1.0000
  C   C8        1.0  0.31279  0.38096  0.09097  1.0000
  C   C9        1.0  0.89267  0.68266  0.93728  1.0000
  C   C10       1.0  0.10730  0.31734  0.06273  1.0000
  C   C11       1.0  0.87951  0.68257  0.04750  1.0000
  C   C12       1.0  0.12049  0.31742  0.95251  1.0000
  C   C13       1.0  0.09599  0.73394  0.08421  1.0000
  C   C14       1.0  0.90397  0.26607  0.91581  1.0000
  C   C15       1.0  0.08011  0.72338  0.19676  1.0000
  C   C16       1.0  0.91986  0.27662  0.80325  1.0000
  C   C17       1.0  0.79553  0.30598  0.55770  1.0000
  C   C18       1.0  0.20445  0.69401  0.44230  1.0000
  C   C19       1.0  0.97361  0.19755  0.56508  1.0000
  C   C20       1.0  0.02639  0.80244  0.43492  1.0000
  C   C21       1.0  0.00220  0.18127  0.45881  1.0000
  C   C22       1.0  0.99780  0.81871  0.54121  1.0000
  C   C23       1.0  0.76870  0.14029  0.42188  1.0000
  C   C24       1.0  0.23133  0.85967  0.57813  1.0000
  C   C25       1.0  0.80164  0.12268  0.31734  1.0000
  C   C26       1.0  0.19835  0.87733  0.68266  1.0000
  C   C27       1.0  0.58969  0.06343  0.28714  1.0000
  C   C28       1.0  0.41033  0.93658  0.71285  1.0000
  C   C29       1.0  0.61295  0.05154  0.18032  1.0000
  C   C30       1.0  0.38706  0.94849  0.81966  1.0000
  C   C31       1.0  0.40677  0.98684  0.15428  1.0000
  C   C32       1.0  0.59330  0.01319  0.84568  1.0000
  O   O1        1.0  0.32678  0.47099  0.65580  1.0000
  O   O2        1.0  0.67329  0.52902  0.34422  1.0000
  O   O3        1.0  0.66354  0.57378  0.61446  1.0000
  O   O4        1.0  0.33651  0.42622  0.38552  1.0000
  O   O5        1.0  0.55611  0.30009  0.56969  1.0000
  O   O6        1.0  0.44381  0.69989  0.43032  1.0000
  O   O7        1.0  0.89688  0.39955  0.53319  1.0000
  O   O8        1.0  0.10315  0.60042  0.46682  1.0000
