data_image0
_chemical_formula_structural       Gd4H36C16O32
_chemical_formula_sum              "Gd4 H36 C16 O32"
_cell_length_a       6.81361
_cell_length_b       10.7741
_cell_length_c       11.1527
_cell_angle_alpha    96.1658
_cell_angle_beta     90.0001
_cell_angle_gamma    89.9999

_space_group_name_H-M_alt    "P 1"
_space_group_IT_number       1

loop_
  _space_group_symop_operation_xyz
  'x, y, z'

loop_
  _atom_site_type_symbol
  _atom_site_label
  _atom_site_symmetry_multiplicity
  _atom_site_fract_x
  _atom_site_fract_y
  _atom_site_fract_z
  _atom_site_occupancy
  Gd  Gd1       1.0  0.02420  0.15333  0.09621  1.0000
  Gd  Gd2       1.0  0.52420  0.84667  0.40379  1.0000
  Gd  Gd3       1.0  0.97580  0.84667  0.90379  1.0000
  Gd  Gd4       1.0  0.47580  0.15333  0.59621  1.0000
  H   H1        1.0  0.17404  0.37867  0.26210  1.0000
  H   H2        1.0  0.67404  0.62132  0.23790  1.0000
  H   H3        1.0  0.82596  0.62132  0.73789  1.0000
  H   H4        1.0  0.32596  0.37868  0.76211  1.0000
  H   H5        1.0  0.98414  0.43090  0.20192  1.0000
  H   H6        1.0  0.48414  0.56910  0.29808  1.0000
  H   H7        1.0  0.01586  0.56910  0.79808  1.0000
  H   H8        1.0  0.51586  0.43090  0.70192  1.0000
  H   H9        1.0  0.10158  0.02377  0.32032  1.0000
  H   H10       1.0  0.60158  0.97623  0.17967  1.0000
  H   H11       1.0  0.89842  0.97623  0.67968  1.0000
  H   H12       1.0  0.39842  0.02377  0.82033  1.0000
  H   H13       1.0  0.17563  0.16226  0.34791  1.0000
  H   H14       1.0  0.67563  0.83774  0.15209  1.0000
  H   H15       1.0  0.82437  0.83774  0.65209  1.0000
  H   H16       1.0  0.32437  0.16226  0.84791  1.0000
  H   H17       1.0  0.79957  0.47678  0.94925  1.0000
  H   H18       1.0  0.29957  0.52322  0.55075  1.0000
  H   H19       1.0  0.20043  0.52322  0.05075  1.0000
  H   H20       1.0  0.70042  0.47678  0.44925  1.0000
  H   H21       1.0  0.74168  0.34359  0.84696  1.0000
  H   H22       1.0  0.24168  0.65642  0.65304  1.0000
  H   H23       1.0  0.25832  0.65642  0.15304  1.0000
  H   H24       1.0  0.75832  0.34358  0.34696  1.0000
  H   H25       1.0  0.49553  0.29232  0.96704  1.0000
  H   H26       1.0  0.99554  0.70768  0.53296  1.0000
  H   H27       1.0  0.50447  0.70768  0.03296  1.0000
  H   H28       1.0  0.00446  0.29232  0.46704  1.0000
  H   H29       1.0  0.53383  0.38811  0.10615  1.0000
  H   H30       1.0  0.03384  0.61189  0.39385  1.0000
  H   H31       1.0  0.46616  0.61189  0.89385  1.0000
  H   H32       1.0  0.96616  0.38811  0.60615  1.0000
  H   H33       1.0  0.15736  0.90947  0.14351  1.0000
  H   H34       1.0  0.65736  0.09053  0.35649  1.0000
  H   H35       1.0  0.84264  0.09053  0.85649  1.0000
  H   H36       1.0  0.34264  0.90947  0.64351  1.0000
  C   C1        1.0  0.54130  0.19142  0.11987  1.0000
  C   C2        1.0  0.04131  0.80858  0.38012  1.0000
  C   C3        1.0  0.45870  0.80858  0.88012  1.0000
  C   C4        1.0  0.95870  0.19142  0.61988  1.0000
  C   C5        1.0  0.04696  0.35911  0.89396  1.0000
  C   C6        1.0  0.54697  0.64089  0.60604  1.0000
  C   C7        1.0  0.95304  0.64089  0.10604  1.0000
  C   C8        1.0  0.45303  0.35910  0.39396  1.0000
  C   C9        1.0  0.83165  0.37672  0.92644  1.0000
  C   C10       1.0  0.33165  0.62329  0.57356  1.0000
  C   C11       1.0  0.16835  0.62328  0.07356  1.0000
  C   C12       1.0  0.66835  0.37671  0.42644  1.0000
  C   C13       1.0  0.58163  0.30250  0.05064  1.0000
  C   C14       1.0  0.08164  0.69750  0.44936  1.0000
  C   C15       1.0  0.41836  0.69750  0.94936  1.0000
  C   C16       1.0  0.91836  0.30249  0.55064  1.0000
  O   O1        1.0  0.04691  0.35209  0.22146  1.0000
  O   O2        1.0  0.54692  0.64791  0.27854  1.0000
  O   O3        1.0  0.95309  0.64791  0.77854  1.0000
  O   O4        1.0  0.45309  0.35209  0.72146  1.0000
  O   O5        1.0  0.14588  0.27762  0.94204  1.0000
  O   O6        1.0  0.64589  0.72238  0.55797  1.0000
  O   O7        1.0  0.85411  0.72238  0.05796  1.0000
  O   O8        1.0  0.35411  0.27762  0.44204  1.0000
  O   O9        1.0  0.78654  0.30768  0.02474  1.0000
  O   O10       1.0  0.28654  0.69232  0.47526  1.0000
  O   O11       1.0  0.21346  0.69232  0.97526  1.0000
  O   O12       1.0  0.71346  0.30768  0.52474  1.0000
  O   O13       1.0  0.36554  0.16193  0.13480  1.0000
  O   O14       1.0  0.86555  0.83807  0.36519  1.0000
  O   O15       1.0  0.63446  0.83807  0.86519  1.0000
  O   O16       1.0  0.13446  0.16193  0.63481  1.0000
  O   O17       1.0  0.11455  0.42751  0.81771  1.0000
  O   O18       1.0  0.61455  0.57249  0.68229  1.0000
  O   O19       1.0  0.88545  0.57249  0.18229  1.0000
  O   O20       1.0  0.38545  0.42751  0.31771  1.0000
  O   O21       1.0  0.06719  0.11154  0.31046  1.0000
  O   O22       1.0  0.56719  0.88846  0.18954  1.0000
  O   O23       1.0  0.93281  0.88846  0.68954  1.0000
  O   O24       1.0  0.43281  0.11154  0.81046  1.0000
  O   O25       1.0  0.08371  0.94681  0.08198  1.0000
  O   O26       1.0  0.58371  0.05319  0.41802  1.0000
  O   O27       1.0  0.91629  0.05319  0.91802  1.0000
  O   O28       1.0  0.41629  0.94681  0.58198  1.0000
  O   O29       1.0  0.68831  0.13444  0.16075  1.0000
  O   O30       1.0  0.18830  0.86557  0.33925  1.0000
  O   O31       1.0  0.31169  0.86557  0.83925  1.0000
  O   O32       1.0  0.81169  0.13443  0.66075  1.0000
