data_image0
_chemical_formula_structural       CuH8C12N2O4
_chemical_formula_sum              "Cu1 H8 C12 N2 O4"
_cell_length_a       5.20097
_cell_length_b       7.7451
_cell_length_c       8.81422
_cell_angle_alpha    74.4204
_cell_angle_beta     83.922
_cell_angle_gamma    70.0357

_space_group_name_H-M_alt    "P 1"
_space_group_IT_number       1

loop_
  _space_group_symop_operation_xyz
  'x, y, z'

loop_
  _atom_site_type_symbol
  _atom_site_label
  _atom_site_symmetry_multiplicity
  _atom_site_fract_x
  _atom_site_fract_y
  _atom_site_fract_z
  _atom_site_occupancy
  Cu  Cu1       1.0  1.00000  0.00000  1.00000  1.0000
  H   H1        1.0  0.13176  0.52797  0.89373  1.0000
  H   H2        1.0  0.86823  0.47203  0.10628  1.0000
  H   H3        1.0  0.28243  0.71732  0.64792  1.0000
  H   H4        1.0  0.71755  0.28268  0.35208  1.0000
  H   H5        1.0  0.75534  0.58500  0.53867  1.0000
  H   H6        1.0  0.24464  0.41501  0.46134  1.0000
  H   H7        1.0  0.06336  0.26418  0.68770  1.0000
  H   H8        1.0  0.93663  0.73583  0.31230  1.0000
  C   C1        1.0  0.45750  0.17531  0.07386  1.0000
  C   C2        1.0  0.54251  0.82469  0.92614  1.0000
  C   C3        1.0  0.51942  0.29996  0.92015  1.0000
  C   C4        1.0  0.48059  0.70003  0.07986  1.0000
  C   C5        1.0  0.33539  0.47300  0.84426  1.0000
  C   C6        1.0  0.66461  0.52702  0.15572  1.0000
  C   C7        1.0  0.42041  0.57853  0.70614  1.0000
  C   C8        1.0  0.57958  0.42146  0.29388  1.0000
  C   C9        1.0  0.68337  0.50592  0.64614  1.0000
  C   C10       1.0  0.31662  0.49409  0.35385  1.0000
  C   C11       1.0  0.85546  0.33061  0.72675  1.0000
  C   C12       1.0  0.14454  0.66938  0.27326  1.0000
  N   N1        1.0  0.77403  0.23278  0.86177  1.0000
  N   N2        1.0  0.22598  0.76722  0.13821  1.0000
  O   O1        1.0  0.22137  0.21266  0.13095  1.0000
  O   O2        1.0  0.77864  0.78734  0.86906  1.0000
  O   O3        1.0  0.66633  0.03191  0.13585  1.0000
  O   O4        1.0  0.33369  0.96808  0.86415  1.0000
