data_image0
_chemical_formula_structural       K2H52C32S2N6O18
_chemical_formula_sum              "K2 H52 C32 S2 N6 O18"
_cell_length_a       8.04207
_cell_length_b       8.41152
_cell_length_c       15.852
_cell_angle_alpha    94.3306
_cell_angle_beta     102.999
_cell_angle_gamma    95.4686

_space_group_name_H-M_alt    "P 1"
_space_group_IT_number       1

loop_
  _space_group_symop_operation_xyz
  'x, y, z'

loop_
  _atom_site_type_symbol
  _atom_site_label
  _atom_site_symmetry_multiplicity
  _atom_site_fract_x
  _atom_site_fract_y
  _atom_site_fract_z
  _atom_site_occupancy
  K   K1        1.0  0.43027  0.76367  0.51549  1.0000
  K   K2        1.0  0.56973  0.23633  0.48451  1.0000
  H   H1        1.0  0.95863  0.75823  0.40106  1.0000
  H   H2        1.0  0.04137  0.24177  0.59894  1.0000
  H   H3        1.0  0.01560  0.76137  0.50134  1.0000
  H   H4        1.0  0.98440  0.23863  0.49866  1.0000
  H   H5        1.0  0.26290  0.06793  0.57944  1.0000
  H   H6        1.0  0.73710  0.93207  0.42056  1.0000
  H   H7        1.0  0.20460  0.07169  0.47916  1.0000
  H   H8        1.0  0.79540  0.92831  0.52084  1.0000
  H   H9        1.0  0.45690  0.70558  0.29656  1.0000
  H   H10       1.0  0.54310  0.29442  0.70344  1.0000
  H   H11       1.0  0.52887  0.97920  0.71414  1.0000
  H   H12       1.0  0.47113  0.02080  0.28587  1.0000
  H   H13       1.0  0.69574  0.92224  0.69724  1.0000
  H   H14       1.0  0.30426  0.07776  0.30276  1.0000
  H   H15       1.0  0.62865  0.84211  0.21968  1.0000
  H   H16       1.0  0.37136  0.15789  0.78032  1.0000
  H   H17       1.0  0.39597  0.41994  0.58413  1.0000
  H   H18       1.0  0.60403  0.58006  0.41587  1.0000
  H   H19       1.0  0.19970  0.41561  0.53954  1.0000
  H   H20       1.0  0.80030  0.58439  0.46046  1.0000
  H   H21       1.0  0.42090  0.80889  0.94689  1.0000
  H   H22       1.0  0.57910  0.19111  0.05311  1.0000
  H   H23       1.0  0.46313  0.54591  0.87648  1.0000
  H   H24       1.0  0.53687  0.45409  0.12351  1.0000
  H   H25       1.0  0.31638  0.46287  0.72062  1.0000
  H   H26       1.0  0.68362  0.53714  0.27937  1.0000
  H   H27       1.0  0.13407  0.64525  0.63631  1.0000
  H   H28       1.0  0.86592  0.35476  0.36369  1.0000
  H   H29       1.0  0.14830  0.04303  0.09683  1.0000
  H   H30       1.0  0.85170  0.95697  0.90317  1.0000
  H   H31       1.0  0.12959  0.27933  0.18980  1.0000
  H   H32       1.0  0.87040  0.72067  0.81020  1.0000
  H   H33       1.0  0.22624  0.57614  0.98856  1.0000
  H   H34       1.0  0.77376  0.42386  0.01144  1.0000
  H   H35       1.0  0.23994  0.33420  0.89631  1.0000
  H   H36       1.0  0.76006  0.66580  0.10369  1.0000
  H   H37       1.0  0.03114  0.48478  0.23076  1.0000
  H   H38       1.0  0.96886  0.51522  0.76924  1.0000
  H   H39       1.0  0.11377  0.68795  0.26184  1.0000
  H   H40       1.0  0.88623  0.31205  0.73816  1.0000
  H   H41       1.0  0.23847  0.48125  0.36244  1.0000
  H   H42       1.0  0.76153  0.51875  0.63756  1.0000
  H   H43       1.0  0.34689  0.41758  0.28179  1.0000
  H   H44       1.0  0.65311  0.58242  0.71821  1.0000
  H   H45       1.0  0.17197  0.83034  0.16960  1.0000
  H   H46       1.0  0.82803  0.16966  0.83040  1.0000
  H   H47       1.0  0.14425  0.75291  0.06021  1.0000
  H   H48       1.0  0.85575  0.24709  0.93979  1.0000
  H   H49       1.0  0.45991  0.71098  0.09136  1.0000
  H   H50       1.0  0.54010  0.28902  0.90864  1.0000
  H   H51       1.0  0.41364  0.91378  0.10063  1.0000
  H   H52       1.0  0.58636  0.08622  0.89937  1.0000
  C   C1        1.0  0.17807  0.82984  0.74345  1.0000
  C   C2        1.0  0.82193  0.17016  0.25654  1.0000
  C   C3        1.0  0.25514  0.87517  0.83227  1.0000
  C   C4        1.0  0.74486  0.12483  0.16773  1.0000
  C   C5        1.0  0.35697  0.77033  0.87933  1.0000
  C   C6        1.0  0.64303  0.22967  0.12067  1.0000
  C   C7        1.0  0.38010  0.62369  0.83922  1.0000
  C   C8        1.0  0.61990  0.37631  0.16078  1.0000
  C   C9        1.0  0.29986  0.57810  0.75196  1.0000
  C   C10       1.0  0.70014  0.42190  0.24803  1.0000
  C   C11       1.0  0.19850  0.68130  0.70405  1.0000
  C   C12       1.0  0.80150  0.31870  0.29595  1.0000
  C   C13       1.0  0.20492  0.17065  0.99201  1.0000
  C   C14       1.0  0.79508  0.82934  0.00799  1.0000
  C   C15       1.0  0.16879  0.16081  0.07458  1.0000
  C   C16       1.0  0.83121  0.83919  0.92542  1.0000
  C   C17       1.0  0.15724  0.29552  0.12688  1.0000
  C   C18       1.0  0.84276  0.70448  0.87312  1.0000
  C   C19       1.0  0.18558  0.45109  0.09981  1.0000
  C   C20       1.0  0.81442  0.54890  0.90019  1.0000
  C   C21       1.0  0.21360  0.46041  0.01425  1.0000
  C   C22       1.0  0.78640  0.53959  0.98576  1.0000
  C   C23       1.0  0.22192  0.32412  0.96189  1.0000
  C   C24       1.0  0.77809  0.67588  0.03811  1.0000
  C   C25       1.0  0.14658  0.57115  0.23891  1.0000
  C   C26       1.0  0.85342  0.42885  0.76109  1.0000
  C   C27       1.0  0.29131  0.51983  0.30807  1.0000
  C   C28       1.0  0.70869  0.48017  0.69193  1.0000
  C   C29       1.0  0.21920  0.74586  0.12682  1.0000
  C   C30       1.0  0.78080  0.25414  0.87318  1.0000
  C   C31       1.0  0.40667  0.79925  0.12971  1.0000
  C   C32       1.0  0.59333  0.20075  0.87029  1.0000
  S   S1        1.0  0.04518  0.95951  0.68303  1.0000
  S   S2        1.0  0.95482  0.04049  0.31697  1.0000
  N   N1        1.0  0.23430  0.02712  0.86963  1.0000
  N   N2        1.0  0.76570  0.97288  0.13037  1.0000
  N   N3        1.0  0.21804  0.02555  0.94799  1.0000
  N   N4        1.0  0.78196  0.97445  0.05201  1.0000
  N   N5        1.0  0.18614  0.58578  0.15370  1.0000
  N   N6        1.0  0.81386  0.41422  0.84630  1.0000
  O   O1        1.0  0.16027  0.10394  0.67496  1.0000
  O   O2        1.0  0.83973  0.89606  0.32504  1.0000
  O   O3        1.0  0.96845  0.86780  0.59794  1.0000
  O   O4        1.0  0.03155  0.13220  0.40206  1.0000
  O   O5        1.0  0.00479  0.69140  0.44726  1.0000
  O   O6        1.0  0.99521  0.30860  0.55274  1.0000
  O   O7        1.0  0.91697  0.99863  0.73157  1.0000
  O   O8        1.0  0.08303  0.00138  0.26843  1.0000
  O   O9        1.0  0.30054  0.04703  0.52525  1.0000
  O   O10       1.0  0.69947  0.95297  0.47475  1.0000
  O   O11       1.0  0.42456  0.64915  0.34443  1.0000
  O   O12       1.0  0.57544  0.35085  0.65557  1.0000
  O   O13       1.0  0.57064  0.89107  0.68379  1.0000
  O   O14       1.0  0.42936  0.10893  0.31621  1.0000
  O   O15       1.0  0.50535  0.81946  0.21837  1.0000
  O   O16       1.0  0.49465  0.18054  0.78163  1.0000
  O   O17       1.0  0.31569  0.46148  0.53625  1.0000
  O   O18       1.0  0.68431  0.53852  0.46375  1.0000
