data_image0
_chemical_formula_structural       Na2H44C34S2N6O12
_chemical_formula_sum              "Na2 H44 C34 S2 N6 O12"
_cell_length_a       8.42433
_cell_length_b       8.68667
_cell_length_c       13.6366
_cell_angle_alpha    100.903
_cell_angle_beta     101.328
_cell_angle_gamma    101.115

_space_group_name_H-M_alt    "P 1"
_space_group_IT_number       1

loop_
  _space_group_symop_operation_xyz
  'x, y, z'

loop_
  _atom_site_type_symbol
  _atom_site_label
  _atom_site_symmetry_multiplicity
  _atom_site_fract_x
  _atom_site_fract_y
  _atom_site_fract_z
  _atom_site_occupancy
  Na  Na1       1.0  0.21079  0.03389  0.96612  1.0000
  Na  Na2       1.0  0.78921  0.96611  0.03388  1.0000
  H   H1        1.0  0.80353  0.35800  0.91891  1.0000
  H   H2        1.0  0.19647  0.64200  0.08109  1.0000
  H   H3        1.0  0.58697  0.18125  0.53948  1.0000
  H   H4        1.0  0.41303  0.81875  0.46052  1.0000
  H   H5        1.0  0.52256  0.42468  0.63658  1.0000
  H   H6        1.0  0.47744  0.57532  0.36342  1.0000
  H   H7        1.0  0.86039  0.91519  0.36323  1.0000
  H   H8        1.0  0.13961  0.08481  0.63677  1.0000
  H   H9        1.0  0.89872  0.66411  0.26939  1.0000
  H   H10       1.0  0.10128  0.33589  0.73061  1.0000
  H   H11       1.0  0.76172  0.43012  0.50620  1.0000
  H   H12       1.0  0.23828  0.56988  0.49380  1.0000
  H   H13       1.0  0.72898  0.68776  0.60007  1.0000
  H   H14       1.0  0.27102  0.31224  0.39993  1.0000
  H   H15       1.0  0.86562  0.24890  0.44303  1.0000
  H   H16       1.0  0.13438  0.75110  0.55697  1.0000
  H   H17       1.0  0.87178  0.14476  0.32041  1.0000
  H   H18       1.0  0.12821  0.85523  0.67959  1.0000
  H   H19       1.0  0.60783  0.05549  0.37397  1.0000
  H   H20       1.0  0.39217  0.94451  0.62603  1.0000
  H   H21       1.0  0.56054  0.24601  0.36899  1.0000
  H   H22       1.0  0.43945  0.75399  0.63101  1.0000
  H   H23       1.0  0.99969  0.27698  0.23846  1.0000
  H   H24       1.0  0.00031  0.72301  0.76155  1.0000
  H   H25       1.0  0.04214  0.48999  0.26276  1.0000
  H   H26       1.0  0.95786  0.51001  0.73724  1.0000
  H   H27       1.0  0.76316  0.46444  0.13979  1.0000
  H   H28       1.0  0.23684  0.53556  0.86021  1.0000
  H   H29       1.0  0.91100  0.37971  0.08353  1.0000
  H   H30       1.0  0.08900  0.62029  0.91647  1.0000
  H   H31       1.0  0.72642  0.65260  0.87836  1.0000
  H   H32       1.0  0.27358  0.34740  0.12164  1.0000
  H   H33       1.0  0.56597  0.52070  0.91014  1.0000
  H   H34       1.0  0.43402  0.47929  0.08986  1.0000
  H   H35       1.0  0.52236  0.59642  0.79752  1.0000
  H   H36       1.0  0.47763  0.40357  0.20248  1.0000
  H   H37       1.0  0.43587  0.09840  0.20989  1.0000
  H   H38       1.0  0.56413  0.90160  0.79011  1.0000
  H   H39       1.0  0.65406  0.18565  0.15022  1.0000
  H   H40       1.0  0.34594  0.81435  0.84978  1.0000
  H   H41       1.0  0.55144  0.19559  0.98825  1.0000
  H   H42       1.0  0.44856  0.80441  0.01175  1.0000
  H   H43       1.0  0.46084  0.11296  0.87178  1.0000
  H   H44       1.0  0.53916  0.88703  0.12822  1.0000
  C   C1        1.0  0.65752  0.40970  0.78492  1.0000
  C   C2        1.0  0.34248  0.59029  0.21508  1.0000
  C   C3        1.0  0.75506  0.32108  0.83571  1.0000
  C   C4        1.0  0.24494  0.67892  0.16429  1.0000
  C   C5        1.0  0.78791  0.18311  0.78151  1.0000
  C   C6        1.0  0.21209  0.81689  0.21849  1.0000
  C   C7        1.0  0.72884  0.13104  0.67346  1.0000
  C   C8        1.0  0.27116  0.86896  0.32654  1.0000
  C   C9        1.0  0.63703  0.22349  0.62237  1.0000
  C   C10       1.0  0.36297  0.77651  0.37763  1.0000
  C   C11       1.0  0.60054  0.35904  0.67758  1.0000
  C   C12       1.0  0.39945  0.64096  0.32242  1.0000
  C   C13       1.0  0.78864  0.81914  0.48715  1.0000
  C   C14       1.0  0.21137  0.18086  0.51285  1.0000
  C   C15       1.0  0.83744  0.80811  0.39366  1.0000
  C   C16       1.0  0.16256  0.19189  0.60634  1.0000
  C   C17       1.0  0.86046  0.66523  0.34099  1.0000
  C   C18       1.0  0.13954  0.33477  0.65901  1.0000
  C   C19       1.0  0.83258  0.52307  0.37865  1.0000
  C   C20       1.0  0.16741  0.47694  0.62135  1.0000
  C   C21       1.0  0.78174  0.53483  0.47320  1.0000
  C   C22       1.0  0.21827  0.46517  0.52680  1.0000
  C   C23       1.0  0.76276  0.67939  0.52637  1.0000
  C   C24       1.0  0.23725  0.32061  0.47363  1.0000
  C   C25       1.0  0.81244  0.23127  0.36005  1.0000
  C   C26       1.0  0.18756  0.76873  0.63995  1.0000
  C   C27       1.0  0.62609  0.15772  0.33716  1.0000
  C   C28       1.0  0.37391  0.84227  0.66284  1.0000
  C   C29       1.0  0.94117  0.37985  0.24305  1.0000
  C   C30       1.0  0.05883  0.62015  0.75695  1.0000
  C   C31       1.0  0.83059  0.36746  0.13739  1.0000
  C   C32       1.0  0.16941  0.63253  0.86262  1.0000
  C   C33       1.0  0.61537  0.55227  0.84579  1.0000
  C   C34       1.0  0.38463  0.44773  0.15421  1.0000
  S   S1        1.0  0.89404  0.06376  0.85061  1.0000
  S   S2        1.0  0.10596  0.93624  0.14939  1.0000
  N   N1        1.0  0.75222  0.98219  0.62599  1.0000
  N   N2        1.0  0.24778  0.01781  0.37401  1.0000
  N   N3        1.0  0.77225  0.97011  0.53480  1.0000
  N   N4        1.0  0.22775  0.02990  0.46520  1.0000
  N   N5        1.0  0.85547  0.38101  0.32659  1.0000
  N   N6        1.0  0.14453  0.61899  0.67341  1.0000
  O   O1        1.0  0.96505  0.16059  0.95727  1.0000
  O   O2        1.0  0.03495  0.83941  0.04272  1.0000
  O   O3        1.0  0.76135  0.92179  0.84913  1.0000
  O   O4        1.0  0.23865  0.07822  0.15087  1.0000
  O   O5        1.0  0.02382  0.01975  0.80134  1.0000
  O   O6        1.0  0.97618  0.98025  0.19866  1.0000
  O   O7        1.0  0.55783  0.10222  0.22764  1.0000
  O   O8        1.0  0.44217  0.89778  0.77236  1.0000
  O   O9        1.0  0.71389  0.21324  0.09654  1.0000
  O   O10       1.0  0.28611  0.78676  0.90346  1.0000
  O   O11       1.0  0.44613  0.17699  0.93525  1.0000
  O   O12       1.0  0.55387  0.82301  0.06475  1.0000
