data_image0
_chemical_formula_structural       K4H36C48S4N8O16
_chemical_formula_sum              "K4 H36 C48 S4 N8 O16"
_cell_length_a       6.93563
_cell_length_b       13.1616
_cell_length_c       14.5475
_cell_angle_alpha    96.2403
_cell_angle_beta     103.106
_cell_angle_gamma    90.0765

_space_group_name_H-M_alt    "P 1"
_space_group_IT_number       1

loop_
  _space_group_symop_operation_xyz
  'x, y, z'

loop_
  _atom_site_type_symbol
  _atom_site_label
  _atom_site_symmetry_multiplicity
  _atom_site_fract_x
  _atom_site_fract_y
  _atom_site_fract_z
  _atom_site_occupancy
  K   K1        1.0  0.15154  0.36416  0.49552  1.0000
  K   K2        1.0  0.65606  0.13678  0.50616  1.0000
  K   K3        1.0  0.84844  0.63583  0.50448  1.0000
  K   K4        1.0  0.34397  0.86323  0.49384  1.0000
  H   H1        1.0  0.75816  0.19653  0.28363  1.0000
  H   H2        1.0  0.46703  0.30549  0.72105  1.0000
  H   H3        1.0  0.24186  0.80346  0.71637  1.0000
  H   H4        1.0  0.53295  0.69453  0.27895  1.0000
  H   H5        1.0  0.61833  0.21418  0.11344  1.0000
  H   H6        1.0  0.49504  0.28609  0.89132  1.0000
  H   H7        1.0  0.38167  0.78581  0.88658  1.0000
  H   H8        1.0  0.50494  0.71394  0.10869  1.0000
  H   H9        1.0  0.80442  0.14773  0.99153  1.0000
  H   H10       1.0  0.80276  0.34835  0.01144  1.0000
  H   H11       1.0  0.19555  0.85225  0.00849  1.0000
  H   H12       1.0  0.19722  0.65168  0.98857  1.0000
  H   H13       1.0  0.12595  0.06270  0.04247  1.0000
  H   H14       1.0  0.07494  0.43285  0.95901  1.0000
  H   H15       1.0  0.87403  0.93728  0.95753  1.0000
  H   H16       1.0  0.92505  0.56717  0.04099  1.0000
  H   H17       1.0  0.59975  0.92496  0.04380  1.0000
  H   H18       1.0  0.54612  0.57101  0.95492  1.0000
  H   H19       1.0  0.40032  0.07504  0.95623  1.0000
  H   H20       1.0  0.45390  0.42901  0.04505  1.0000
  H   H21       1.0  0.90547  0.82118  0.08470  1.0000
  H   H22       1.0  0.81067  0.67596  0.91326  1.0000
  H   H23       1.0  0.09461  0.17883  0.91534  1.0000
  H   H24       1.0  0.18937  0.32401  0.08667  1.0000
  H   H25       1.0  0.03033  0.78419  0.25212  1.0000
  H   H26       1.0  0.77016  0.71596  0.74628  1.0000
  H   H27       1.0  0.96969  0.21580  0.74792  1.0000
  H   H28       1.0  0.22983  0.28400  0.25364  1.0000
  H   H29       1.0  0.85747  0.84741  0.37730  1.0000
  H   H30       1.0  0.47403  0.65486  0.62259  1.0000
  H   H31       1.0  0.14251  0.15259  0.62273  1.0000
  H   H32       1.0  0.52592  0.34510  0.37735  1.0000
  H   H33       1.0  0.41158  0.98995  0.31613  1.0000
  H   H34       1.0  0.08868  0.51127  0.68489  1.0000
  H   H35       1.0  0.58842  0.01006  0.68388  1.0000
  H   H36       1.0  0.91126  0.48874  0.31510  1.0000
  C   C1        1.0  0.01631  0.11902  0.25878  1.0000
  C   C2        1.0  0.75078  0.38124  0.74427  1.0000
  C   C3        1.0  0.98369  0.88096  0.74123  1.0000
  C   C4        1.0  0.24921  0.61877  0.25573  1.0000
  C   C5        1.0  0.83674  0.16696  0.23007  1.0000
  C   C6        1.0  0.59894  0.33379  0.77387  1.0000
  C   C7        1.0  0.16327  0.83302  0.76994  1.0000
  C   C8        1.0  0.40103  0.66623  0.22614  1.0000
  C   C9        1.0  0.75974  0.17736  0.13435  1.0000
  C   C10       1.0  0.61638  0.32218  0.86960  1.0000
  C   C11       1.0  0.24028  0.82264  0.86566  1.0000
  C   C12       1.0  0.38359  0.67784  0.13040  1.0000
  C   C13       1.0  0.86440  0.14069  0.06649  1.0000
  C   C14       1.0  0.78858  0.35680  0.93653  1.0000
  C   C15       1.0  0.13561  0.85931  0.93352  1.0000
  C   C16       1.0  0.21140  0.64322  0.06347  1.0000
  C   C17       1.0  0.04327  0.09290  0.09416  1.0000
  C   C18       1.0  0.94059  0.40433  0.90802  1.0000
  C   C19       1.0  0.95673  0.90709  0.90584  1.0000
  C   C20       1.0  0.05938  0.59570  0.09198  1.0000
  C   C21       1.0  0.12037  0.08020  0.19008  1.0000
  C   C22       1.0  0.92277  0.41867  0.81216  1.0000
  C   C23       1.0  0.87964  0.91977  0.80993  1.0000
  C   C24       1.0  0.07721  0.58135  0.18785  1.0000
  C   C25       1.0  0.55663  0.94210  0.18632  1.0000
  C   C26       1.0  0.36218  0.55646  0.81355  1.0000
  C   C27       1.0  0.44341  0.05790  0.81370  1.0000
  C   C28       1.0  0.63780  0.44354  0.18642  1.0000
  C   C29       1.0  0.65887  0.90625  0.11596  1.0000
  C   C30       1.0  0.53366  0.59121  0.88306  1.0000
  C   C31       1.0  0.34116  0.09373  0.88406  1.0000
  C   C32       1.0  0.46636  0.40878  0.11690  1.0000
  C   C33       1.0  0.82743  0.84968  0.13893  1.0000
  C   C34       1.0  0.67910  0.64856  0.85965  1.0000
  C   C35       1.0  0.17259  0.15032  0.86110  1.0000
  C   C36       1.0  0.32093  0.35140  0.14028  1.0000
  C   C37       1.0  0.89758  0.82846  0.23331  1.0000
  C   C38       1.0  0.65610  0.67138  0.76555  1.0000
  C   C39       1.0  0.10243  0.17154  0.76673  1.0000
  C   C40       1.0  0.34390  0.32858  0.23439  1.0000
  C   C41       1.0  0.80070  0.86274  0.30409  1.0000
  C   C42       1.0  0.48958  0.63818  0.69561  1.0000
  C   C43       1.0  0.19931  0.13727  0.69595  1.0000
  C   C44       1.0  0.51037  0.36181  0.30434  1.0000
  C   C45       1.0  0.62942  0.91975  0.28210  1.0000
  C   C46       1.0  0.34028  0.58062  0.71808  1.0000
  C   C47       1.0  0.37059  0.08026  0.71792  1.0000
  C   C48       1.0  0.65969  0.41939  0.28188  1.0000
  S   S1        1.0  0.11744  0.11833  0.38380  1.0000
  S   S2        1.0  0.73007  0.38232  0.61903  1.0000
  S   S3        1.0  0.88258  0.88165  0.61620  1.0000
  S   S4        1.0  0.26994  0.61769  0.38098  1.0000
  N   N1        1.0  0.29649  0.02859  0.22053  1.0000
  N   N2        1.0  0.06866  0.47045  0.78081  1.0000
  N   N3        1.0  0.70355  0.97140  0.77950  1.0000
  N   N4        1.0  0.93130  0.52957  0.21919  1.0000
  N   N5        1.0  0.38810  0.99663  0.15600  1.0000
  N   N6        1.0  0.22401  0.50121  0.84443  1.0000
  N   N7        1.0  0.61192  0.00336  0.84402  1.0000
  N   N8        1.0  0.77597  0.49880  0.15556  1.0000
  O   O1        1.0  0.29537  0.18608  0.40371  1.0000
  O   O2        1.0  0.88692  0.31383  0.59818  1.0000
  O   O3        1.0  0.70465  0.81391  0.59630  1.0000
  O   O4        1.0  0.11310  0.68618  0.40184  1.0000
  O   O5        1.0  0.16297  0.01302  0.40189  1.0000
  O   O6        1.0  0.76032  0.48750  0.60082  1.0000
  O   O7        1.0  0.83702  0.98699  0.59810  1.0000
  O   O8        1.0  0.23968  0.51249  0.39917  1.0000
  O   O9        1.0  0.96394  0.16291  0.42957  1.0000
  O   O10       1.0  0.53164  0.33877  0.57403  1.0000
  O   O11       1.0  0.03608  0.83711  0.57044  1.0000
  O   O12       1.0  0.46837  0.66122  0.42596  1.0000
  O   O13       1.0  0.53415  0.95230  0.35049  1.0000
  O   O14       1.0  0.17771  0.54934  0.65044  1.0000
  O   O15       1.0  0.46584  0.04770  0.64953  1.0000
  O   O16       1.0  0.82223  0.45065  0.34954  1.0000
