data_image0
_chemical_formula_structural       Cu2H16C16N8Cl4O16
_chemical_formula_sum              "Cu2 H16 C16 N8 Cl4 O16"
_cell_length_a       8.49951
_cell_length_b       8.49949
_cell_length_c       9.82065
_cell_angle_alpha    84.4013
_cell_angle_beta     84.4012
_cell_angle_gamma    69.4082

_space_group_name_H-M_alt    "P 1"
_space_group_IT_number       1

loop_
  _space_group_symop_operation_xyz
  'x, y, z'

loop_
  _atom_site_type_symbol
  _atom_site_label
  _atom_site_symmetry_multiplicity
  _atom_site_fract_x
  _atom_site_fract_y
  _atom_site_fract_z
  _atom_site_occupancy
  Cu  Cu1       1.0  0.74996  0.25005  0.75000  1.0000
  Cu  Cu2       1.0  0.25006  0.74994  0.25000  1.0000
  H   H1        1.0  0.82189  0.89792  0.87942  1.0000
  H   H2        1.0  0.10208  0.17811  0.62058  1.0000
  H   H3        1.0  0.17813  0.10208  0.12060  1.0000
  H   H4        1.0  0.89792  0.82187  0.37940  1.0000
  H   H5        1.0  0.00605  0.28083  0.93468  1.0000
  H   H6        1.0  0.71918  0.99395  0.56532  1.0000
  H   H7        1.0  0.99396  0.71915  0.06534  1.0000
  H   H8        1.0  0.28085  0.00604  0.43466  1.0000
  H   H9        1.0  0.39086  0.34043  0.86488  1.0000
  H   H10       1.0  0.65956  0.60914  0.63512  1.0000
  H   H11       1.0  0.60914  0.65958  0.13513  1.0000
  H   H12       1.0  0.34042  0.39086  0.36487  1.0000
  H   H13       1.0  0.78782  0.49187  0.94872  1.0000
  H   H14       1.0  0.50813  0.21218  0.55128  1.0000
  H   H15       1.0  0.21216  0.50813  0.05128  1.0000
  H   H16       1.0  0.49187  0.78784  0.44872  1.0000
  C   C1        1.0  0.90211  0.94364  0.93240  1.0000
  C   C2        1.0  0.05636  0.09789  0.56760  1.0000
  C   C3        1.0  0.09789  0.05636  0.06761  1.0000
  C   C4        1.0  0.94364  0.90211  0.43239  1.0000
  C   C5        1.0  0.00043  0.15642  0.96418  1.0000
  C   C6        1.0  0.84359  0.99957  0.53582  1.0000
  C   C7        1.0  0.99957  0.84359  0.03583  1.0000
  C   C8        1.0  0.15641  0.00043  0.46417  1.0000
  C   C9        1.0  0.44075  0.41197  0.92405  1.0000
  C   C10       1.0  0.58803  0.55925  0.57594  1.0000
  C   C11       1.0  0.55926  0.58801  0.07594  1.0000
  C   C12       1.0  0.41198  0.44073  0.42406  1.0000
  C   C13       1.0  0.65970  0.49322  0.97124  1.0000
  C   C14       1.0  0.50677  0.34030  0.52876  1.0000
  C   C15       1.0  0.34031  0.50676  0.02875  1.0000
  C   C16       1.0  0.49324  0.65969  0.47124  1.0000
  N   N1        1.0  0.90238  0.10022  0.89737  1.0000
  N   N2        1.0  0.89978  0.09762  0.60263  1.0000
  N   N3        1.0  0.09766  0.89974  0.10267  1.0000
  N   N4        1.0  0.10026  0.90234  0.39733  1.0000
  N   N5        1.0  0.60079  0.40497  0.89615  1.0000
  N   N6        1.0  0.59503  0.39922  0.60385  1.0000
  N   N7        1.0  0.39918  0.59506  0.10388  1.0000
  N   N8        1.0  0.40494  0.60082  0.39612  1.0000
  Cl  Cl1       1.0  0.44437  0.00804  0.77877  1.0000
  Cl  Cl2       1.0  0.99195  0.55563  0.72123  1.0000
  Cl  Cl3       1.0  0.55557  0.99195  0.22123  1.0000
  Cl  Cl4       1.0  0.00805  0.44443  0.27877  1.0000
  O   O1        1.0  0.58932  0.06121  0.79327  1.0000
  O   O2        1.0  0.93879  0.41068  0.70673  1.0000
  O   O3        1.0  0.41067  0.93876  0.20677  1.0000
  O   O4        1.0  0.06124  0.58933  0.29323  1.0000
  O   O5        1.0  0.45782  0.95288  0.64060  1.0000
  O   O6        1.0  0.04712  0.54218  0.85940  1.0000
  O   O7        1.0  0.54217  0.04711  0.35942  1.0000
  O   O8        1.0  0.95289  0.45783  0.14058  1.0000
  O   O9        1.0  0.29052  0.15357  0.79742  1.0000
  O   O10       1.0  0.84643  0.70948  0.70258  1.0000
  O   O11       1.0  0.70947  0.84642  0.20257  1.0000
  O   O12       1.0  0.15358  0.29053  0.29742  1.0000
  O   O13       1.0  0.44524  0.87209  0.88015  1.0000
  O   O14       1.0  0.12791  0.55476  0.61986  1.0000
  O   O15       1.0  0.55468  0.12790  0.11986  1.0000
  O   O16       1.0  0.87210  0.44531  0.38014  1.0000
