data_image0
_chemical_formula_structural       Cu2H8C8N8O12
_chemical_formula_sum              "Cu2 H8 C8 N8 O12"
_cell_length_a       5.26265
_cell_length_b       6.67971
_cell_length_c       11.6917
_cell_angle_alpha    89.9993
_cell_angle_beta     90.0008
_cell_angle_gamma    90.0006

_space_group_name_H-M_alt    "P 1"
_space_group_IT_number       1

loop_
  _space_group_symop_operation_xyz
  'x, y, z'

loop_
  _atom_site_type_symbol
  _atom_site_label
  _atom_site_symmetry_multiplicity
  _atom_site_fract_x
  _atom_site_fract_y
  _atom_site_fract_z
  _atom_site_occupancy
  Cu  Cu1       1.0  1.00000  0.50000  0.50000  1.0000
  Cu  Cu2       1.0  0.00000  0.00000  0.00000  1.0000
  H   H1        1.0  0.68639  0.81098  0.60920  1.0000
  H   H2        1.0  0.31360  0.68901  0.10920  1.0000
  H   H3        1.0  0.31361  0.81099  0.39080  1.0000
  H   H4        1.0  0.68640  0.68902  0.89080  1.0000
  H   H5        1.0  0.31361  0.18901  0.39080  1.0000
  H   H6        1.0  0.68639  0.31099  0.89080  1.0000
  H   H7        1.0  0.68640  0.18901  0.60920  1.0000
  H   H8        1.0  0.31360  0.31099  0.10920  1.0000
  C   C1        1.0  0.82572  0.89594  0.56039  1.0000
  C   C2        1.0  0.17428  0.60406  0.06039  1.0000
  C   C3        1.0  0.17428  0.89594  0.43961  1.0000
  C   C4        1.0  0.82572  0.60406  0.93961  1.0000
  C   C5        1.0  0.17428  0.10406  0.43961  1.0000
  C   C6        1.0  0.82572  0.39594  0.93961  1.0000
  C   C7        1.0  0.82572  0.10405  0.56038  1.0000
  C   C8        1.0  0.17428  0.39594  0.06039  1.0000
  N   N1        1.0  0.99999  0.79454  0.50000  1.0000
  N   N2        1.0  0.00000  0.70545  0.00000  1.0000
  N   N3        1.0  0.00001  0.20545  0.50000  1.0000
  N   N4        1.0  0.00000  0.29455  0.00000  1.0000
  N   N5        1.0  0.73088  0.50000  0.30229  1.0000
  N   N6        1.0  0.26911  0.00000  0.80231  1.0000
  N   N7        1.0  0.26912  0.50000  0.69771  1.0000
  N   N8        1.0  0.73089  1.00000  0.19769  1.0000
  O   O1        1.0  0.97443  0.50000  0.32689  1.0000
  O   O2        1.0  0.02554  0.00000  0.82689  1.0000
  O   O3        1.0  0.02556  0.49999  0.67311  1.0000
  O   O4        1.0  0.97446  0.00000  0.17311  1.0000
  O   O5        1.0  0.57588  0.50000  0.38398  1.0000
  O   O6        1.0  0.42408  1.00000  0.88400  1.0000
  O   O7        1.0  0.42412  0.50000  0.61602  1.0000
  O   O8        1.0  0.57592  0.00000  0.11600  1.0000
  O   O9        1.0  0.66803  0.50000  0.19989  1.0000
  O   O10       1.0  0.33197  0.00001  0.69990  1.0000
  O   O11       1.0  0.33197  0.50000  0.80010  1.0000
  O   O12       1.0  0.66803  0.99999  0.30010  1.0000
