data_image0
_chemical_formula_structural       Zn2H44C56N2O12
_chemical_formula_sum              "Zn2 H44 C56 N2 O12"
_cell_length_a       9.46586
_cell_length_b       10.9821
_cell_length_c       12.227
_cell_angle_alpha    110.094
_cell_angle_beta     96.6726
_cell_angle_gamma    96.4001

_space_group_name_H-M_alt    "P 1"
_space_group_IT_number       1

loop_
  _space_group_symop_operation_xyz
  'x, y, z'

loop_
  _atom_site_type_symbol
  _atom_site_label
  _atom_site_symmetry_multiplicity
  _atom_site_fract_x
  _atom_site_fract_y
  _atom_site_fract_z
  _atom_site_occupancy
  Zn  Zn1       1.0  0.91386  0.97390  0.58170  1.0000
  Zn  Zn2       1.0  0.08613  0.02610  0.41830  1.0000
  H   H1        1.0  0.40318  0.80265  0.45740  1.0000
  H   H2        1.0  0.59683  0.19735  0.54260  1.0000
  H   H3        1.0  0.60426  0.69949  0.51356  1.0000
  H   H4        1.0  0.39574  0.30051  0.48643  1.0000
  H   H5        1.0  0.37213  0.61039  0.76857  1.0000
  H   H6        1.0  0.62788  0.38961  0.23143  1.0000
  H   H7        1.0  0.17099  0.71621  0.71036  1.0000
  H   H8        1.0  0.82902  0.28379  0.28964  1.0000
  H   H9        1.0  0.77099  0.69047  0.62731  1.0000
  H   H10       1.0  0.22901  0.30953  0.37269  1.0000
  H   H11       1.0  0.72733  0.51612  0.55482  1.0000
  H   H12       1.0  0.27267  0.48388  0.44518  1.0000
  H   H13       1.0  0.92320  0.41295  0.60540  1.0000
  H   H14       1.0  0.07680  0.58704  0.39460  1.0000
  H   H15       1.0  0.11762  0.39739  0.75253  1.0000
  H   H16       1.0  0.88238  0.60261  0.24747  1.0000
  H   H17       1.0  0.01717  0.73692  0.01694  1.0000
  H   H18       1.0  0.98282  0.26308  0.98305  1.0000
  H   H19       1.0  0.81903  0.74984  0.87007  1.0000
  H   H20       1.0  0.18097  0.25015  0.12993  1.0000
  H   H21       1.0  0.55843  0.67775  0.33514  1.0000
  H   H22       1.0  0.44156  0.32225  0.66486  1.0000
  H   H23       1.0  0.34948  0.58016  0.17641  1.0000
  H   H24       1.0  0.65052  0.41983  0.82358  1.0000
  H   H25       1.0  0.58258  0.71055  0.94255  1.0000
  H   H26       1.0  0.41742  0.28945  0.05745  1.0000
  H   H27       1.0  0.79400  0.81003  0.10715  1.0000
  H   H28       1.0  0.20600  0.18997  0.89285  1.0000
  H   H29       1.0  0.18175  0.61907  0.07335  1.0000
  H   H30       1.0  0.81825  0.38093  0.92665  1.0000
  H   H31       1.0  0.20130  0.45831  0.97985  1.0000
  H   H32       1.0  0.79870  0.54169  0.02015  1.0000
  H   H33       1.0  0.97366  0.95787  0.81708  1.0000
  H   H34       1.0  0.02634  0.04214  0.18292  1.0000
  H   H35       1.0  0.85253  0.98770  0.99449  1.0000
  H   H36       1.0  0.14748  0.01230  0.00551  1.0000
  H   H37       1.0  0.47627  0.04723  0.79461  1.0000
  H   H38       1.0  0.52373  0.95277  0.20540  1.0000
  H   H39       1.0  0.61373  0.01879  0.62904  1.0000
  H   H40       1.0  0.38627  0.98121  0.37096  1.0000
  H   H41       1.0  0.57829  0.14252  0.06076  1.0000
  H   H42       1.0  0.42172  0.85748  0.93925  1.0000
  H   H43       1.0  0.64220  0.00510  0.07852  1.0000
  H   H44       1.0  0.35780  0.99490  0.92148  1.0000
  C   C1        1.0  0.16083  0.84046  0.55044  1.0000
  C   C2        1.0  0.83917  0.15954  0.44956  1.0000
  C   C3        1.0  0.27530  0.76885  0.58135  1.0000
  C   C4        1.0  0.72470  0.23115  0.41864  1.0000
  C   C5        1.0  0.39728  0.76080  0.52597  1.0000
  C   C6        1.0  0.60272  0.23919  0.47403  1.0000
  C   C7        1.0  0.51027  0.70191  0.55732  1.0000
  C   C8        1.0  0.48973  0.29809  0.44268  1.0000
  C   C9        1.0  0.50241  0.65049  0.64717  1.0000
  C   C10       1.0  0.49758  0.34951  0.35283  1.0000
  C   C11       1.0  0.37839  0.65341  0.70078  1.0000
  C   C12       1.0  0.62162  0.34659  0.29922  1.0000
  C   C13       1.0  0.26664  0.71250  0.66820  1.0000
  C   C14       1.0  0.73337  0.28751  0.33180  1.0000
  C   C15       1.0  0.74264  0.59717  0.64076  1.0000
  C   C16       1.0  0.25736  0.40283  0.35924  1.0000
  C   C17       1.0  0.85918  0.58342  0.72798  1.0000
  C   C18       1.0  0.14082  0.41658  0.27201  1.0000
  C   C19       1.0  0.94381  0.48433  0.69548  1.0000
  C   C20       1.0  0.05619  0.51567  0.30451  1.0000
  C   C21       1.0  0.05340  0.47579  0.77813  1.0000
  C   C22       1.0  0.94660  0.52421  0.22187  1.0000
  C   C23       1.0  0.08094  0.56663  0.89405  1.0000
  C   C24       1.0  0.91906  0.43337  0.10594  1.0000
  C   C25       1.0  0.99641  0.66618  0.92635  1.0000
  C   C26       1.0  0.00358  0.33382  0.07365  1.0000
  C   C27       1.0  0.88615  0.67374  0.84441  1.0000
  C   C28       1.0  0.11385  0.32625  0.15558  1.0000
  C   C29       1.0  0.80741  0.82607  0.33376  1.0000
  C   C30       1.0  0.19257  0.17394  0.66626  1.0000
  C   C31       1.0  0.68729  0.75568  0.23340  1.0000
  C   C32       1.0  0.31271  0.24432  0.76661  1.0000
  C   C33       1.0  0.56252  0.68768  0.25004  1.0000
  C   C34       1.0  0.43747  0.31232  0.74995  1.0000
  C   C35       1.0  0.44391  0.63343  0.16039  1.0000
  C   C36       1.0  0.55608  0.36656  0.83961  1.0000
  C   C37       1.0  0.44909  0.64848  0.05138  1.0000
  C   C38       1.0  0.55092  0.35152  0.94861  1.0000
  C   C39       1.0  0.57776  0.70727  0.03016  1.0000
  C   C40       1.0  0.42225  0.29273  0.96984  1.0000
  C   C41       1.0  0.69463  0.76111  0.12094  1.0000
  C   C42       1.0  0.30537  0.23889  0.87907  1.0000
  C   C43       1.0  0.19796  0.55957  0.98420  1.0000
  C   C44       1.0  0.80205  0.44043  0.01579  1.0000
  C   C45       1.0  0.86374  0.97901  0.81748  1.0000
  C   C46       1.0  0.13626  0.02099  0.18252  1.0000
  C   C47       1.0  0.79512  0.99484  0.91474  1.0000
  C   C48       1.0  0.20488  0.00516  0.08526  1.0000
  C   C49       1.0  0.65256  0.01895  0.91019  1.0000
  C   C50       1.0  0.34744  0.98105  0.08981  1.0000
  C   C51       1.0  0.58632  0.02764  0.80505  1.0000
  C   C52       1.0  0.41368  0.97236  0.19495  1.0000
  C   C53       1.0  0.66198  0.01163  0.71153  1.0000
  C   C54       1.0  0.33803  0.98837  0.28847  1.0000
  C   C55       1.0  0.57784  0.03666  0.01547  1.0000
  C   C56       1.0  0.42216  0.96334  0.98454  1.0000
  N   N1        1.0  0.79829  0.98689  0.71686  1.0000
  N   N2        1.0  0.20172  0.01311  0.28314  1.0000
  O   O1        1.0  0.05044  0.84530  0.60192  1.0000
  O   O2        1.0  0.94957  0.15471  0.39807  1.0000
  O   O3        1.0  0.61030  0.59762  0.68949  1.0000
  O   O4        1.0  0.38970  0.40238  0.31051  1.0000
  O   O5        1.0  0.18350  0.89404  0.47516  1.0000
  O   O6        1.0  0.81650  0.10595  0.52483  1.0000
  O   O7        1.0  0.78808  0.82960  0.43651  1.0000
  O   O8        1.0  0.21191  0.17040  0.56350  1.0000
  O   O9        1.0  0.91966  0.88020  0.30952  1.0000
  O   O10       1.0  0.08033  0.11981  0.69049  1.0000
  O   O11       1.0  0.33494  0.61135  0.96193  1.0000
  O   O12       1.0  0.66506  0.38865  0.03806  1.0000
