data_image0
_chemical_formula_structural       Zn4H36C52N20O8
_chemical_formula_sum              "Zn4 H36 C52 N20 O8"
_cell_length_a       8.86942
_cell_length_b       10.2851
_cell_length_c       14.441
_cell_angle_alpha    90
_cell_angle_beta     96.3138
_cell_angle_gamma    90

_space_group_name_H-M_alt    "P 1"
_space_group_IT_number       1

loop_
  _space_group_symop_operation_xyz
  'x, y, z'

loop_
  _atom_site_type_symbol
  _atom_site_label
  _atom_site_symmetry_multiplicity
  _atom_site_fract_x
  _atom_site_fract_y
  _atom_site_fract_z
  _atom_site_occupancy
  Zn  Zn1       1.0  0.75732  0.80155  0.99684  1.0000
  Zn  Zn2       1.0  0.25732  0.19845  0.99684  1.0000
  Zn  Zn3       1.0  0.80397  0.79546  0.50303  1.0000
  Zn  Zn4       1.0  0.30397  0.20454  0.50303  1.0000
  H   H1        1.0  0.00320  0.44157  0.22299  1.0000
  H   H2        1.0  0.50320  0.55843  0.22300  1.0000
  H   H3        1.0  0.03907  0.38794  0.39632  1.0000
  H   H4        1.0  0.53907  0.61205  0.39632  1.0000
  H   H5        1.0  0.93005  0.53593  0.50590  1.0000
  H   H6        1.0  0.43005  0.46406  0.50590  1.0000
  H   H7        1.0  0.75074  0.77909  0.29043  1.0000
  H   H8        1.0  0.25074  0.22091  0.29043  1.0000
  H   H9        1.0  0.54633  0.43231  0.70028  1.0000
  H   H10       1.0  0.04633  0.56769  0.70028  1.0000
  H   H11       1.0  0.50612  0.38561  0.86772  1.0000
  H   H12       1.0  0.00612  0.61439  0.86772  1.0000
  H   H13       1.0  0.59797  0.54715  0.98984  1.0000
  H   H14       1.0  0.09797  0.45285  0.98984  1.0000
  H   H15       1.0  0.77921  0.78258  0.79484  1.0000
  H   H16       1.0  0.27921  0.21743  0.79484  1.0000
  H   H17       1.0  0.98853  0.93439  0.19315  1.0000
  H   H18       1.0  0.48853  0.06560  0.19315  1.0000
  H   H19       1.0  0.85616  0.05134  0.31211  1.0000
  H   H20       1.0  0.35616  0.94866  0.31211  1.0000
  H   H21       1.0  0.72266  0.25798  0.27233  1.0000
  H   H22       1.0  0.22266  0.74202  0.27234  1.0000
  H   H23       1.0  0.72404  0.35351  0.11329  1.0000
  H   H24       1.0  0.22404  0.64649  0.11329  1.0000
  H   H25       1.0  0.85757  0.23844  0.99475  1.0000
  H   H26       1.0  0.35757  0.76156  0.99475  1.0000
  H   H27       1.0  0.00351  0.93950  0.69650  1.0000
  H   H28       1.0  0.50351  0.06051  0.69650  1.0000
  H   H29       1.0  0.85854  0.04761  0.81385  1.0000
  H   H30       1.0  0.35854  0.95239  0.81385  1.0000
  H   H31       1.0  0.73080  0.25651  0.77818  1.0000
  H   H32       1.0  0.23081  0.74349  0.77818  1.0000
  H   H33       1.0  0.74485  0.36295  0.62236  1.0000
  H   H34       1.0  0.24485  0.63705  0.62237  1.0000
  H   H35       1.0  0.88607  0.25533  0.50552  1.0000
  H   H36       1.0  0.38607  0.74467  0.50553  1.0000
  C   C1        1.0  0.84837  0.64752  0.14327  1.0000
  C   C2        1.0  0.34837  0.35248  0.14327  1.0000
  C   C3        1.0  0.87146  0.61216  0.24473  1.0000
  C   C4        1.0  0.37146  0.38784  0.24473  1.0000
  C   C5        1.0  0.95546  0.50191  0.27457  1.0000
  C   C6        1.0  0.45546  0.49808  0.27457  1.0000
  C   C7        1.0  0.97486  0.47223  0.36912  1.0000
  C   C8        1.0  0.47486  0.52777  0.36912  1.0000
  C   C9        1.0  0.91392  0.55499  0.43135  1.0000
  C   C10       1.0  0.41392  0.44501  0.43135  1.0000
  C   C11       1.0  0.81412  0.69102  0.31134  1.0000
  C   C12       1.0  0.31413  0.30898  0.31133  1.0000
  C   C13       1.0  0.70388  0.63788  0.63822  1.0000
  C   C14       1.0  0.20388  0.36212  0.63822  1.0000
  C   C15       1.0  0.66949  0.60934  0.73580  1.0000
  C   C16       1.0  0.16949  0.39067  0.73580  1.0000
  C   C17       1.0  0.58822  0.49838  0.75636  1.0000
  C   C18       1.0  0.08822  0.50162  0.75636  1.0000
  C   C19       1.0  0.56322  0.47356  0.84834  1.0000
  C   C20       1.0  0.06322  0.52644  0.84834  1.0000
  C   C21       1.0  0.61590  0.56221  0.91707  1.0000
  C   C22       1.0  0.11590  0.43779  0.91707  1.0000
  C   C23       1.0  0.71729  0.69425  0.80834  1.0000
  C   C24       1.0  0.21729  0.30575  0.80834  1.0000
  C   C25       1.0  0.99808  0.00657  0.01410  1.0000
  C   C26       1.0  0.49808  0.99343  0.01410  1.0000
  C   C27       1.0  0.92918  0.07848  0.08639  1.0000
  C   C28       1.0  0.42918  0.92151  0.08639  1.0000
  C   C29       1.0  0.93021  0.02597  0.17599  1.0000
  C   C30       1.0  0.43021  0.97403  0.17599  1.0000
  C   C31       1.0  0.85822  0.09228  0.24285  1.0000
  C   C32       1.0  0.35822  0.90772  0.24285  1.0000
  C   C33       1.0  0.78283  0.20922  0.22023  1.0000
  C   C34       1.0  0.28283  0.79078  0.22023  1.0000
  C   C35       1.0  0.78369  0.26283  0.13132  1.0000
  C   C36       1.0  0.28369  0.73717  0.13132  1.0000
  C   C37       1.0  0.85833  0.19843  0.06471  1.0000
  C   C38       1.0  0.35833  0.80157  0.06471  1.0000
  C   C39       1.0  0.02840  0.02460  0.52174  1.0000
  C   C40       1.0  0.52840  0.97540  0.52174  1.0000
  C   C41       1.0  0.95397  0.09126  0.59387  1.0000
  C   C42       1.0  0.45398  0.90874  0.59388  1.0000
  C   C43       1.0  0.94681  0.03217  0.68088  1.0000
  C   C44       1.0  0.44680  0.96783  0.68088  1.0000
  C   C45       1.0  0.86758  0.09307  0.74675  1.0000
  C   C46       1.0  0.36758  0.90693  0.74675  1.0000
  C   C47       1.0  0.79464  0.21166  0.72628  1.0000
  C   C48       1.0  0.29465  0.78834  0.72628  1.0000
  C   C49       1.0  0.80218  0.27096  0.63986  1.0000
  C   C50       1.0  0.30219  0.72904  0.63986  1.0000
  C   C51       1.0  0.88221  0.21110  0.57376  1.0000
  C   C52       1.0  0.38221  0.78890  0.57376  1.0000
  N   N1        1.0  0.83627  0.66325  0.40300  1.0000
  N   N2        1.0  0.33627  0.33674  0.40300  1.0000
  N   N3        1.0  0.69035  0.67126  0.89675  1.0000
  N   N4        1.0  0.19035  0.32874  0.89675  1.0000
  N   N5        1.0  0.95181  0.89063  0.97841  1.0000
  N   N6        1.0  0.45181  0.10937  0.97841  1.0000
  N   N7        1.0  0.04189  0.86072  0.91140  1.0000
  N   N8        1.0  0.54189  0.13928  0.91140  1.0000
  N   N9        1.0  0.14004  0.95401  0.90672  1.0000
  N   N10       1.0  0.64004  0.04599  0.90673  1.0000
  N   N11       1.0  0.11507  0.04654  0.97015  1.0000
  N   N12       1.0  0.61507  0.95346  0.97016  1.0000
  N   N13       1.0  0.99037  0.90554  0.48858  1.0000
  N   N14       1.0  0.49037  0.09446  0.48858  1.0000
  N   N15       1.0  0.07867  0.87998  0.41967  1.0000
  N   N16       1.0  0.57867  0.12002  0.41967  1.0000
  N   N17       1.0  0.16759  0.97856  0.41151  1.0000
  N   N18       1.0  0.66759  0.02144  0.41151  1.0000
  N   N19       1.0  0.13906  0.07142  0.47439  1.0000
  N   N20       1.0  0.63906  0.92858  0.47439  1.0000
  O   O1        1.0  0.74675  0.73745  0.12279  1.0000
  O   O2        1.0  0.24675  0.26255  0.12279  1.0000
  O   O3        1.0  0.92447  0.59330  0.08666  1.0000
  O   O4        1.0  0.42447  0.40671  0.08666  1.0000
  O   O5        1.0  0.79756  0.73386  0.63083  1.0000
  O   O6        1.0  0.29755  0.26615  0.63083  1.0000
  O   O7        1.0  0.64415  0.57102  0.57215  1.0000
  O   O8        1.0  0.14415  0.42898  0.57215  1.0000
