data_image0
_chemical_formula_structural       Zn2H60C70N4O12
_chemical_formula_sum              "Zn2 H60 C70 N4 O12"
_cell_length_a       9.06807
_cell_length_b       11.5729
_cell_length_c       15.685
_cell_angle_alpha    96.5645
_cell_angle_beta     100.49
_cell_angle_gamma    106.345

_space_group_name_H-M_alt    "P 1"
_space_group_IT_number       1

loop_
  _space_group_symop_operation_xyz
  'x, y, z'

loop_
  _atom_site_type_symbol
  _atom_site_label
  _atom_site_symmetry_multiplicity
  _atom_site_fract_x
  _atom_site_fract_y
  _atom_site_fract_z
  _atom_site_occupancy
  Zn  Zn1       1.0  0.56197  0.49362  0.31748  1.0000
  Zn  Zn2       1.0  0.43802  0.50638  0.68252  1.0000
  H   H1        1.0  0.61326  0.32876  0.44381  1.0000
  H   H2        1.0  0.38674  0.67124  0.55619  1.0000
  H   H3        1.0  0.12499  0.08220  0.23312  1.0000
  H   H4        1.0  0.87501  0.91780  0.76689  1.0000
  H   H5        1.0  0.93250  0.90872  0.50862  1.0000
  H   H6        1.0  0.06750  0.09128  0.49139  1.0000
  H   H7        1.0  0.36702  0.57392  0.16890  1.0000
  H   H8        1.0  0.63298  0.42609  0.83110  1.0000
  H   H9        1.0  0.51027  0.24807  0.00326  1.0000
  H   H10       1.0  0.48973  0.75193  0.99674  1.0000
  H   H11       1.0  0.15730  0.67731  0.15892  1.0000
  H   H12       1.0  0.84270  0.32269  0.84107  1.0000
  H   H13       1.0  0.48312  0.11713  0.46653  1.0000
  H   H14       1.0  0.51689  0.88287  0.53347  1.0000
  H   H15       1.0  0.17481  0.94980  0.42107  1.0000
  H   H16       1.0  0.82518  0.05020  0.57893  1.0000
  H   H17       1.0  0.31188  0.90633  0.37011  1.0000
  H   H18       1.0  0.68812  0.09367  0.62990  1.0000
  H   H19       1.0  0.17303  0.22844  0.05632  1.0000
  H   H20       1.0  0.82697  0.77156  0.94368  1.0000
  H   H21       1.0  0.19569  0.35011  0.99490  1.0000
  H   H22       1.0  0.80431  0.64989  0.00510  1.0000
  H   H23       1.0  0.16835  0.65946  0.43329  1.0000
  H   H24       1.0  0.83165  0.34055  0.56671  1.0000
  H   H25       1.0  0.97676  0.73635  0.35346  1.0000
  H   H26       1.0  0.02324  0.26365  0.64654  1.0000
  H   H27       1.0  0.92203  0.69162  0.23829  1.0000
  H   H28       1.0  0.07797  0.30839  0.76171  1.0000
  H   H29       1.0  0.09381  0.38393  0.11052  1.0000
  H   H30       1.0  0.90619  0.61607  0.88948  1.0000
  H   H31       1.0  0.12513  0.87792  0.22023  1.0000
  H   H32       1.0  0.87488  0.12209  0.77978  1.0000
  H   H33       1.0  0.98614  0.91272  0.27551  1.0000
  H   H34       1.0  0.01386  0.08728  0.72449  1.0000
  H   H35       1.0  0.39092  0.22285  0.75506  1.0000
  H   H36       1.0  0.60909  0.77715  0.24494  1.0000
  H   H37       1.0  0.17497  0.00017  0.62761  1.0000
  H   H38       1.0  0.82503  0.99983  0.37239  1.0000
  H   H39       1.0  0.67456  0.16036  0.91952  1.0000
  H   H40       1.0  0.32544  0.83964  0.08048  1.0000
  H   H41       1.0  0.37689  0.55623  0.43217  1.0000
  H   H42       1.0  0.62311  0.44377  0.56783  1.0000
  H   H43       1.0  0.16638  0.63638  0.67266  1.0000
  H   H44       1.0  0.83362  0.36362  0.32734  1.0000
  H   H45       1.0  0.92317  0.54894  0.55197  1.0000
  H   H46       1.0  0.07683  0.45106  0.44803  1.0000
  H   H47       1.0  0.41542  0.03244  0.68834  1.0000
  H   H48       1.0  0.58458  0.96756  0.31166  1.0000
  H   H49       1.0  0.52149  0.99365  0.78191  1.0000
  H   H50       1.0  0.47851  0.00635  0.21809  1.0000
  H   H51       1.0  0.27002  0.29537  0.22167  1.0000
  H   H52       1.0  0.72998  0.70462  0.77833  1.0000
  H   H53       1.0  0.29612  0.33796  0.86489  1.0000
  H   H54       1.0  0.70388  0.66204  0.13511  1.0000
  H   H55       1.0  0.13485  0.01143  0.97340  1.0000
  H   H56       1.0  0.86515  0.98858  0.02660  1.0000
  H   H57       1.0  0.92737  0.46476  0.19428  1.0000
  H   H58       1.0  0.07263  0.53524  0.80572  1.0000
  H   H59       1.0  0.24168  0.89877  0.86818  1.0000
  H   H60       1.0  0.75832  0.10123  0.13182  1.0000
  C   C1        1.0  0.91177  0.72396  0.52314  1.0000
  C   C2        1.0  0.08823  0.27604  0.47686  1.0000
  C   C3        1.0  0.70853  0.36325  0.10400  1.0000
  C   C4        1.0  0.29148  0.63675  0.89600  1.0000
  C   C5        1.0  0.29307  0.08000  0.35066  1.0000
  C   C6        1.0  0.70693  0.92000  0.64934  1.0000
  C   C7        1.0  0.50355  0.27060  0.39991  1.0000
  C   C8        1.0  0.49645  0.72941  0.60009  1.0000
  C   C9        1.0  0.23267  0.13290  0.28189  1.0000
  C   C10       1.0  0.76733  0.86710  0.71811  1.0000
  C   C11       1.0  0.98533  0.85038  0.54530  1.0000
  C   C12       1.0  0.01467  0.14962  0.45470  1.0000
  C   C13       1.0  0.32032  0.59642  0.22582  1.0000
  C   C14       1.0  0.67968  0.40358  0.77417  1.0000
  C   C15       1.0  0.14615  0.67790  0.29612  1.0000
  C   C16       1.0  0.85385  0.32210  0.70388  1.0000
  C   C17       1.0  0.32722  0.05446  0.80642  1.0000
  C   C18       1.0  0.67278  0.94554  0.19358  1.0000
  C   C19       1.0  0.18663  0.82278  0.65743  1.0000
  C   C20       1.0  0.81338  0.17722  0.34257  1.0000
  C   C21       1.0  0.20819  0.18242  0.92617  1.0000
  C   C22       1.0  0.79181  0.81758  0.07383  1.0000
  C   C23       1.0  0.61006  0.41154  0.15669  1.0000
  C   C24       1.0  0.38995  0.58846  0.84331  1.0000
  C   C25       1.0  0.63798  0.27723  0.02605  1.0000
  C   C26       1.0  0.36202  0.72277  0.97395  1.0000
  C   C27       1.0  0.20400  0.65327  0.22114  1.0000
  C   C28       1.0  0.79600  0.34673  0.77886  1.0000
  C   C29       1.0  0.43087  0.15276  0.41119  1.0000
  C   C30       1.0  0.56912  0.84724  0.58881  1.0000
  C   C31       1.0  0.76940  0.67340  0.44884  1.0000
  C   C32       1.0  0.23060  0.32660  0.55116  1.0000
  C   C33       1.0  0.21796  0.95000  0.35966  1.0000
  C   C34       1.0  0.78204  0.05000  0.64034  1.0000
  C   C35       1.0  0.89409  0.26649  0.00909  1.0000
  C   C36       1.0  0.10591  0.73351  0.99091  1.0000
  C   C37       1.0  0.14496  0.25067  0.99007  1.0000
  C   C38       1.0  0.85504  0.74933  0.00993  1.0000
  C   C39       1.0  0.21036  0.64313  0.37346  1.0000
  C   C40       1.0  0.78964  0.35688  0.62654  1.0000
  C   C41       1.0  0.02225  0.74060  0.29335  1.0000
  C   C42       1.0  0.97775  0.25940  0.70665  1.0000
  C   C43       1.0  0.96630  0.35289  0.08658  1.0000
  C   C44       1.0  0.03370  0.64711  0.91342  1.0000
  C   C45       1.0  0.08486  0.87442  0.28234  1.0000
  C   C46       1.0  0.91514  0.12559  0.71766  1.0000
  C   C47       1.0  0.33972  0.17742  0.80488  1.0000
  C   C48       1.0  0.66028  0.82257  0.19512  1.0000
  C   C49       1.0  0.12160  0.90115  0.61191  1.0000
  C   C50       1.0  0.87839  0.09885  0.38809  1.0000
  C   C51       1.0  0.72915  0.22874  0.97919  1.0000
  C   C52       1.0  0.27085  0.77126  0.02081  1.0000
  C   C53       1.0  0.32630  0.58644  0.37346  1.0000
  C   C54       1.0  0.67371  0.41357  0.62654  1.0000
  C   C55       1.0  0.11398  0.69546  0.63635  1.0000
  C   C56       1.0  0.88602  0.30454  0.36365  1.0000
  C   C57       1.0  0.97850  0.64736  0.56972  1.0000
  C   C58       1.0  0.02150  0.35264  0.43028  1.0000
  C   C59       1.0  0.40276  0.98923  0.74684  1.0000
  C   C60       1.0  0.59724  0.01077  0.25316  1.0000
  C   C61       1.0  0.31147  0.25198  0.27523  1.0000
  C   C62       1.0  0.68853  0.74802  0.72477  1.0000
  C   C63       1.0  0.28277  0.24133  0.86537  1.0000
  C   C64       1.0  0.71723  0.75867  0.13463  1.0000
  C   C65       1.0  0.19217  0.05823  0.92592  1.0000
  C   C66       1.0  0.80783  0.94177  0.07408  1.0000
  C   C67       1.0  0.87272  0.39937  0.13331  1.0000
  C   C68       1.0  0.12728  0.60063  0.86669  1.0000
  C   C69       1.0  0.25200  0.99473  0.86699  1.0000
  C   C70       1.0  0.74800  0.00527  0.13301  1.0000
  N   N1        1.0  0.44549  0.31970  0.33278  1.0000
  N   N2        1.0  0.55451  0.68030  0.66722  1.0000
  N   N3        1.0  0.38102  0.56409  0.30110  1.0000
  N   N4        1.0  0.61898  0.43591  0.69890  1.0000
  O   O1        1.0  0.97473  0.21449  0.95873  1.0000
  O   O2        1.0  0.02527  0.78551  0.04126  1.0000
  O   O3        1.0  0.68965  0.48330  0.23154  1.0000
  O   O4        1.0  0.31035  0.51670  0.76846  1.0000
  O   O5        1.0  0.70452  0.55462  0.43547  1.0000
  O   O6        1.0  0.29548  0.44538  0.56453  1.0000
  O   O7        1.0  0.72179  0.74239  0.40227  1.0000
  O   O8        1.0  0.27821  0.25761  0.59773  1.0000
  O   O9        1.0  0.46351  0.38293  0.13050  1.0000
  O   O10       1.0  0.53649  0.61707  0.86950  1.0000
  O   O11       1.0  0.32227  0.86054  0.72175  1.0000
  O   O12       1.0  0.67773  0.13946  0.27825  1.0000
