data_image0
_chemical_formula_structural       Zn4H44C48N12O8
_chemical_formula_sum              "Zn4 H44 C48 N12 O8"
_cell_length_a       9.51902
_cell_length_b       9.77607
_cell_length_c       20.2236
_cell_angle_alpha    101.618
_cell_angle_beta     103.072
_cell_angle_gamma    90.1116

_space_group_name_H-M_alt    "P 1"
_space_group_IT_number       1

loop_
  _space_group_symop_operation_xyz
  'x, y, z'

loop_
  _atom_site_type_symbol
  _atom_site_label
  _atom_site_symmetry_multiplicity
  _atom_site_fract_x
  _atom_site_fract_y
  _atom_site_fract_z
  _atom_site_occupancy
  Zn  Zn1       1.0  0.52605  0.08691  0.42923  1.0000
  Zn  Zn2       1.0  0.09461  0.41132  0.56904  1.0000
  Zn  Zn3       1.0  0.47395  0.91308  0.57077  1.0000
  Zn  Zn4       1.0  0.90538  0.58868  0.43095  1.0000
  H   H1        1.0  0.42165  0.15726  0.22053  1.0000
  H   H2        1.0  0.19976  0.34300  0.77710  1.0000
  H   H3        1.0  0.57835  0.84275  0.77948  1.0000
  H   H4        1.0  0.80024  0.65700  0.22290  1.0000
  H   H5        1.0  0.07854  0.87731  0.22607  1.0000
  H   H6        1.0  0.85187  0.62219  0.77455  1.0000
  H   H7        1.0  0.92145  0.12269  0.77393  1.0000
  H   H8        1.0  0.14813  0.37781  0.22545  1.0000
  H   H9        1.0  0.96174  0.88260  0.10443  1.0000
  H   H10       1.0  0.85702  0.61715  0.89693  1.0000
  H   H11       1.0  0.03827  0.11740  0.89556  1.0000
  H   H12       1.0  0.14299  0.38287  0.10307  1.0000
  H   H13       1.0  0.30682  0.16371  0.09807  1.0000
  H   H14       1.0  0.20752  0.33703  0.90018  1.0000
  H   H15       1.0  0.69319  0.83630  0.90193  1.0000
  H   H16       1.0  0.79249  0.66298  0.09983  1.0000
  H   H17       1.0  0.12463  0.09876  0.99843  1.0000
  H   H18       1.0  0.12540  0.40098  0.00046  1.0000
  H   H19       1.0  0.87536  0.90123  0.00157  1.0000
  H   H20       1.0  0.87460  0.59902  0.99954  1.0000
  H   H21       1.0  0.15528  0.06693  0.62951  1.0000
  H   H22       1.0  0.52867  0.43354  0.37164  1.0000
  H   H23       1.0  0.84472  0.93307  0.37049  1.0000
  H   H24       1.0  0.47132  0.56646  0.62837  1.0000
  H   H25       1.0  0.24009  0.22686  0.68005  1.0000
  H   H26       1.0  0.56299  0.27362  0.32055  1.0000
  H   H27       1.0  0.75991  0.77314  0.31995  1.0000
  H   H28       1.0  0.43700  0.72639  0.67945  1.0000
  H   H29       1.0  0.34165  0.07171  0.67125  1.0000
  H   H30       1.0  0.67312  0.42878  0.32879  1.0000
  H   H31       1.0  0.65835  0.92830  0.32875  1.0000
  H   H32       1.0  0.32688  0.57121  0.67121  1.0000
  H   H33       1.0  0.35641  0.45475  0.47070  1.0000
  H   H34       1.0  0.88434  0.04288  0.52761  1.0000
  H   H35       1.0  0.64359  0.54525  0.52930  1.0000
  H   H36       1.0  0.11566  0.95712  0.47239  1.0000
  H   H37       1.0  0.18725  0.37106  0.42553  1.0000
  H   H38       1.0  0.76008  0.12652  0.57365  1.0000
  H   H39       1.0  0.81275  0.62894  0.57447  1.0000
  H   H40       1.0  0.23993  0.87347  0.42635  1.0000
  H   H41       1.0  0.34522  0.30481  0.40240  1.0000
  H   H42       1.0  0.94039  0.19298  0.59576  1.0000
  H   H43       1.0  0.65478  0.69519  0.59760  1.0000
  H   H44       1.0  0.05961  0.80702  0.40424  1.0000
  C   C1        1.0  0.32447  0.01344  0.30500  1.0000
  C   C2        1.0  0.01807  0.48594  0.69409  1.0000
  C   C3        1.0  0.67553  0.98656  0.69500  1.0000
  C   C4        1.0  0.98192  0.51406  0.30592  1.0000
  C   C5        1.0  0.25692  0.01768  0.23120  1.0000
  C   C6        1.0  0.02465  0.48234  0.76811  1.0000
  C   C7        1.0  0.74308  0.98232  0.76879  1.0000
  C   C8        1.0  0.97536  0.51766  0.23189  1.0000
  C   C9        1.0  0.32055  0.09793  0.19461  1.0000
  C   C10       1.0  0.12500  0.40241  0.80383  1.0000
  C   C11       1.0  0.67945  0.90207  0.80539  1.0000
  C   C12       1.0  0.87500  0.59759  0.19618  1.0000
  C   C13       1.0  0.12694  0.94041  0.19751  1.0000
  C   C14       1.0  0.92866  0.55949  0.80270  1.0000
  C   C15       1.0  0.87306  0.05959  0.80249  1.0000
  C   C16       1.0  0.07134  0.44051  0.19730  1.0000
  C   C17       1.0  0.06230  0.94398  0.12921  1.0000
  C   C18       1.0  0.93248  0.55609  0.87125  1.0000
  C   C19       1.0  0.93771  0.05602  0.87079  1.0000
  C   C20       1.0  0.06752  0.44391  0.12876  1.0000
  C   C21       1.0  0.25579  0.10128  0.12616  1.0000
  C   C22       1.0  0.12889  0.39928  0.87253  1.0000
  C   C23       1.0  0.74422  0.89873  0.87384  1.0000
  C   C24       1.0  0.87112  0.60072  0.12748  1.0000
  C   C25       1.0  0.12503  0.02474  0.09183  1.0000
  C   C26       1.0  0.03268  0.47553  0.90770  1.0000
  C   C27       1.0  0.87498  0.97526  0.90817  1.0000
  C   C28       1.0  0.96732  0.52448  0.09230  1.0000
  C   C29       1.0  0.06225  0.03259  0.02026  1.0000
  C   C30       1.0  0.04176  0.46730  0.97935  1.0000
  C   C31       1.0  0.93775  0.96739  0.97974  1.0000
  C   C32       1.0  0.95825  0.53270  0.02065  1.0000
  C   C33       1.0  0.29812  0.16585  0.58317  1.0000
  C   C34       1.0  0.71630  0.33425  0.41676  1.0000
  C   C35       1.0  0.70188  0.83414  0.41683  1.0000
  C   C36       1.0  0.28369  0.66575  0.58324  1.0000
  C   C37       1.0  0.25708  0.13097  0.64467  1.0000
  C   C38       1.0  0.61496  0.36948  0.35577  1.0000
  C   C39       1.0  0.74291  0.86903  0.35533  1.0000
  C   C40       1.0  0.38503  0.63053  0.64423  1.0000
  C   C41       1.0  0.31666  0.25968  0.49718  1.0000
  C   C42       1.0  0.81885  0.23823  0.50165  1.0000
  C   C43       1.0  0.68333  0.74032  0.50282  1.0000
  C   C44       1.0  0.18115  0.76176  0.49835  1.0000
  C   C45       1.0  0.30047  0.35215  0.44661  1.0000
  C   C46       1.0  0.85224  0.14536  0.55194  1.0000
  C   C47       1.0  0.69953  0.64785  0.55339  1.0000
  C   C48       1.0  0.14776  0.85463  0.44805  1.0000
  N   N1        1.0  0.40454  0.15361  0.49740  1.0000
  N   N2        1.0  0.90601  0.34547  0.50198  1.0000
  N   N3        1.0  0.59546  0.84639  0.50259  1.0000
  N   N4        1.0  0.09398  0.65452  0.49802  1.0000
  N   N5        1.0  0.39278  0.09406  0.55199  1.0000
  N   N6        1.0  0.84082  0.40655  0.44817  1.0000
  N   N7        1.0  0.60722  0.90594  0.44801  1.0000
  N   N8        1.0  0.15918  0.59345  0.55183  1.0000
  N   N9        1.0  0.24757  0.27046  0.54997  1.0000
  N   N10       1.0  0.69853  0.22794  0.44911  1.0000
  N   N11       1.0  0.75243  0.72954  0.45003  1.0000
  N   N12       1.0  0.30147  0.77206  0.55089  1.0000
  O   O1        1.0  0.44705  0.08718  0.33150  1.0000
  O   O2        1.0  0.11278  0.41071  0.66674  1.0000
  O   O3        1.0  0.55295  0.91282  0.66850  1.0000
  O   O4        1.0  0.88721  0.58930  0.33326  1.0000
  O   O5        1.0  0.26637  0.94474  0.33808  1.0000
  O   O6        1.0  0.92810  0.55523  0.66156  1.0000
  O   O7        1.0  0.73363  0.05526  0.66192  1.0000
  O   O8        1.0  0.07186  0.44475  0.33845  1.0000
