data_image0
_chemical_formula_structural       Zn4H28C40N12O8
_chemical_formula_sum              "Zn4 H28 C40 N12 O8"
_cell_length_a       9.69994
_cell_length_b       9.73055
_cell_length_c       19.9874
_cell_angle_alpha    99.7942
_cell_angle_beta     104.032
_cell_angle_gamma    89.9984

_space_group_name_H-M_alt    "P 1"
_space_group_IT_number       1

loop_
  _space_group_symop_operation_xyz
  'x, y, z'

loop_
  _atom_site_type_symbol
  _atom_site_label
  _atom_site_symmetry_multiplicity
  _atom_site_fract_x
  _atom_site_fract_y
  _atom_site_fract_z
  _atom_site_occupancy
  Zn  Zn1       1.0  0.46357  0.40012  0.56819  1.0000
  Zn  Zn2       1.0  0.89544  0.09990  0.43180  1.0000
  Zn  Zn3       1.0  0.53642  0.59988  0.43181  1.0000
  Zn  Zn4       1.0  0.10456  0.90010  0.56820  1.0000
  H   H1        1.0  0.49405  0.54193  0.79794  1.0000
  H   H2        1.0  0.69630  0.95789  0.20188  1.0000
  H   H3        1.0  0.50595  0.45807  0.20206  1.0000
  H   H4        1.0  0.30371  0.04211  0.79812  1.0000
  H   H5        1.0  0.54175  0.52604  0.92457  1.0000
  H   H6        1.0  0.61725  0.97418  0.07536  1.0000
  H   H7        1.0  0.45824  0.47396  0.07542  1.0000
  H   H8        1.0  0.38275  0.02582  0.92464  1.0000
  H   H9        1.0  0.68327  0.10747  0.87927  1.0000
  H   H10       1.0  0.80397  0.39276  0.12081  1.0000
  H   H11       1.0  0.31673  0.89253  0.12073  1.0000
  H   H12       1.0  0.19602  0.60725  0.87919  1.0000
  H   H13       1.0  0.63951  0.12722  0.75376  1.0000
  H   H14       1.0  0.88604  0.37258  0.24628  1.0000
  H   H15       1.0  0.36050  0.87278  0.24624  1.0000
  H   H16       1.0  0.11395  0.62742  0.75373  1.0000
  H   H17       1.0  0.65665  0.41031  0.02058  1.0000
  H   H18       1.0  0.63559  0.09002  0.97942  1.0000
  H   H19       1.0  0.34335  0.58969  0.97942  1.0000
  H   H20       1.0  0.36441  0.90998  0.02058  1.0000
  H   H21       1.0  0.28316  0.80865  0.44088  1.0000
  H   H22       1.0  0.84237  0.69101  0.55891  1.0000
  H   H23       1.0  0.71683  0.19135  0.55912  1.0000
  H   H24       1.0  0.15762  0.30899  0.44109  1.0000
  H   H25       1.0  0.22839  0.61068  0.60502  1.0000
  H   H26       1.0  0.62328  0.88955  0.39505  1.0000
  H   H27       1.0  0.77161  0.38932  0.39498  1.0000
  H   H28       1.0  0.37672  0.11045  0.60494  1.0000
  C   C1        1.0  0.54284  0.34353  0.69265  1.0000
  C   C2        1.0  0.85048  0.15624  0.30731  1.0000
  C   C3        1.0  0.45716  0.65646  0.30735  1.0000
  C   C4        1.0  0.14953  0.84377  0.69270  1.0000
  C   C5        1.0  0.56431  0.33535  0.76817  1.0000
  C   C6        1.0  0.79642  0.16448  0.23179  1.0000
  C   C7        1.0  0.43569  0.66465  0.23183  1.0000
  C   C8        1.0  0.20359  0.83552  0.76822  1.0000
  C   C9        1.0  0.53554  0.44737  0.81643  1.0000
  C   C10       1.0  0.71938  0.05254  0.18348  1.0000
  C   C11       1.0  0.46446  0.55263  0.18357  1.0000
  C   C12       1.0  0.28063  0.94746  0.81652  1.0000
  C   C13       1.0  0.56157  0.43748  0.88702  1.0000
  C   C14       1.0  0.67473  0.06263  0.11292  1.0000
  C   C15       1.0  0.43842  0.56252  0.11298  1.0000
  C   C16       1.0  0.32527  0.93738  0.88708  1.0000
  C   C17       1.0  0.61343  0.31473  0.91122  1.0000
  C   C18       1.0  0.70231  0.18547  0.08878  1.0000
  C   C19       1.0  0.38657  0.68528  0.08878  1.0000
  C   C20       1.0  0.29768  0.81454  0.91122  1.0000
  C   C21       1.0  0.63953  0.20219  0.86180  1.0000
  C   C22       1.0  0.77780  0.29795  0.13824  1.0000
  C   C23       1.0  0.36048  0.79781  0.13820  1.0000
  C   C24       1.0  0.22220  0.70206  0.86177  1.0000
  C   C25       1.0  0.61617  0.21274  0.79167  1.0000
  C   C26       1.0  0.82471  0.28719  0.20834  1.0000
  C   C27       1.0  0.38383  0.78725  0.20833  1.0000
  C   C28       1.0  0.17529  0.71282  0.79166  1.0000
  C   C29       1.0  0.64407  0.30893  0.98575  1.0000
  C   C30       1.0  0.65824  0.19137  0.01426  1.0000
  C   C31       1.0  0.35593  0.69107  0.01425  1.0000
  C   C32       1.0  0.34176  0.80864  0.98574  1.0000
  C   C33       1.0  0.29136  0.73861  0.47839  1.0000
  C   C34       1.0  0.81303  0.76118  0.52147  1.0000
  C   C35       1.0  0.70864  0.26139  0.52161  1.0000
  C   C36       1.0  0.18697  0.23881  0.47853  1.0000
  C   C37       1.0  0.26500  0.63648  0.56130  1.0000
  C   C38       1.0  0.70366  0.86361  0.43872  1.0000
  C   C39       1.0  0.73500  0.36352  0.43870  1.0000
  C   C40       1.0  0.29634  0.13639  0.56128  1.0000
  N   N1        1.0  0.21871  0.74498  0.52864  1.0000
  N   N2        1.0  0.69008  0.75500  0.47131  1.0000
  N   N3        1.0  0.78128  0.25501  0.47136  1.0000
  N   N4        1.0  0.30992  0.24499  0.52869  1.0000
  N   N5        1.0  0.37792  0.63231  0.47988  1.0000
  N   N6        1.0  0.89809  0.86750  0.52001  1.0000
  N   N7        1.0  0.62208  0.36769  0.52012  1.0000
  N   N8        1.0  0.10190  0.13250  0.48000  1.0000
  N   N9        1.0  0.36122  0.56709  0.53326  1.0000
  N   N10       1.0  0.82795  0.93292  0.46672  1.0000
  N   N11       1.0  0.63878  0.43291  0.46673  1.0000
  N   N12       1.0  0.17205  0.06708  0.53328  1.0000
  O   O1        1.0  0.58128  0.24637  0.65126  1.0000
  O   O2        1.0  0.93026  0.25340  0.34870  1.0000
  O   O3        1.0  0.41872  0.75362  0.34874  1.0000
  O   O4        1.0  0.06974  0.74660  0.65130  1.0000
  O   O5        1.0  0.48142  0.45203  0.67061  1.0000
  O   O6        1.0  0.81106  0.04778  0.32935  1.0000
  O   O7        1.0  0.51858  0.54795  0.32939  1.0000
  O   O8        1.0  0.18895  0.95222  0.67065  1.0000
