data_image0
_chemical_formula_structural       Cu2H38C50N6O14
_chemical_formula_sum              "Cu2 H38 C50 N6 O14"
_cell_length_a       10.1342
_cell_length_b       11.0104
_cell_length_c       12.8644
_cell_angle_alpha    109.821
_cell_angle_beta     101.254
_cell_angle_gamma    94.6118

_space_group_name_H-M_alt    "P 1"
_space_group_IT_number       1

loop_
  _space_group_symop_operation_xyz
  'x, y, z'

loop_
  _atom_site_type_symbol
  _atom_site_label
  _atom_site_symmetry_multiplicity
  _atom_site_fract_x
  _atom_site_fract_y
  _atom_site_fract_z
  _atom_site_occupancy
  Cu  Cu1       1.0  0.03027  0.82728  0.23601  1.0000
  Cu  Cu2       1.0  0.96973  0.17273  0.76399  1.0000
  H   H1        1.0  0.12884  0.97429  0.10908  1.0000
  H   H2        1.0  0.87117  0.02571  0.89092  1.0000
  H   H3        1.0  0.91155  0.05195  0.35971  1.0000
  H   H4        1.0  0.08845  0.94805  0.64028  1.0000
  H   H5        1.0  0.24916  0.88540  0.39052  1.0000
  H   H6        1.0  0.75082  0.11459  0.60948  1.0000
  H   H7        1.0  0.18965  0.00550  0.46188  1.0000
  H   H8        1.0  0.81034  0.99450  0.53811  1.0000
  H   H9        1.0  0.64325  0.32753  0.58677  1.0000
  H   H10       1.0  0.35675  0.67247  0.41324  1.0000
  H   H11       1.0  0.63928  0.63415  0.91696  1.0000
  H   H12       1.0  0.36071  0.36586  0.08304  1.0000
  H   H13       1.0  0.57814  0.83328  0.24890  1.0000
  H   H14       1.0  0.42186  0.16672  0.75111  1.0000
  H   H15       1.0  0.47922  0.35471  0.71315  1.0000
  H   H16       1.0  0.52079  0.64529  0.28685  1.0000
  H   H17       1.0  0.95304  0.47406  0.39512  1.0000
  H   H18       1.0  0.04696  0.52594  0.60488  1.0000
  H   H19       1.0  0.23032  0.66497  0.96531  1.0000
  H   H20       1.0  0.76967  0.33503  0.03469  1.0000
  H   H21       1.0  0.96917  0.69710  0.39374  1.0000
  H   H22       1.0  0.03082  0.30290  0.60626  1.0000
  H   H23       1.0  0.07002  0.35416  0.07146  1.0000
  H   H24       1.0  0.92999  0.64584  0.92854  1.0000
  H   H25       1.0  0.89535  0.27631  0.36239  1.0000
  H   H26       1.0  0.10465  0.72369  0.63761  1.0000
  H   H27       1.0  0.64458  0.72994  0.62141  1.0000
  H   H28       1.0  0.35542  0.27006  0.37860  1.0000
  H   H29       1.0  0.08339  0.58426  0.08620  1.0000
  H   H30       1.0  0.91662  0.41574  0.91380  1.0000
  H   H31       1.0  0.12370  0.19528  0.09937  1.0000
  H   H32       1.0  0.87631  0.80473  0.90063  1.0000
  H   H33       1.0  0.47224  0.74181  0.74244  1.0000
  H   H34       1.0  0.52776  0.25818  0.25757  1.0000
  H   H35       1.0  0.32259  0.46040  0.78497  1.0000
  H   H36       1.0  0.67740  0.53960  0.21503  1.0000
  H   H37       1.0  0.28798  0.60508  0.76210  1.0000
  H   H38       1.0  0.71202  0.39492  0.23790  1.0000
  C   C1        1.0  0.07918  0.04540  0.16347  1.0000
  C   C2        1.0  0.92082  0.95460  0.83653  1.0000
  C   C3        1.0  0.95809  0.08855  0.30431  1.0000
  C   C4        1.0  0.04191  0.91145  0.69569  1.0000
  C   C5        1.0  0.30460  0.79799  0.19666  1.0000
  C   C6        1.0  0.69540  0.20200  0.80334  1.0000
  C   C7        1.0  0.01120  0.25752  0.23238  1.0000
  C   C8        1.0  0.98880  0.74249  0.76762  1.0000
  C   C9        1.0  0.01318  0.39233  0.23425  1.0000
  C   C10       1.0  0.98682  0.60767  0.76575  1.0000
  C   C11       1.0  0.39479  0.75154  0.11500  1.0000
  C   C12       1.0  0.60521  0.24845  0.88501  1.0000
  C   C13       1.0  0.60960  0.42129  0.62117  1.0000
  C   C14       1.0  0.39040  0.57871  0.37884  1.0000
  C   C15       1.0  0.62247  0.73592  0.08593  1.0000
  C   C16       1.0  0.37753  0.26408  0.91407  1.0000
  C   C17       1.0  0.56758  0.66525  0.97003  1.0000
  C   C18       1.0  0.43241  0.33475  0.02997  1.0000
  C   C19       1.0  0.53619  0.77787  0.15856  1.0000
  C   C20       1.0  0.46381  0.22213  0.84145  1.0000
  C   C21       1.0  0.51856  0.43444  0.69022  1.0000
  C   C22       1.0  0.48144  0.56556  0.30978  1.0000
  C   C23       1.0  0.98402  0.49218  0.32463  1.0000
  C   C24       1.0  0.01598  0.50783  0.67537  1.0000
  C   C25       1.0  0.65442  0.52716  0.59315  1.0000
  C   C26       1.0  0.34558  0.47284  0.40685  1.0000
  C   C27       1.0  0.34065  0.68286  0.99818  1.0000
  C   C28       1.0  0.65935  0.31714  0.00182  1.0000
  C   C29       1.0  0.99255  0.61886  0.32471  1.0000
  C   C30       1.0  0.00745  0.38114  0.67529  1.0000
  C   C31       1.0  0.04796  0.42584  0.14575  1.0000
  C   C32       1.0  0.95204  0.57416  0.85425  1.0000
  C   C33       1.0  0.94985  0.21414  0.30515  1.0000
  C   C34       1.0  0.05015  0.78587  0.69485  1.0000
  C   C35       1.0  0.60925  0.64608  0.64105  1.0000
  C   C36       1.0  0.39075  0.35392  0.35895  1.0000
  C   C37       1.0  0.05533  0.55433  0.15237  1.0000
  C   C38       1.0  0.94467  0.44567  0.84763  1.0000
  C   C39       1.0  0.74216  0.51250  0.50571  1.0000
  C   C40       1.0  0.25783  0.48750  0.49429  1.0000
  C   C41       1.0  0.42718  0.63798  0.92501  1.0000
  C   C42       1.0  0.57282  0.36202  0.07499  1.0000
  C   C43       1.0  0.07524  0.16912  0.15913  1.0000
  C   C44       1.0  0.92477  0.83088  0.84087  1.0000
  C   C45       1.0  0.51613  0.65428  0.70763  1.0000
  C   C46       1.0  0.48387  0.34572  0.29238  1.0000
  C   C47       1.0  0.36830  0.56037  0.79937  1.0000
  C   C48       1.0  0.63170  0.43963  0.20063  1.0000
  C   C49       1.0  0.77452  0.76623  0.12727  1.0000
  C   C50       1.0  0.22548  0.23377  0.87273  1.0000
  N   N1        1.0  0.02336  0.00605  0.23583  1.0000
  N   N2        1.0  0.97664  0.99395  0.76417  1.0000
  N   N3        1.0  0.02919  0.64983  0.24057  1.0000
  N   N4        1.0  0.97081  0.35017  0.75943  1.0000
  N   N5        1.0  0.47141  0.54898  0.73088  1.0000
  N   N6        1.0  0.52859  0.45102  0.26912  1.0000
  O   O1        1.0  0.17225  0.91046  0.42819  1.0000
  O   O2        1.0  0.82773  0.08954  0.57181  1.0000
  O   O3        1.0  0.18125  0.80240  0.15067  1.0000
  O   O4        1.0  0.81875  0.19761  0.84933  1.0000
  O   O5        1.0  0.75141  0.39582  0.44804  1.0000
  O   O6        1.0  0.24859  0.60418  0.55196  1.0000
  O   O7        1.0  0.35437  0.82753  0.30148  1.0000
  O   O8        1.0  0.64563  0.17246  0.69852  1.0000
  O   O9        1.0  0.79094  0.61747  0.49828  1.0000
  O   O10       1.0  0.20906  0.38253  0.50172  1.0000
  O   O11       1.0  0.84556  0.75031  0.05490  1.0000
  O   O12       1.0  0.15444  0.24969  0.94510  1.0000
  O   O13       1.0  0.82484  0.80698  0.23562  1.0000
  O   O14       1.0  0.17516  0.19302  0.76438  1.0000
