data_image0
_chemical_formula_structural       Cd2H50C50N10O14
_chemical_formula_sum              "Cd2 H50 C50 N10 O14"
_cell_length_a       8.53491
_cell_length_b       9.45487
_cell_length_c       17.7549
_cell_angle_alpha    80.6757
_cell_angle_beta     77.2411
_cell_angle_gamma    65.6829

_space_group_name_H-M_alt    "P 1"
_space_group_IT_number       1

loop_
  _space_group_symop_operation_xyz
  'x, y, z'

loop_
  _atom_site_type_symbol
  _atom_site_label
  _atom_site_symmetry_multiplicity
  _atom_site_fract_x
  _atom_site_fract_y
  _atom_site_fract_z
  _atom_site_occupancy
  Cd  Cd1       1.0  0.91846  0.96146  0.15802  1.0000
  Cd  Cd2       1.0  0.08154  0.03854  0.84198  1.0000
  H   H1        1.0  0.97035  0.84097  0.01436  1.0000
  H   H2        1.0  0.02965  0.15903  0.98564  1.0000
  H   H3        1.0  0.77473  0.93802  0.02374  1.0000
  H   H4        1.0  0.22527  0.06198  0.97626  1.0000
  H   H5        1.0  0.45002  0.51732  0.14177  1.0000
  H   H6        1.0  0.54997  0.48268  0.85823  1.0000
  H   H7        1.0  0.54640  0.86391  0.97104  1.0000
  H   H8        1.0  0.45361  0.13609  0.02896  1.0000
  H   H9        1.0  0.92484  0.39115  0.97499  1.0000
  H   H10       1.0  0.07516  0.60884  0.02501  1.0000
  H   H11       1.0  0.86200  0.78776  0.89856  1.0000
  H   H12       1.0  0.13800  0.21224  0.10144  1.0000
  H   H13       1.0  0.99445  0.58554  0.88898  1.0000
  H   H14       1.0  0.00555  0.41447  0.11102  1.0000
  H   H15       1.0  0.89204  0.43937  0.82748  1.0000
  H   H16       1.0  0.10796  0.56063  0.17251  1.0000
  H   H17       1.0  0.76145  0.44215  0.71326  1.0000
  H   H18       1.0  0.23856  0.55786  0.28674  1.0000
  H   H19       1.0  0.68482  0.92288  0.81762  1.0000
  H   H20       1.0  0.31518  0.07713  0.18238  1.0000
  H   H21       1.0  0.55327  0.94230  0.69878  1.0000
  H   H22       1.0  0.44673  0.05770  0.30122  1.0000
  H   H23       1.0  0.75673  0.24209  0.28680  1.0000
  H   H24       1.0  0.24328  0.75791  0.71320  1.0000
  H   H25       1.0  0.21782  0.83649  0.29045  1.0000
  H   H26       1.0  0.78218  0.16352  0.70955  1.0000
  H   H27       1.0  0.15411  0.99358  0.42129  1.0000
  H   H28       1.0  0.84589  0.00642  0.57871  1.0000
  H   H29       1.0  0.85656  0.21425  0.48446  1.0000
  H   H30       1.0  0.14344  0.78575  0.51554  1.0000
  H   H31       1.0  0.70345  0.32091  0.42153  1.0000
  H   H32       1.0  0.29654  0.67909  0.57847  1.0000
  H   H33       1.0  0.93216  0.42990  0.34594  1.0000
  H   H34       1.0  0.06783  0.57010  0.65406  1.0000
  H   H35       1.0  0.05313  0.34498  0.42161  1.0000
  H   H36       1.0  0.94687  0.65502  0.57839  1.0000
  H   H37       1.0  0.77203  0.50554  0.51513  1.0000
  H   H38       1.0  0.22797  0.49446  0.48486  1.0000
  H   H39       1.0  0.88783  0.60769  0.45200  1.0000
  H   H40       1.0  0.11217  0.39231  0.54800  1.0000
  H   H41       1.0  0.55374  0.58377  0.42722  1.0000
  H   H42       1.0  0.44626  0.41623  0.57278  1.0000
  H   H43       1.0  0.57045  0.74544  0.45981  1.0000
  H   H44       1.0  0.42955  0.25456  0.54019  1.0000
  H   H45       1.0  0.57442  0.57400  0.28960  1.0000
  H   H46       1.0  0.42558  0.42600  0.71040  1.0000
  H   H47       1.0  0.79407  0.85814  0.35043  1.0000
  H   H48       1.0  0.20592  0.14186  0.64957  1.0000
  H   H49       1.0  0.70388  0.72309  0.15424  1.0000
  H   H50       1.0  0.29612  0.27691  0.84576  1.0000
  C   C1        1.0  0.74887  0.27477  0.10071  1.0000
  C   C2        1.0  0.25113  0.72522  0.89928  1.0000
  C   C3        1.0  0.69259  0.43682  0.06254  1.0000
  C   C4        1.0  0.30741  0.56318  0.93746  1.0000
  C   C5        1.0  0.53227  0.54958  0.09202  1.0000
  C   C6        1.0  0.46773  0.45042  0.90798  1.0000
  C   C7        1.0  0.47830  0.70281  0.05883  1.0000
  C   C8        1.0  0.52170  0.29719  0.94117  1.0000
  C   C9        1.0  0.58651  0.74335  0.99557  1.0000
  C   C10       1.0  0.41349  0.25665  0.00443  1.0000
  C   C11       1.0  0.74657  0.63080  0.96497  1.0000
  C   C12       1.0  0.25343  0.36920  0.03503  1.0000
  C   C13       1.0  0.79903  0.47800  0.99834  1.0000
  C   C14       1.0  0.20097  0.52200  0.00166  1.0000
  C   C15       1.0  0.86056  0.67359  0.89527  1.0000
  C   C16       1.0  0.13944  0.32641  0.10473  1.0000
  C   C17       1.0  0.30586  0.82424  0.09103  1.0000
  C   C18       1.0  0.69414  0.17576  0.90897  1.0000
  C   C19       1.0  0.81906  0.54697  0.79606  1.0000
  C   C20       1.0  0.18094  0.45303  0.20394  1.0000
  C   C21       1.0  0.74608  0.55042  0.73355  1.0000
  C   C22       1.0  0.25392  0.44958  0.26645  1.0000
  C   C23       1.0  0.64817  0.69321  0.69753  1.0000
  C   C24       1.0  0.35183  0.30679  0.30247  1.0000
  C   C25       1.0  0.69905  0.82207  0.79031  1.0000
  C   C26       1.0  0.30095  0.17793  0.20969  1.0000
  C   C27       1.0  0.62785  0.83006  0.72622  1.0000
  C   C28       1.0  0.37215  0.16994  0.27378  1.0000
  C   C29       1.0  0.56207  0.69816  0.62986  1.0000
  C   C30       1.0  0.43793  0.30184  0.37014  1.0000
  C   C31       1.0  0.87408  0.15230  0.30458  1.0000
  C   C32       1.0  0.12592  0.84770  0.69542  1.0000
  C   C33       1.0  0.11137  0.94330  0.30937  1.0000
  C   C34       1.0  0.88863  0.05670  0.69063  1.0000
  C   C35       1.0  0.08072  0.01843  0.37472  1.0000
  C   C36       1.0  0.91928  0.98157  0.62528  1.0000
  C   C37       1.0  0.84292  0.27095  0.42582  1.0000
  C   C38       1.0  0.15707  0.72905  0.57418  1.0000
  C   C39       1.0  0.91972  0.39546  0.40858  1.0000
  C   C40       1.0  0.08028  0.60454  0.59142  1.0000
  C   C41       1.0  0.80930  0.53923  0.45367  1.0000
  C   C42       1.0  0.19069  0.46077  0.54633  1.0000
  C   C43       1.0  0.63945  0.64563  0.42416  1.0000
  C   C44       1.0  0.36055  0.35437  0.57584  1.0000
  C   C45       1.0  0.63991  0.65426  0.28018  1.0000
  C   C46       1.0  0.36009  0.34574  0.71982  1.0000
  C   C47       1.0  0.75479  0.80086  0.31423  1.0000
  C   C48       1.0  0.24520  0.19914  0.68577  1.0000
  C   C49       1.0  0.70374  0.72797  0.21487  1.0000
  C   C50       1.0  0.29626  0.27203  0.78513  1.0000
  N   N1        1.0  0.79359  0.68177  0.82359  1.0000
  N   N2        1.0  0.20641  0.31824  0.17641  1.0000
  N   N3        1.0  0.98161  0.02863  0.26594  1.0000
  N   N4        1.0  0.01839  0.97137  0.73406  1.0000
  N   N5        1.0  0.92924  0.15007  0.37097  1.0000
  N   N6        1.0  0.07077  0.84993  0.62903  1.0000
  N   N7        1.0  0.67289  0.70229  0.34250  1.0000
  N   N8        1.0  0.32711  0.29771  0.65750  1.0000
  N   N9        1.0  0.77518  0.81899  0.23700  1.0000
  N   N10       1.0  0.22482  0.18101  0.76300  1.0000
  O   O1        1.0  0.86179  0.86239  0.05443  1.0000
  O   O2        1.0  0.13821  0.13761  0.94557  1.0000
  O   O3        1.0  0.19445  0.77437  0.13437  1.0000
  O   O4        1.0  0.80555  0.22563  0.86563  1.0000
  O   O5        1.0  0.28100  0.96610  0.07360  1.0000
  O   O6        1.0  0.71900  0.03390  0.92640  1.0000
  O   O7        1.0  0.52299  0.82159  0.58586  1.0000
  O   O8        1.0  0.47702  0.17841  0.41414  1.0000
  O   O9        1.0  0.53782  0.57522  0.62632  1.0000
  O   O10       1.0  0.46218  0.42478  0.37368  1.0000
  O   O11       1.0  0.88615  0.16923  0.06593  1.0000
  O   O12       1.0  0.11385  0.83077  0.93407  1.0000
  O   O13       1.0  0.66622  0.24490  0.16508  1.0000
  O   O14       1.0  0.33378  0.75510  0.83492  1.0000
