data_image0
_chemical_formula_structural       Cu2H38C54N6O12
_chemical_formula_sum              "Cu2 H38 C54 N6 O12"
_cell_length_a       10.1363
_cell_length_b       10.2148
_cell_length_c       13.4386
_cell_angle_alpha    95.5032
_cell_angle_beta     92.1321
_cell_angle_gamma    92.5495

_space_group_name_H-M_alt    "P 1"
_space_group_IT_number       1

loop_
  _space_group_symop_operation_xyz
  'x, y, z'

loop_
  _atom_site_type_symbol
  _atom_site_label
  _atom_site_symmetry_multiplicity
  _atom_site_fract_x
  _atom_site_fract_y
  _atom_site_fract_z
  _atom_site_occupancy
  Cu  Cu1       1.0  0.12339  0.35823  0.95376  1.0000
  Cu  Cu2       1.0  0.87660  0.64176  0.04623  1.0000
  H   H1        1.0  0.29939  0.49895  0.10806  1.0000
  H   H2        1.0  0.70060  0.50101  0.89191  1.0000
  H   H3        1.0  0.97315  0.24237  0.11493  1.0000
  H   H4        1.0  0.02685  0.75760  0.88508  1.0000
  H   H5        1.0  0.97563  0.26524  0.29932  1.0000
  H   H6        1.0  0.02437  0.73475  0.70068  1.0000
  H   H7        1.0  0.31833  0.53433  0.29444  1.0000
  H   H8        1.0  0.68167  0.46565  0.70553  1.0000
  H   H9        1.0  0.42919  0.63402  0.00152  1.0000
  H   H10       1.0  0.57079  0.36599  0.99845  1.0000
  H   H11       1.0  0.58925  0.00535  0.14348  1.0000
  H   H12       1.0  0.41076  0.99465  0.85650  1.0000
  H   H13       1.0  0.16607  0.93392  0.09815  1.0000
  H   H14       1.0  0.83393  0.06607  0.90187  1.0000
  H   H15       1.0  0.43875  0.18459  0.18297  1.0000
  H   H16       1.0  0.56126  0.81540  0.81704  1.0000
  H   H17       1.0  0.26799  0.16273  0.14501  1.0000
  H   H18       1.0  0.73201  0.83728  0.85501  1.0000
  H   H19       1.0  0.51305  0.14412  0.33833  1.0000
  H   H20       1.0  0.48697  0.85587  0.66167  1.0000
  H   H21       1.0  0.46296  0.10283  0.51528  1.0000
  H   H22       1.0  0.53708  0.89715  0.48472  1.0000
  H   H23       1.0  0.05831  0.00873  0.41624  1.0000
  H   H24       1.0  0.94172  0.99123  0.58379  1.0000
  H   H25       1.0  0.11890  0.06160  0.24547  1.0000
  H   H26       1.0  0.88110  0.93841  0.75456  1.0000
  H   H27       1.0  0.01158  0.27863  0.45229  1.0000
  H   H28       1.0  0.98842  0.72141  0.54771  1.0000
  H   H29       1.0  0.24159  0.48852  0.45533  1.0000
  H   H30       1.0  0.75841  0.51151  0.54466  1.0000
  H   H31       1.0  0.95002  0.20398  0.59784  1.0000
  H   H32       1.0  0.05001  0.79602  0.40214  1.0000
  H   H33       1.0  0.25975  0.51118  0.62193  1.0000
  H   H34       1.0  0.74019  0.48891  0.37809  1.0000
  H   H35       1.0  0.96735  0.20950  0.78618  1.0000
  H   H36       1.0  0.03265  0.79050  0.21381  1.0000
  H   H37       1.0  0.26388  0.50178  0.80698  1.0000
  H   H38       1.0  0.73606  0.49828  0.19304  1.0000
  C   C1        1.0  0.22919  0.45129  0.15406  1.0000
  C   C2        1.0  0.77080  0.54870  0.84592  1.0000
  C   C3        1.0  0.04652  0.30780  0.15774  1.0000
  C   C4        1.0  0.95346  0.69218  0.84226  1.0000
  C   C5        1.0  0.04967  0.32084  0.26138  1.0000
  C   C6        1.0  0.95032  0.67916  0.73862  1.0000
  C   C7        1.0  0.23916  0.46917  0.25781  1.0000
  C   C8        1.0  0.76083  0.53083  0.74217  1.0000
  C   C9        1.0  0.16770  0.68377  0.01631  1.0000
  C   C10       1.0  0.83227  0.31623  0.98370  1.0000
  C   C11       1.0  0.28556  0.77485  0.04833  1.0000
  C   C12       1.0  0.71442  0.22515  0.95166  1.0000
  C   C13       1.0  0.41419  0.73272  0.03664  1.0000
  C   C14       1.0  0.58579  0.26727  0.96335  1.0000
  C   C15       1.0  0.52270  0.81687  0.07029  1.0000
  C   C16       1.0  0.47729  0.18313  0.92968  1.0000
  C   C17       1.0  0.50278  0.94271  0.11672  1.0000
  C   C18       1.0  0.49723  0.05729  0.88326  1.0000
  C   C19       1.0  0.37480  0.98486  0.12832  1.0000
  C   C20       1.0  0.62520  0.01514  0.87169  1.0000
  C   C21       1.0  0.26682  0.90152  0.09296  1.0000
  C   C22       1.0  0.73317  0.09848  0.90705  1.0000
  C   C23       1.0  0.14861  0.40331  0.31509  1.0000
  C   C24       1.0  0.85138  0.59670  0.68491  1.0000
  C   C25       1.0  0.35090  0.11786  0.18135  1.0000
  C   C26       1.0  0.64910  0.88214  0.81867  1.0000
  C   C27       1.0  0.66207  0.77609  0.05806  1.0000
  C   C28       1.0  0.33792  0.22391  0.94191  1.0000
  C   C29       1.0  0.41331  0.11944  0.36040  1.0000
  C   C30       1.0  0.58672  0.88055  0.63961  1.0000
  C   C31       1.0  0.38543  0.09161  0.45652  1.0000
  C   C32       1.0  0.61460  0.90837  0.54349  1.0000
  C   C33       1.0  0.16063  0.03569  0.40170  1.0000
  C   C34       1.0  0.83940  0.96429  0.59833  1.0000
  C   C35       1.0  0.19147  0.06735  0.30748  1.0000
  C   C36       1.0  0.80855  0.93264  0.69255  1.0000
  C   C37       1.0  0.26017  0.04101  0.47752  1.0000
  C   C38       1.0  0.73987  0.95896  0.52250  1.0000
  C   C39       1.0  0.23714  0.97966  0.57633  1.0000
  C   C40       1.0  0.76292  0.02030  0.42369  1.0000
  C   C41       1.0  0.08928  0.34962  0.48468  1.0000
  C   C42       1.0  0.91072  0.65042  0.51531  1.0000
  C   C43       1.0  0.16294  0.41830  0.42366  1.0000
  C   C44       1.0  0.83706  0.58172  0.57632  1.0000
  C   C45       1.0  0.10334  0.35655  0.59320  1.0000
  C   C46       1.0  0.89665  0.64349  0.40681  1.0000
  C   C47       1.0  0.02085  0.27136  0.64217  1.0000
  C   C48       1.0  0.97917  0.72866  0.35782  1.0000
  C   C49       1.0  0.19343  0.44101  0.65394  1.0000
  C   C50       1.0  0.80655  0.55904  0.34607  1.0000
  C   C51       1.0  0.03034  0.27302  0.74552  1.0000
  C   C52       1.0  0.96967  0.72699  0.25448  1.0000
  C   C53       1.0  0.19709  0.43726  0.75698  1.0000
  C   C54       1.0  0.80287  0.56280  0.24303  1.0000
  N   N1        1.0  0.13368  0.37243  0.10400  1.0000
  N   N2        1.0  0.86630  0.62754  0.89599  1.0000
  N   N3        1.0  0.31711  0.10470  0.28707  1.0000
  N   N4        1.0  0.68290  0.89528  0.71294  1.0000
  N   N5        1.0  0.11613  0.35524  0.80256  1.0000
  N   N6        1.0  0.88385  0.64477  0.19744  1.0000
  O   O1        1.0  0.18072  0.58509  0.95508  1.0000
  O   O2        1.0  0.81926  0.41490  0.04494  1.0000
  O   O3        1.0  0.05978  0.71769  0.05749  1.0000
  O   O4        1.0  0.94020  0.28232  0.94251  1.0000
  O   O5        1.0  0.75472  0.86133  0.05760  1.0000
  O   O6        1.0  0.24528  0.13867  0.94237  1.0000
  O   O7        1.0  0.67763  0.64997  0.04834  1.0000
  O   O8        1.0  0.32236  0.35004  0.95166  1.0000
  O   O9        1.0  0.32858  0.00025  0.64266  1.0000
  O   O10       1.0  0.67145  0.99976  0.35737  1.0000
  O   O11       1.0  0.13099  0.90872  0.57640  1.0000
  O   O12       1.0  0.86909  0.09119  0.42360  1.0000
