data_image0
_chemical_formula_structural       K4V4P4H12C4O28
_chemical_formula_sum              "K4 V4 P4 H12 C4 O28"
_cell_length_a       6.38435
_cell_length_b       9.36415
_cell_length_c       13.0079
_cell_angle_alpha    71.4173
_cell_angle_beta     75.7858
_cell_angle_gamma    70.0344

_space_group_name_H-M_alt    "P 1"
_space_group_IT_number       1

loop_
  _space_group_symop_operation_xyz
  'x, y, z'

loop_
  _atom_site_type_symbol
  _atom_site_label
  _atom_site_symmetry_multiplicity
  _atom_site_fract_x
  _atom_site_fract_y
  _atom_site_fract_z
  _atom_site_occupancy
  K   K1        1.0  0.69208  0.10519  0.05801  1.0000
  K   K2        1.0  0.85528  0.39492  0.44192  1.0000
  K   K3        1.0  0.30792  0.89482  0.94199  1.0000
  K   K4        1.0  0.14473  0.60508  0.55808  1.0000
  V   V1        1.0  0.56815  0.44831  0.20681  1.0000
  V   V2        1.0  0.22365  0.05204  0.29322  1.0000
  V   V3        1.0  0.43185  0.55170  0.79319  1.0000
  V   V4        1.0  0.77633  0.94798  0.70677  1.0000
  P   P1        1.0  0.12045  0.41808  0.16983  1.0000
  P   P2        1.0  0.70858  0.08232  0.33010  1.0000
  P   P3        1.0  0.87956  0.58192  0.83017  1.0000
  P   P4        1.0  0.29143  0.91768  0.66989  1.0000
  H   H1        1.0  0.16848  0.49988  0.05970  1.0000
  H   H2        1.0  0.72869  0.00042  0.44022  1.0000
  H   H3        1.0  0.83152  0.50012  0.94031  1.0000
  H   H4        1.0  0.27131  0.99957  0.55978  1.0000
  H   H5        1.0  0.87078  0.79725  0.95611  1.0000
  H   H6        1.0  0.62439  0.70290  0.54362  1.0000
  H   H7        1.0  0.12920  0.20276  0.04389  1.0000
  H   H8        1.0  0.37562  0.29710  0.45638  1.0000
  H   H9        1.0  0.86307  0.72127  0.08098  1.0000
  H   H10       1.0  0.66612  0.77904  0.41878  1.0000
  H   H11       1.0  0.13693  0.27873  0.91901  1.0000
  H   H12       1.0  0.33389  0.22095  0.58123  1.0000
  C   C1        1.0  0.38513  0.71734  0.31191  1.0000
  C   C2        1.0  0.41417  0.78302  0.18831  1.0000
  C   C3        1.0  0.61486  0.28268  0.68807  1.0000
  C   C4        1.0  0.58585  0.21697  0.81167  1.0000
  O   O1        1.0  0.45026  0.57019  0.34923  1.0000
  O   O2        1.0  0.36996  0.93016  0.15101  1.0000
  O   O3        1.0  0.54973  0.42983  0.65078  1.0000
  O   O4        1.0  0.63002  0.06987  0.84900  1.0000
  O   O5        1.0  0.29609  0.81760  0.36938  1.0000
  O   O6        1.0  0.48243  0.68280  0.13084  1.0000
  O   O7        1.0  0.70393  0.18236  0.63063  1.0000
  O   O8        1.0  0.51758  0.31716  0.86918  1.0000
  O   O9        1.0  0.86565  0.47675  0.20981  1.0000
  O   O10       1.0  0.55278  0.02335  0.29018  1.0000
  O   O11       1.0  0.13437  0.52325  0.79019  1.0000
  O   O12       1.0  0.44721  0.97665  0.70981  1.0000
  O   O13       1.0  0.24126  0.45830  0.24105  1.0000
  O   O14       1.0  0.94094  0.04245  0.25882  1.0000
  O   O15       1.0  0.75873  0.54170  0.75895  1.0000
  O   O16       1.0  0.05907  0.95756  0.74118  1.0000
  O   O17       1.0  0.20622  0.24298  0.16672  1.0000
  O   O18       1.0  0.61524  0.25738  0.33332  1.0000
  O   O19       1.0  0.79378  0.75702  0.83328  1.0000
  O   O20       1.0  0.38476  0.74262  0.66669  1.0000
  O   O21       1.0  0.63606  0.37991  0.10059  1.0000
  O   O22       1.0  0.11693  0.12035  0.39949  1.0000
  O   O23       1.0  0.36395  0.62008  0.89941  1.0000
  O   O24       1.0  0.88307  0.87965  0.60050  1.0000
  O   O25       1.0  0.90212  0.80868  0.02316  1.0000
  O   O26       1.0  0.73437  0.69139  0.47662  1.0000
  O   O27       1.0  0.09787  0.19133  0.97684  1.0000
  O   O28       1.0  0.26564  0.30861  0.52339  1.0000
