data_image0
_chemical_formula_structural       Cu4H36C48S4N16O4
_chemical_formula_sum              "Cu4 H36 C48 S4 N16 O4"
_cell_length_a       7.04049
_cell_length_b       9.90158
_cell_length_c       18.555
_cell_angle_alpha    90
_cell_angle_beta     90
_cell_angle_gamma    90

_space_group_name_H-M_alt    "P 1"
_space_group_IT_number       1

loop_
  _space_group_symop_operation_xyz
  'x, y, z'

loop_
  _atom_site_type_symbol
  _atom_site_label
  _atom_site_symmetry_multiplicity
  _atom_site_fract_x
  _atom_site_fract_y
  _atom_site_fract_z
  _atom_site_occupancy
  Cu  Cu1       1.0  0.29615  0.07997  0.11924  1.0000
  Cu  Cu2       1.0  0.79616  0.92003  0.88076  1.0000
  Cu  Cu3       1.0  0.29616  0.57998  0.38076  1.0000
  Cu  Cu4       1.0  0.79615  0.42001  0.61924  1.0000
  H   H1        1.0  0.61681  0.29810  0.09764  1.0000
  H   H2        1.0  0.11679  0.70189  0.90236  1.0000
  H   H3        1.0  0.61680  0.79811  0.40236  1.0000
  H   H4        1.0  0.11679  0.20189  0.59764  1.0000
  H   H5        1.0  0.78944  0.45638  0.17942  1.0000
  H   H6        1.0  0.28943  0.54361  0.82058  1.0000
  H   H7        1.0  0.78945  0.95638  0.32058  1.0000
  H   H8        1.0  0.28943  0.04362  0.67942  1.0000
  H   H9        1.0  0.70852  0.45627  0.31140  1.0000
  H   H10       1.0  0.20851  0.54372  0.68860  1.0000
  H   H11       1.0  0.70853  0.95627  0.18860  1.0000
  H   H12       1.0  0.20852  0.04373  0.81140  1.0000
  H   H13       1.0  0.46004  0.29713  0.35574  1.0000
  H   H14       1.0  0.96003  0.70286  0.64426  1.0000
  H   H15       1.0  0.46004  0.79714  0.14426  1.0000
  H   H16       1.0  0.96003  0.20286  0.85574  1.0000
  H   H17       1.0  0.20537  0.93270  0.37678  1.0000
  H   H18       1.0  0.70535  0.06730  0.62322  1.0000
  H   H19       1.0  0.20536  0.43271  0.12322  1.0000
  H   H20       1.0  0.70536  0.56730  0.87678  1.0000
  H   H21       1.0  0.02169  0.96102  0.49068  1.0000
  H   H22       1.0  0.52167  0.03898  0.50932  1.0000
  H   H23       1.0  0.02167  0.46102  0.00932  1.0000
  H   H24       1.0  0.52168  0.53899  0.99068  1.0000
  H   H25       1.0  0.86165  0.18726  0.51488  1.0000
  H   H26       1.0  0.36164  0.81274  0.48512  1.0000
  H   H27       1.0  0.86164  0.68727  0.98513  1.0000
  H   H28       1.0  0.36164  0.31275  0.01488  1.0000
  H   H29       1.0  0.90276  0.37093  0.42492  1.0000
  H   H30       1.0  0.40275  0.62907  0.57508  1.0000
  H   H31       1.0  0.90275  0.87094  0.07509  1.0000
  H   H32       1.0  0.40276  0.12907  0.92492  1.0000
  H   H33       1.0  0.06704  0.87322  0.20032  1.0000
  H   H34       1.0  0.56704  0.12678  0.79968  1.0000
  H   H35       1.0  0.06704  0.37322  0.29967  1.0000
  H   H36       1.0  0.56703  0.62678  0.70033  1.0000
  C   C1        1.0  0.46230  0.90936  0.99782  1.0000
  C   C2        1.0  0.96231  0.09066  0.00218  1.0000
  C   C3        1.0  0.46229  0.40933  0.50219  1.0000
  C   C4        1.0  0.96230  0.59067  0.49781  1.0000
  C   C5        1.0  0.58245  0.30317  0.15486  1.0000
  C   C6        1.0  0.08243  0.69681  0.84514  1.0000
  C   C7        1.0  0.58244  0.80318  0.34514  1.0000
  C   C8        1.0  0.08243  0.19682  0.65486  1.0000
  C   C9        1.0  0.67948  0.39047  0.20063  1.0000
  C   C10       1.0  0.17947  0.60952  0.79937  1.0000
  C   C11       1.0  0.67948  0.89047  0.29937  1.0000
  C   C12       1.0  0.17948  0.10953  0.70064  1.0000
  C   C13       1.0  0.63570  0.38900  0.27403  1.0000
  C   C14       1.0  0.13569  0.61099  0.72597  1.0000
  C   C15       1.0  0.63571  0.88901  0.22597  1.0000
  C   C16       1.0  0.13570  0.11100  0.77403  1.0000
  C   C17       1.0  0.49666  0.30073  0.29880  1.0000
  C   C18       1.0  0.99664  0.69926  0.70120  1.0000
  C   C19       1.0  0.49665  0.80073  0.20120  1.0000
  C   C20       1.0  0.99664  0.19927  0.79880  1.0000
  C   C21       1.0  0.40014  0.21925  0.24925  1.0000
  C   C22       1.0  0.90013  0.78074  0.75074  1.0000
  C   C23       1.0  0.40014  0.71925  0.25074  1.0000
  C   C24       1.0  0.90012  0.28075  0.74926  1.0000
  C   C25       1.0  0.25046  0.12549  0.27085  1.0000
  C   C26       1.0  0.75045  0.87450  0.72915  1.0000
  C   C27       1.0  0.25045  0.62549  0.22915  1.0000
  C   C28       1.0  0.75044  0.37451  0.77085  1.0000
  C   C29       1.0  0.15126  0.13675  0.34123  1.0000
  C   C30       1.0  0.65124  0.86324  0.65877  1.0000
  C   C31       1.0  0.15126  0.63675  0.15877  1.0000
  C   C32       1.0  0.65125  0.36325  0.84123  1.0000
  C   C33       1.0  0.13822  0.02873  0.38965  1.0000
  C   C34       1.0  0.63820  0.97126  0.61035  1.0000
  C   C35       1.0  0.13821  0.52874  0.11035  1.0000
  C   C36       1.0  0.63821  0.47126  0.88965  1.0000
  C   C37       1.0  0.03482  0.04532  0.45315  1.0000
  C   C38       1.0  0.53481  0.95468  0.54685  1.0000
  C   C39       1.0  0.03481  0.54532  0.04685  1.0000
  C   C40       1.0  0.53481  0.45469  0.95315  1.0000
  C   C41       1.0  0.94677  0.16896  0.46679  1.0000
  C   C42       1.0  0.44675  0.83103  0.53321  1.0000
  C   C43       1.0  0.94675  0.66897  0.03321  1.0000
  C   C44       1.0  0.44675  0.33104  0.96679  1.0000
  C   C45       1.0  0.96770  0.27222  0.41647  1.0000
  C   C46       1.0  0.46769  0.72778  0.58353  1.0000
  C   C47       1.0  0.96769  0.77222  0.08354  1.0000
  C   C48       1.0  0.46769  0.22779  0.91647  1.0000
  S   S1        1.0  0.51975  0.82451  0.92528  1.0000
  S   S2        1.0  0.01977  0.17551  0.07472  1.0000
  S   S3        1.0  0.51974  0.32449  0.57472  1.0000
  S   S4        1.0  0.01977  0.67551  0.42528  1.0000
  N   N1        1.0  0.41510  0.97100  0.04951  1.0000
  N   N2        1.0  0.91510  0.02901  0.95048  1.0000
  N   N3        1.0  0.41509  0.47099  0.45049  1.0000
  N   N4        1.0  0.91508  0.52901  0.54952  1.0000
  N   N5        1.0  0.44305  0.22076  0.17757  1.0000
  N   N6        1.0  0.94304  0.77923  0.82243  1.0000
  N   N7        1.0  0.44304  0.72077  0.32243  1.0000
  N   N8        1.0  0.94303  0.27923  0.67757  1.0000
  N   N9        1.0  0.20720  0.03449  0.22216  1.0000
  N   N10       1.0  0.70720  0.96551  0.77783  1.0000
  N   N11       1.0  0.20720  0.53450  0.27783  1.0000
  N   N12       1.0  0.70719  0.46551  0.72217  1.0000
  N   N13       1.0  0.06736  0.25667  0.35541  1.0000
  N   N14       1.0  0.56735  0.74333  0.64458  1.0000
  N   N15       1.0  0.06735  0.75667  0.14458  1.0000
  N   N16       1.0  0.56735  0.24333  0.85542  1.0000
  O   O1        1.0  0.06464  0.94853  0.24048  1.0000
  O   O2        1.0  0.56464  0.05146  0.75952  1.0000
  O   O3        1.0  0.06464  0.44854  0.25952  1.0000
  O   O4        1.0  0.56463  0.55147  0.74048  1.0000
