data_image0
_chemical_formula_structural       Bi2H12C28N4Cl2O8
_chemical_formula_sum              "Bi2 H12 C28 N4 Cl2 O8"
_cell_length_a       8.84156
_cell_length_b       9.05444
_cell_length_c       9.87279
_cell_angle_alpha    111.15
_cell_angle_beta     115.355
_cell_angle_gamma    92.6805

_space_group_name_H-M_alt    "P 1"
_space_group_IT_number       1

loop_
  _space_group_symop_operation_xyz
  'x, y, z'

loop_
  _atom_site_type_symbol
  _atom_site_label
  _atom_site_symmetry_multiplicity
  _atom_site_fract_x
  _atom_site_fract_y
  _atom_site_fract_z
  _atom_site_occupancy
  Bi  Bi1       1.0  0.37563  0.19226  0.48336  1.0000
  Bi  Bi2       1.0  0.62437  0.80773  0.51664  1.0000
  H   H1        1.0  0.90605  0.60816  0.98681  1.0000
  H   H2        1.0  0.09395  0.39184  0.01319  1.0000
  H   H3        1.0  0.65404  0.72111  0.87053  1.0000
  H   H4        1.0  0.34596  0.27889  0.12946  1.0000
  H   H5        1.0  0.58425  0.27503  0.99360  1.0000
  H   H6        1.0  0.41575  0.72497  0.00640  1.0000
  H   H7        1.0  0.53778  0.97547  0.87026  1.0000
  H   H8        1.0  0.46223  0.02453  0.12974  1.0000
  H   H9        1.0  0.78899  0.55533  0.20793  1.0000
  H   H10       1.0  0.21101  0.44467  0.79207  1.0000
  H   H11       1.0  0.08585  0.71296  0.43547  1.0000
  H   H12       1.0  0.91415  0.28704  0.56453  1.0000
  C   C1        1.0  0.23267  0.78564  0.23921  1.0000
  C   C2        1.0  0.76733  0.21436  0.76079  1.0000
  C   C3        1.0  0.07278  0.84588  0.17053  1.0000
  C   C4        1.0  0.92721  0.15412  0.82947  1.0000
  C   C5        1.0  0.91577  0.73895  0.03860  1.0000
  C   C6        1.0  0.08423  0.26105  0.96140  1.0000
  C   C7        1.0  0.77601  0.80254  0.97453  1.0000
  C   C8        1.0  0.22399  0.19746  0.02547  1.0000
  C   C9        1.0  0.79359  0.97315  0.04106  1.0000
  C   C10       1.0  0.20641  0.02685  0.95894  1.0000
  C   C11       1.0  0.95592  0.07099  0.17684  1.0000
  C   C12       1.0  0.04408  0.92901  0.82316  1.0000
  C   C13       1.0  0.98326  0.24553  0.24831  1.0000
  C   C14       1.0  0.01674  0.75447  0.75169  1.0000
  C   C15       1.0  0.84892  0.31961  0.18220  1.0000
  C   C16       1.0  0.15108  0.68039  0.81780  1.0000
  C   C17       1.0  0.68638  0.21779  0.04594  1.0000
  C   C18       1.0  0.31362  0.78221  0.95406  1.0000
  C   C19       1.0  0.66008  0.05156  0.97740  1.0000
  C   C20       1.0  0.33992  0.94844  0.02260  1.0000
  C   C21       1.0  0.88782  0.49195  0.25311  1.0000
  C   C22       1.0  0.11218  0.50805  0.74689  1.0000
  C   C23       1.0  0.05151  0.58015  0.37949  1.0000
  C   C24       1.0  0.94849  0.41984  0.62051  1.0000
  C   C25       1.0  0.17604  0.49584  0.43792  1.0000
  C   C26       1.0  0.82396  0.50416  0.56208  1.0000
  C   C27       1.0  0.35900  0.58030  0.57355  1.0000
  C   C28       1.0  0.64100  0.41970  0.42646  1.0000
  N   N1        1.0  0.09016  0.00672  0.23819  1.0000
  N   N2        1.0  0.90984  0.99328  0.76180  1.0000
  N   N3        1.0  0.14047  0.33365  0.37398  1.0000
  N   N4        1.0  0.85953  0.66635  0.62602  1.0000
  Cl  Cl1       1.0  0.25706  0.14623  0.66265  1.0000
  Cl  Cl2       1.0  0.74294  0.85377  0.33735  1.0000
  O   O1        1.0  0.36879  0.89909  0.36059  1.0000
  O   O2        1.0  0.63121  0.10091  0.63942  1.0000
  O   O3        1.0  0.23068  0.63894  0.18049  1.0000
  O   O4        1.0  0.76932  0.36106  0.81951  1.0000
  O   O5        1.0  0.45122  0.49380  0.63578  1.0000
  O   O6        1.0  0.54879  0.50620  0.36422  1.0000
  O   O7        1.0  0.40990  0.73042  0.61471  1.0000
  O   O8        1.0  0.59010  0.26959  0.38530  1.0000
